MODEL 1
REMARK VINA RESULT:      -9.5      0.000      0.000
REMARK  7 active torsions:
REMARK  status: ('A' for Active; 'I' for Inactive)
REMARK    1  A    between atoms: O_2  and  C_3 
REMARK    2  A    between atoms: C_4  and  C_5 
REMARK       I    between atoms: C_5  and  N_6 
REMARK    3  A    between atoms: N_6  and  C_7 
REMARK    4  A    between atoms: C_7  and  N_8 
REMARK    5  A    between atoms: N_8  and  C_9 
REMARK    6  A    between atoms: C_10  and  N_11 
REMARK       I    between atoms: N_14  and  C_15 
REMARK    7  A    between atoms: C_15  and  C_16 
ROOT
HETATM    1  C   UNL     1      -5.761  -0.547 -32.774  1.00  0.00     0.060 A 
HETATM    2  C   UNL     1      -6.885  -0.685 -33.621  1.00  0.00     0.057 A 
HETATM    3  C   UNL     1      -6.840  -1.677 -34.609  1.00  0.00     0.031 A 
HETATM    4  C   UNL     1      -5.717  -2.499 -34.751  1.00  0.00     0.002 A 
HETATM    5  C   UNL     1      -4.616  -2.341 -33.912  1.00  0.00     0.002 A 
HETATM    6  C   UNL     1      -4.635  -1.362 -32.919  1.00  0.00     0.032 A 
ENDROOT
BRANCH   1   7
HETATM    7  N   UNL     1      -5.798   0.455 -31.777  1.00  0.00    -0.336 N 
HETATM    8  H   UNL     1      -6.734   0.775 -31.561  1.00  0.00     0.168 HD
BRANCH   7   9
HETATM    9  C   UNL     1      -4.909   1.488 -31.597  1.00  0.00     0.157 C 
HETATM   10  S   UNL     1      -3.331   1.060 -31.235  1.00  0.00    -0.047 SA
BRANCH   9  11
HETATM   11  N   UNL     1      -5.444   2.761 -31.642  1.00  0.00    -0.201 NA
HETATM   12  C   UNL     1      -4.709   3.937 -31.597  1.00  0.00     0.240 C 
HETATM   13  O   UNL     1      -4.810   4.641 -30.597  1.00  0.00    -0.274 OA
HETATM   14  H   UNL     1      -6.141   2.837 -30.912  1.00  0.00     0.139 HD
BRANCH  12  15
HETATM   15  C   UNL     1      -3.898   4.340 -32.779  1.00  0.00     0.060 A 
HETATM   16  C   UNL     1      -2.496   4.392 -32.711  1.00  0.00     0.083 A 
HETATM   17  C   UNL     1      -1.750   4.869 -33.794  1.00  0.00     0.038 A 
HETATM   18  C   UNL     1      -2.392   5.261 -34.967  1.00  0.00     0.003 A 
HETATM   19  C   UNL     1      -3.781   5.189 -35.056  1.00  0.00     0.001 A 
HETATM   20  C   UNL     1      -4.532   4.741 -33.967  1.00  0.00     0.019 A 
BRANCH  16  21
HETATM   21  O   UNL     1      -1.806   4.058 -31.576  1.00  0.00    -0.355 OA
HETATM   22  C   UNL     1      -1.111   5.193 -31.058  1.00  0.00     0.210 C 
ENDBRANCH  16  21
ENDBRANCH  12  15
ENDBRANCH   9  11
ENDBRANCH   7   9
ENDBRANCH   1   7
BRANCH   2  23
HETATM   23  N   UNL     1      -7.915   0.257 -33.538  1.00  0.00    -0.376 N 
HETATM   24  C   UNL     1      -9.276  -0.261 -33.302  1.00  0.00     0.143 C 
HETATM   25  C   UNL     1     -10.133   0.887 -32.710  1.00  0.00     0.146 C 
HETATM   26  N   UNL     1     -10.091   2.082 -33.573  1.00  0.00    -0.345 N 
HETATM   27  C   UNL     1     -11.200   2.674 -34.156  1.00  0.00     0.253 C 
HETATM   28  C   UNL     1      -8.746   2.526 -33.966  1.00  0.00     0.146 C 
HETATM   29  O   UNL     1     -11.150   3.378 -35.158  1.00  0.00    -0.267 OA
HETATM   30  C   UNL     1      -7.895   1.369 -34.515  1.00  0.00     0.143 C 
BRANCH  27  31
HETATM   31  C   UNL     1     -12.510   2.481 -33.499  1.00  0.00     0.032 A 
HETATM   32  C   UNL     1     -12.907   3.346 -32.471  1.00  0.00     0.017 A 
HETATM   33  C   UNL     1     -14.154   3.177 -31.871  1.00  0.00     0.001 A 
HETATM   34  C   UNL     1     -14.999   2.153 -32.301  1.00  0.00     0.000 A 
HETATM   35  C   UNL     1     -14.606   1.302 -33.338  1.00  0.00     0.001 A 
HETATM   36  C   UNL     1     -13.362   1.470 -33.947  1.00  0.00     0.017 A 
ENDBRANCH  27  31
ENDBRANCH   2  23
TORSDOF 7
ENDMDL
MODEL 2
REMARK VINA RESULT:      -9.5      4.598      6.901
REMARK  7 active torsions:
REMARK  status: ('A' for Active; 'I' for Inactive)
REMARK    1  A    between atoms: O_2  and  C_3 
REMARK    2  A    between atoms: C_4  and  C_5 
REMARK       I    between atoms: C_5  and  N_6 
REMARK    3  A    between atoms: N_6  and  C_7 
REMARK    4  A    between atoms: C_7  and  N_8 
REMARK    5  A    between atoms: N_8  and  C_9 
REMARK    6  A    between atoms: C_10  and  N_11 
REMARK       I    between atoms: N_14  and  C_15 
REMARK    7  A    between atoms: C_15  and  C_16 
ROOT
HETATM    1  C   UNL     1      -4.342   4.394 -31.190  1.00  0.00     0.060 A 
HETATM    2  C   UNL     1      -5.129   3.235 -31.000  1.00  0.00     0.057 A 
HETATM    3  C   UNL     1      -6.151   3.288 -30.043  1.00  0.00     0.031 A 
HETATM    4  C   UNL     1      -6.379   4.452 -29.301  1.00  0.00     0.002 A 
HETATM    5  C   UNL     1      -5.586   5.581 -29.496  1.00  0.00     0.002 A 
HETATM    6  C   UNL     1      -4.563   5.555 -30.443  1.00  0.00     0.032 A 
ENDROOT
BRANCH   1   7
HETATM    7  N   UNL     1      -3.305   4.345 -32.150  1.00  0.00    -0.336 N 
HETATM    8  H   UNL     1      -2.387   4.206 -31.747  1.00  0.00     0.168 HD
BRANCH   7   9
HETATM    9  C   UNL     1      -3.192   5.094 -33.297  1.00  0.00     0.157 C 
HETATM   10  S   UNL     1      -4.481   5.024 -34.365  1.00  0.00    -0.047 SA
BRANCH   9  11
HETATM   11  N   UNL     1      -1.986   5.743 -33.479  1.00  0.00    -0.201 NA
HETATM   12  C   UNL     1      -1.751   7.081 -33.199  1.00  0.00     0.240 C 
HETATM   13  O   UNL     1      -1.551   7.841 -34.142  1.00  0.00    -0.274 OA
HETATM   14  H   UNL     1      -1.692   5.600 -34.437  1.00  0.00     0.139 HD
BRANCH  12  15
HETATM   15  C   UNL     1      -1.669   7.531 -31.781  1.00  0.00     0.060 A 
HETATM   16  C   UNL     1      -1.015   6.752 -30.812  1.00  0.00     0.083 A 
HETATM   17  C   UNL     1      -1.030   7.134 -29.467  1.00  0.00     0.038 A 
HETATM   18  C   UNL     1      -1.665   8.313 -29.081  1.00  0.00     0.003 A 
HETATM   19  C   UNL     1      -2.296   9.107 -30.037  1.00  0.00     0.001 A 
HETATM   20  C   UNL     1      -2.307   8.716 -31.378  1.00  0.00     0.019 A 
BRANCH  16  21
HETATM   21  O   UNL     1      -0.405   5.564 -31.118  1.00  0.00    -0.355 OA
HETATM   22  C   UNL     1       0.232   5.015 -29.964  1.00  0.00     0.210 C 
ENDBRANCH  16  21
ENDBRANCH  12  15
ENDBRANCH   9  11
ENDBRANCH   7   9
ENDBRANCH   1   7
BRANCH   2  23
HETATM   23  N   UNL     1      -4.764   2.054 -31.655  1.00  0.00    -0.376 N 
HETATM   24  C   UNL     1      -5.857   1.152 -32.064  1.00  0.00     0.143 C 
HETATM   25  C   UNL     1      -5.330   0.241 -33.201  1.00  0.00     0.146 C 
HETATM   26  N   UNL     1      -4.099  -0.461 -32.794  1.00  0.00    -0.345 N 
HETATM   27  C   UNL     1      -3.952  -1.839 -32.752  1.00  0.00     0.253 C 
HETATM   28  C   UNL     1      -3.049   0.394 -32.223  1.00  0.00     0.146 C 
HETATM   29  O   UNL     1      -3.124  -2.416 -32.057  1.00  0.00    -0.267 OA
HETATM   30  C   UNL     1      -3.594   1.319 -31.123  1.00  0.00     0.143 C 
BRANCH  27  31
HETATM   31  C   UNL     1      -4.816  -2.651 -33.635  1.00  0.00     0.032 A 
HETATM   32  C   UNL     1      -4.406  -3.935 -34.019  1.00  0.00     0.017 A 
HETATM   33  C   UNL     1      -5.236  -4.709 -34.829  1.00  0.00     0.001 A 
HETATM   34  C   UNL     1      -6.468  -4.203 -35.247  1.00  0.00     0.000 A 
HETATM   35  C   UNL     1      -6.880  -2.928 -34.847  1.00  0.00     0.001 A 
HETATM   36  C   UNL     1      -6.057  -2.151 -34.031  1.00  0.00     0.017 A 
ENDBRANCH  27  31
ENDBRANCH   2  23
TORSDOF 7
ENDMDL
MODEL 3
REMARK VINA RESULT:      -9.4      2.634      8.503
REMARK  7 active torsions:
REMARK  status: ('A' for Active; 'I' for Inactive)
REMARK    1  A    between atoms: O_2  and  C_3 
REMARK    2  A    between atoms: C_4  and  C_5 
REMARK       I    between atoms: C_5  and  N_6 
REMARK    3  A    between atoms: N_6  and  C_7 
REMARK    4  A    between atoms: C_7  and  N_8 
REMARK    5  A    between atoms: N_8  and  C_9 
REMARK    6  A    between atoms: C_10  and  N_11 
REMARK       I    between atoms: N_14  and  C_15 
REMARK    7  A    between atoms: C_15  and  C_16 
ROOT
HETATM    1  C   UNL     1      -8.200   2.886 -32.307  1.00  0.00     0.060 A 
HETATM    2  C   UNL     1      -7.735   4.220 -32.243  1.00  0.00     0.057 A 
HETATM    3  C   UNL     1      -8.684   5.235 -32.071  1.00  0.00     0.031 A 
HETATM    4  C   UNL     1     -10.046   4.934 -31.970  1.00  0.00     0.002 A 
HETATM    5  C   UNL     1     -10.485   3.614 -32.045  1.00  0.00     0.002 A 
HETATM    6  C   UNL     1      -9.561   2.584 -32.214  1.00  0.00     0.032 A 
ENDROOT
BRANCH   1   7
HETATM    7  N   UNL     1      -7.247   1.857 -32.486  1.00  0.00    -0.336 N 
HETATM    8  H   UNL     1      -6.668   1.981 -33.307  1.00  0.00     0.168 HD
BRANCH   7   9
HETATM    9  C   UNL     1      -7.410   0.514 -32.239  1.00  0.00     0.157 C 
HETATM   10  S   UNL     1      -6.702  -0.080 -30.842  1.00  0.00    -0.047 SA
BRANCH   9  11
HETATM   11  N   UNL     1      -8.059  -0.206 -33.223  1.00  0.00    -0.201 NA
HETATM   12  C   UNL     1      -7.474  -0.662 -34.395  1.00  0.00     0.240 C 
HETATM   13  O   UNL     1      -7.831  -0.152 -35.453  1.00  0.00    -0.274 OA
HETATM   14  H   UNL     1      -8.883   0.312 -33.503  1.00  0.00     0.139 HD
BRANCH  12  15
HETATM   15  C   UNL     1      -6.506  -1.793 -34.340  1.00  0.00     0.060 A 
HETATM   16  C   UNL     1      -5.164  -1.581 -33.984  1.00  0.00     0.083 A 
HETATM   17  C   UNL     1      -4.242  -2.631 -34.032  1.00  0.00     0.038 A 
HETATM   18  C   UNL     1      -4.657  -3.910 -34.399  1.00  0.00     0.003 A 
HETATM   19  C   UNL     1      -5.992  -4.139 -34.729  1.00  0.00     0.001 A 
HETATM   20  C   UNL     1      -6.910  -3.087 -34.710  1.00  0.00     0.019 A 
BRANCH  16  21
HETATM   21  O   UNL     1      -4.683  -0.342 -33.651  1.00  0.00    -0.355 OA
HETATM   22  C   UNL     1      -3.409  -0.453 -33.014  1.00  0.00     0.210 C 
ENDBRANCH  16  21
ENDBRANCH  12  15
ENDBRANCH   9  11
ENDBRANCH   7   9
ENDBRANCH   1   7
BRANCH   2  23
HETATM   23  N   UNL     1      -6.385   4.479 -32.501  1.00  0.00    -0.376 N 
HETATM   24  C   UNL     1      -5.590   5.048 -31.395  1.00  0.00     0.143 C 
HETATM   25  C   UNL     1      -4.095   4.751 -31.673  1.00  0.00     0.146 C 
HETATM   26  N   UNL     1      -3.694   5.237 -33.006  1.00  0.00    -0.345 N 
HETATM   27  C   UNL     1      -2.693   6.167 -33.240  1.00  0.00     0.253 C 
HETATM   28  C   UNL     1      -4.567   4.823 -34.114  1.00  0.00     0.146 C 
HETATM   29  O   UNL     1      -2.629   6.860 -34.248  1.00  0.00    -0.267 OA
HETATM   30  C   UNL     1      -6.051   5.089 -33.808  1.00  0.00     0.143 C 
BRANCH  27  31
HETATM   31  C   UNL     1      -1.620   6.292 -32.231  1.00  0.00     0.032 A 
HETATM   32  C   UNL     1      -1.597   7.399 -31.373  1.00  0.00     0.017 A 
HETATM   33  C   UNL     1      -0.599   7.500 -30.405  1.00  0.00     0.001 A 
HETATM   34  C   UNL     1       0.366   6.498 -30.294  1.00  0.00     0.000 A 
HETATM   35  C   UNL     1       0.330   5.387 -31.142  1.00  0.00     0.001 A 
HETATM   36  C   UNL     1      -0.670   5.276 -32.108  1.00  0.00     0.017 A 
ENDBRANCH  27  31
ENDBRANCH   2  23
TORSDOF 7
ENDMDL
MODEL 4
REMARK VINA RESULT:      -9.4      3.321      6.275
REMARK  7 active torsions:
REMARK  status: ('A' for Active; 'I' for Inactive)
REMARK    1  A    between atoms: O_2  and  C_3 
REMARK    2  A    between atoms: C_4  and  C_5 
REMARK       I    between atoms: C_5  and  N_6 
REMARK    3  A    between atoms: N_6  and  C_7 
REMARK    4  A    between atoms: C_7  and  N_8 
REMARK    5  A    between atoms: N_8  and  C_9 
REMARK    6  A    between atoms: C_10  and  N_11 
REMARK       I    between atoms: N_14  and  C_15 
REMARK    7  A    between atoms: C_15  and  C_16 
ROOT
HETATM    1  C   UNL     1      -4.873   4.060 -31.252  1.00  0.00     0.060 A 
HETATM    2  C   UNL     1      -6.092   3.393 -30.984  1.00  0.00     0.057 A 
HETATM    3  C   UNL     1      -6.838   3.816 -29.877  1.00  0.00     0.031 A 
HETATM    4  C   UNL     1      -6.388   4.861 -29.065  1.00  0.00     0.002 A 
HETATM    5  C   UNL     1      -5.180   5.499 -29.340  1.00  0.00     0.002 A 
HETATM    6  C   UNL     1      -4.418   5.099 -30.437  1.00  0.00     0.032 A 
ENDROOT
BRANCH   1   7
HETATM    7  N   UNL     1      -4.113   3.634 -32.366  1.00  0.00    -0.336 N 
HETATM    8  H   UNL     1      -3.431   2.921 -32.140  1.00  0.00     0.168 HD
BRANCH   7   9
HETATM    9  C   UNL     1      -3.642   4.407 -33.400  1.00  0.00     0.157 C 
HETATM   10  S   UNL     1      -4.781   4.965 -34.494  1.00  0.00    -0.047 SA
BRANCH   9  11
HETATM   11  N   UNL     1      -2.270   4.552 -33.470  1.00  0.00    -0.201 NA
HETATM   12  C   UNL     1      -1.599   5.764 -33.539  1.00  0.00     0.240 C 
HETATM   13  O   UNL     1      -1.022   6.045 -34.586  1.00  0.00    -0.274 OA
HETATM   14  H   UNL     1      -1.933   3.999 -34.248  1.00  0.00     0.139 HD
BRANCH  12  15
HETATM   15  C   UNL     1      -1.534   6.636 -32.333  1.00  0.00     0.060 A 
HETATM   16  C   UNL     1      -1.003   6.158 -31.123  1.00  0.00     0.083 A 
HETATM   17  C   UNL     1      -1.038   6.950 -29.971  1.00  0.00     0.038 A 
HETATM   18  C   UNL     1      -1.567   8.238 -30.024  1.00  0.00     0.003 A 
HETATM   19  C   UNL     1      -2.073   8.733 -31.224  1.00  0.00     0.001 A 
HETATM   20  C   UNL     1      -2.067   7.935 -32.371  1.00  0.00     0.019 A 
BRANCH  16  21
HETATM   21  O   UNL     1      -0.503   4.890 -30.994  1.00  0.00    -0.355 OA
HETATM   22  C   UNL     1       0.689   4.897 -30.208  1.00  0.00     0.210 C 
ENDBRANCH  16  21
ENDBRANCH  12  15
ENDBRANCH   9  11
ENDBRANCH   7   9
ENDBRANCH   1   7
BRANCH   2  23
HETATM   23  N   UNL     1      -6.421   2.258 -31.733  1.00  0.00    -0.376 N 
HETATM   24  C   UNL     1      -5.388   1.211 -31.849  1.00  0.00     0.143 C 
HETATM   25  C   UNL     1      -6.091  -0.122 -32.208  1.00  0.00     0.146 C 
HETATM   26  N   UNL     1      -6.928   0.025 -33.413  1.00  0.00    -0.345 N 
HETATM   27  C   UNL     1      -6.770  -0.708 -34.579  1.00  0.00     0.253 C 
HETATM   28  C   UNL     1      -7.854   1.166 -33.398  1.00  0.00     0.146 C 
HETATM   29  O   UNL     1      -7.161  -0.334 -35.678  1.00  0.00    -0.267 OA
HETATM   30  C   UNL     1      -7.150   2.474 -33.003  1.00  0.00     0.143 C 
BRANCH  27  31
HETATM   31  C   UNL     1      -6.133  -2.038 -34.475  1.00  0.00     0.032 A 
HETATM   32  C   UNL     1      -6.888  -3.192 -34.725  1.00  0.00     0.017 A 
HETATM   33  C   UNL     1      -6.278  -4.443 -34.653  1.00  0.00     0.001 A 
HETATM   34  C   UNL     1      -4.921  -4.538 -34.339  1.00  0.00     0.000 A 
HETATM   35  C   UNL     1      -4.168  -3.383 -34.107  1.00  0.00     0.001 A 
HETATM   36  C   UNL     1      -4.771  -2.128 -34.184  1.00  0.00     0.017 A 
ENDBRANCH  27  31
ENDBRANCH   2  23
TORSDOF 7
ENDMDL
MODEL 5
REMARK VINA RESULT:      -9.3      4.112      6.922
REMARK  7 active torsions:
REMARK  status: ('A' for Active; 'I' for Inactive)
REMARK    1  A    between atoms: O_2  and  C_3 
REMARK    2  A    between atoms: C_4  and  C_5 
REMARK       I    between atoms: C_5  and  N_6 
REMARK    3  A    between atoms: N_6  and  C_7 
REMARK    4  A    between atoms: C_7  and  N_8 
REMARK    5  A    between atoms: N_8  and  C_9 
REMARK    6  A    between atoms: C_10  and  N_11 
REMARK       I    between atoms: N_14  and  C_15 
REMARK    7  A    between atoms: C_15  and  C_16 
ROOT
HETATM    1  C   UNL     1      -5.167   6.499 -31.926  1.00  0.00     0.060 A 
HETATM    2  C   UNL     1      -6.202   5.569 -31.673  1.00  0.00     0.057 A 
HETATM    3  C   UNL     1      -7.452   6.071 -31.290  1.00  0.00     0.031 A 
HETATM    4  C   UNL     1      -7.663   7.448 -31.159  1.00  0.00     0.002 A 
HETATM    5  C   UNL     1      -6.628   8.347 -31.403  1.00  0.00     0.002 A 
HETATM    6  C   UNL     1      -5.374   7.875 -31.788  1.00  0.00     0.032 A 
ENDROOT
BRANCH   1   7
HETATM    7  N   UNL     1      -3.901   5.998 -32.309  1.00  0.00    -0.336 N 
HETATM    8  H   UNL     1      -3.224   5.995 -31.556  1.00  0.00     0.168 HD
BRANCH   7   9
HETATM    9  C   UNL     1      -3.254   6.190 -33.506  1.00  0.00     0.157 C 
HETATM   10  S   UNL     1      -3.780   5.259 -34.796  1.00  0.00    -0.047 SA
BRANCH   9  11
HETATM   11  N   UNL     1      -2.182   7.060 -33.481  1.00  0.00    -0.201 NA
HETATM   12  C   UNL     1      -1.735   7.743 -32.360  1.00  0.00     0.240 C 
HETATM   13  O   UNL     1      -1.880   8.961 -32.331  1.00  0.00    -0.274 OA
HETATM   14  H   UNL     1      -2.327   7.761 -34.198  1.00  0.00     0.139 HD
BRANCH  12  15
HETATM   15  C   UNL     1      -1.031   6.997 -31.279  1.00  0.00     0.060 A 
HETATM   16  C   UNL     1      -1.396   7.158 -29.932  1.00  0.00     0.083 A 
HETATM   17  C   UNL     1      -0.665   6.531 -28.919  1.00  0.00     0.038 A 
HETATM   18  C   UNL     1       0.413   5.709 -29.240  1.00  0.00     0.003 A 
HETATM   19  C   UNL     1       0.769   5.520 -30.575  1.00  0.00     0.001 A 
HETATM   20  C   UNL     1       0.059   6.167 -31.589  1.00  0.00     0.019 A 
BRANCH  16  21
HETATM   21  O   UNL     1      -2.420   7.982 -29.546  1.00  0.00    -0.355 OA
HETATM   22  C   UNL     1      -3.323   7.290 -28.683  1.00  0.00     0.210 C 
ENDBRANCH  16  21
ENDBRANCH  12  15
ENDBRANCH   9  11
ENDBRANCH   7   9
ENDBRANCH   1   7
BRANCH   2  23
HETATM   23  N   UNL     1      -5.899   4.204 -31.670  1.00  0.00    -0.376 N 
HETATM   24  C   UNL     1      -6.335   3.420 -32.841  1.00  0.00     0.143 C 
HETATM   25  C   UNL     1      -5.468   2.138 -32.913  1.00  0.00     0.146 C 
HETATM   26  N   UNL     1      -5.517   1.389 -31.644  1.00  0.00    -0.345 N 
HETATM   27  C   UNL     1      -5.958   0.082 -31.514  1.00  0.00     0.253 C 
HETATM   28  C   UNL     1      -5.251   2.184 -30.436  1.00  0.00     0.146 C 
HETATM   29  O   UNL     1      -6.380  -0.395 -30.467  1.00  0.00    -0.267 OA
HETATM   30  C   UNL     1      -6.091   3.472 -30.397  1.00  0.00     0.143 C 
BRANCH  27  31
HETATM   31  C   UNL     1      -5.869  -0.796 -32.700  1.00  0.00     0.032 A 
HETATM   32  C   UNL     1      -4.657  -1.428 -33.008  1.00  0.00     0.017 A 
HETATM   33  C   UNL     1      -4.583  -2.277 -34.111  1.00  0.00     0.001 A 
HETATM   34  C   UNL     1      -5.715  -2.494 -34.898  1.00  0.00     0.000 A 
HETATM   35  C   UNL     1      -6.927  -1.874 -34.578  1.00  0.00     0.001 A 
HETATM   36  C   UNL     1      -7.009  -1.029 -33.471  1.00  0.00     0.017 A 
ENDBRANCH  27  31
ENDBRANCH   2  23
TORSDOF 7
ENDMDL
MODEL 6
REMARK VINA RESULT:      -9.3      3.111      6.388
REMARK  7 active torsions:
REMARK  status: ('A' for Active; 'I' for Inactive)
REMARK    1  A    between atoms: O_2  and  C_3 
REMARK    2  A    between atoms: C_4  and  C_5 
REMARK       I    between atoms: C_5  and  N_6 
REMARK    3  A    between atoms: N_6  and  C_7 
REMARK    4  A    between atoms: C_7  and  N_8 
REMARK    5  A    between atoms: N_8  and  C_9 
REMARK    6  A    between atoms: C_10  and  N_11 
REMARK       I    between atoms: N_14  and  C_15 
REMARK    7  A    between atoms: C_15  and  C_16 
ROOT
HETATM    1  C   UNL     1      -8.428   6.120 -32.662  1.00  0.00     0.060 A 
HETATM    2  C   UNL     1      -8.860   4.997 -31.920  1.00  0.00     0.057 A 
HETATM    3  C   UNL     1     -10.010   5.137 -31.132  1.00  0.00     0.031 A 
HETATM    4  C   UNL     1     -10.701   6.352 -31.081  1.00  0.00     0.002 A 
HETATM    5  C   UNL     1     -10.253   7.451 -31.812  1.00  0.00     0.002 A 
HETATM    6  C   UNL     1      -9.113   7.337 -32.606  1.00  0.00     0.032 A 
ENDROOT
BRANCH   1   7
HETATM    7  N   UNL     1      -7.265   5.986 -33.456  1.00  0.00    -0.336 N 
HETATM    8  H   UNL     1      -7.409   5.432 -34.291  1.00  0.00     0.168 HD
BRANCH   7   9
HETATM    9  C   UNL     1      -5.970   5.832 -33.022  1.00  0.00     0.157 C 
HETATM   10  S   UNL     1      -5.497   6.788 -31.731  1.00  0.00    -0.047 SA
BRANCH   9  11
HETATM   11  N   UNL     1      -5.181   4.976 -33.765  1.00  0.00    -0.201 NA
HETATM   12  C   UNL     1      -4.041   5.345 -34.464  1.00  0.00     0.240 C 
HETATM   13  O   UNL     1      -4.081   5.314 -35.690  1.00  0.00    -0.274 OA
HETATM   14  H   UNL     1      -5.775   4.496 -34.430  1.00  0.00     0.139 HD
BRANCH  12  15
HETATM   15  C   UNL     1      -2.799   5.683 -33.713  1.00  0.00     0.060 A 
HETATM   16  C   UNL     1      -2.175   4.736 -32.884  1.00  0.00     0.083 A 
HETATM   17  C   UNL     1      -1.068   5.094 -32.107  1.00  0.00     0.038 A 
HETATM   18  C   UNL     1      -0.551   6.386 -32.179  1.00  0.00     0.003 A 
HETATM   19  C   UNL     1      -1.146   7.327 -33.018  1.00  0.00     0.001 A 
HETATM   20  C   UNL     1      -2.269   6.982 -33.774  1.00  0.00     0.019 A 
BRANCH  16  21
HETATM   21  O   UNL     1      -2.654   3.462 -32.739  1.00  0.00    -0.355 OA
HETATM   22  C   UNL     1      -3.080   3.236 -31.395  1.00  0.00     0.210 C 
ENDBRANCH  16  21
ENDBRANCH  12  15
ENDBRANCH   9  11
ENDBRANCH   7   9
ENDBRANCH   1   7
BRANCH   2  23
HETATM   23  N   UNL     1      -8.052   3.856 -31.886  1.00  0.00    -0.376 N 
HETATM   24  C   UNL     1      -8.262   2.856 -32.950  1.00  0.00     0.143 C 
HETATM   25  C   UNL     1      -6.977   1.999 -33.068  1.00  0.00     0.146 C 
HETATM   26  N   UNL     1      -6.605   1.414 -31.766  1.00  0.00    -0.345 N 
HETATM   27  C   UNL     1      -6.488   0.056 -31.514  1.00  0.00     0.253 C 
HETATM   28  C   UNL     1      -6.551   2.363 -30.645  1.00  0.00     0.146 C 
HETATM   29  O   UNL     1      -6.585  -0.441 -30.398  1.00  0.00    -0.267 OA
HETATM   30  C   UNL     1      -7.816   3.233 -30.564  1.00  0.00     0.143 C 
BRANCH  27  31
HETATM   31  C   UNL     1      -6.183  -0.832 -32.655  1.00  0.00     0.032 A 
HETATM   32  C   UNL     1      -7.212  -1.240 -33.514  1.00  0.00     0.017 A 
HETATM   33  C   UNL     1      -6.917  -2.056 -34.605  1.00  0.00     0.001 A 
HETATM   34  C   UNL     1      -5.600  -2.456 -34.838  1.00  0.00     0.000 A 
HETATM   35  C   UNL     1      -4.573  -2.033 -33.988  1.00  0.00     0.001 A 
HETATM   36  C   UNL     1      -4.862  -1.211 -32.898  1.00  0.00     0.017 A 
ENDBRANCH  27  31
ENDBRANCH   2  23
TORSDOF 7
ENDMDL
MODEL 7
REMARK VINA RESULT:      -9.2      3.487      8.869
REMARK  7 active torsions:
REMARK  status: ('A' for Active; 'I' for Inactive)
REMARK    1  A    between atoms: O_2  and  C_3 
REMARK    2  A    between atoms: C_4  and  C_5 
REMARK       I    between atoms: C_5  and  N_6 
REMARK    3  A    between atoms: N_6  and  C_7 
REMARK    4  A    between atoms: C_7  and  N_8 
REMARK    5  A    between atoms: N_8  and  C_9 
REMARK    6  A    between atoms: C_10  and  N_11 
REMARK       I    between atoms: N_14  and  C_15 
REMARK    7  A    between atoms: C_15  and  C_16 
ROOT
HETATM    1  C   UNL     1      -6.373   2.718 -33.488  1.00  0.00     0.060 A 
HETATM    2  C   UNL     1      -6.296   4.111 -33.257  1.00  0.00     0.057 A 
HETATM    3  C   UNL     1      -7.479   4.856 -33.355  1.00  0.00     0.031 A 
HETATM    4  C   UNL     1      -8.692   4.237 -33.675  1.00  0.00     0.002 A 
HETATM    5  C   UNL     1      -8.744   2.865 -33.909  1.00  0.00     0.002 A 
HETATM    6  C   UNL     1      -7.583   2.100 -33.816  1.00  0.00     0.032 A 
ENDROOT
BRANCH   1   7
HETATM    7  N   UNL     1      -5.182   1.962 -33.395  1.00  0.00    -0.336 N 
HETATM    8  H   UNL     1      -4.904   1.536 -34.270  1.00  0.00     0.168 HD
BRANCH   7   9
HETATM    9  C   UNL     1      -4.777   1.166 -32.350  1.00  0.00     0.157 C 
HETATM   10  S   UNL     1      -5.345   1.582 -30.830  1.00  0.00    -0.047 SA
BRANCH   9  11
HETATM   11  N   UNL     1      -3.871   0.172 -32.663  1.00  0.00    -0.201 NA
HETATM   12  C   UNL     1      -4.073  -1.185 -32.458  1.00  0.00     0.240 C 
HETATM   13  O   UNL     1      -3.393  -1.746 -31.603  1.00  0.00    -0.274 OA
HETATM   14  H   UNL     1      -2.989   0.395 -32.218  1.00  0.00     0.139 HD
BRANCH  12  15
HETATM   15  C   UNL     1      -5.035  -1.923 -33.324  1.00  0.00     0.060 A 
HETATM   16  C   UNL     1      -4.650  -3.092 -34.000  1.00  0.00     0.083 A 
HETATM   17  C   UNL     1      -5.528  -3.720 -34.889  1.00  0.00     0.038 A 
HETATM   18  C   UNL     1      -6.811  -3.210 -35.082  1.00  0.00     0.003 A 
HETATM   19  C   UNL     1      -7.214  -2.065 -34.397  1.00  0.00     0.001 A 
HETATM   20  C   UNL     1      -6.329  -1.418 -33.530  1.00  0.00     0.019 A 
BRANCH  16  21
HETATM   21  O   UNL     1      -3.392  -3.624 -33.884  1.00  0.00    -0.355 OA
HETATM   22  C   UNL     1      -3.458  -4.967 -33.402  1.00  0.00     0.210 C 
ENDBRANCH  16  21
ENDBRANCH  12  15
ENDBRANCH   9  11
ENDBRANCH   7   9
ENDBRANCH   1   7
BRANCH   2  23
HETATM   23  N   UNL     1      -5.039   4.702 -33.091  1.00  0.00    -0.376 N 
HETATM   24  C   UNL     1      -4.744   5.284 -31.768  1.00  0.00     0.143 C 
HETATM   25  C   UNL     1      -3.205   5.373 -31.613  1.00  0.00     0.146 C 
HETATM   26  N   UNL     1      -2.599   6.110 -32.736  1.00  0.00    -0.345 N 
HETATM   27  C   UNL     1      -1.844   7.266 -32.607  1.00  0.00     0.253 C 
HETATM   28  C   UNL     1      -3.006   5.661 -34.075  1.00  0.00     0.146 C 
HETATM   29  O   UNL     1      -1.690   8.084 -33.507  1.00  0.00    -0.267 OA
HETATM   30  C   UNL     1      -4.534   5.540 -34.202  1.00  0.00     0.143 C 
BRANCH  27  31
HETATM   31  C   UNL     1      -1.149   7.495 -31.323  1.00  0.00     0.032 A 
HETATM   32  C   UNL     1      -1.748   8.299 -30.343  1.00  0.00     0.017 A 
HETATM   33  C   UNL     1      -1.103   8.491 -29.122  1.00  0.00     0.001 A 
HETATM   34  C   UNL     1       0.129   7.880 -28.882  1.00  0.00     0.000 A 
HETATM   35  C   UNL     1       0.714   7.066 -29.857  1.00  0.00     0.001 A 
HETATM   36  C   UNL     1       0.071   6.864 -31.078  1.00  0.00     0.017 A 
ENDBRANCH  27  31
ENDBRANCH   2  23
TORSDOF 7
ENDMDL
MODEL 8
REMARK VINA RESULT:      -8.9      4.109      7.568
REMARK  7 active torsions:
REMARK  status: ('A' for Active; 'I' for Inactive)
REMARK    1  A    between atoms: O_2  and  C_3 
REMARK    2  A    between atoms: C_4  and  C_5 
REMARK       I    between atoms: C_5  and  N_6 
REMARK    3  A    between atoms: N_6  and  C_7 
REMARK    4  A    between atoms: C_7  and  N_8 
REMARK    5  A    between atoms: N_8  and  C_9 
REMARK    6  A    between atoms: C_10  and  N_11 
REMARK       I    between atoms: N_14  and  C_15 
REMARK    7  A    between atoms: C_15  and  C_16 
ROOT
HETATM    1  C   UNL     1      -1.745   6.327 -30.232  1.00  0.00     0.060 A 
HETATM    2  C   UNL     1      -1.919   5.504 -31.369  1.00  0.00     0.057 A 
HETATM    3  C   UNL     1      -0.831   5.350 -32.237  1.00  0.00     0.031 A 
HETATM    4  C   UNL     1       0.385   5.993 -31.985  1.00  0.00     0.002 A 
HETATM    5  C   UNL     1       0.534   6.807 -30.864  1.00  0.00     0.002 A 
HETATM    6  C   UNL     1      -0.533   6.976 -29.983  1.00  0.00     0.032 A 
ENDROOT
BRANCH   1   7
HETATM    7  N   UNL     1      -2.841   6.490 -29.354  1.00  0.00    -0.336 N 
HETATM    8  H   UNL     1      -3.618   5.875 -29.560  1.00  0.00     0.168 HD
BRANCH   7   9
HETATM    9  C   UNL     1      -3.317   7.665 -28.821  1.00  0.00     0.157 C 
HETATM   10  S   UNL     1      -3.799   8.840 -29.913  1.00  0.00    -0.047 SA
BRANCH   9  11
HETATM   11  N   UNL     1      -3.252   7.774 -27.446  1.00  0.00    -0.201 NA
HETATM   12  C   UNL     1      -2.271   7.206 -26.646  1.00  0.00     0.240 C 
HETATM   13  O   UNL     1      -2.596   6.288 -25.900  1.00  0.00    -0.274 OA
HETATM   14  H   UNL     1      -4.138   7.469 -27.062  1.00  0.00     0.139 HD
BRANCH  12  15
HETATM   15  C   UNL     1      -0.893   7.775 -26.660  1.00  0.00     0.060 A 
HETATM   16  C   UNL     1      -0.685   9.161 -26.747  1.00  0.00     0.083 A 
HETATM   17  C   UNL     1       0.610   9.678 -26.860  1.00  0.00     0.038 A 
HETATM   18  C   UNL     1       1.708   8.821 -26.850  1.00  0.00     0.003 A 
HETATM   19  C   UNL     1       1.516   7.445 -26.738  1.00  0.00     0.001 A 
HETATM   20  C   UNL     1       0.222   6.922 -26.653  1.00  0.00     0.019 A 
BRANCH  16  21
HETATM   21  O   UNL     1      -1.721  10.056 -26.801  1.00  0.00    -0.355 OA
HETATM   22  C   UNL     1      -1.494  11.026 -27.824  1.00  0.00     0.210 C 
ENDBRANCH  16  21
ENDBRANCH  12  15
ENDBRANCH   9  11
ENDBRANCH   7   9
ENDBRANCH   1   7
BRANCH   2  23
HETATM   23  N   UNL     1      -3.196   5.008 -31.656  1.00  0.00    -0.376 N 
HETATM   24  C   UNL     1      -3.278   3.621 -32.150  1.00  0.00     0.143 C 
HETATM   25  C   UNL     1      -4.712   3.098 -31.885  1.00  0.00     0.146 C 
HETATM   26  N   UNL     1      -5.723   3.999 -32.468  1.00  0.00    -0.345 N 
HETATM   27  C   UNL     1      -6.659   3.626 -33.420  1.00  0.00     0.253 C 
HETATM   28  C   UNL     1      -5.568   5.420 -32.128  1.00  0.00     0.146 C 
HETATM   29  O   UNL     1      -7.206   4.412 -34.183  1.00  0.00    -0.267 OA
HETATM   30  C   UNL     1      -4.131   5.915 -32.360  1.00  0.00     0.143 C 
BRANCH  27  31
HETATM   31  C   UNL     1      -7.050   2.201 -33.480  1.00  0.00     0.032 A 
HETATM   32  C   UNL     1      -7.840   1.653 -32.461  1.00  0.00     0.017 A 
HETATM   33  C   UNL     1      -8.229   0.317 -32.535  1.00  0.00     0.001 A 
HETATM   34  C   UNL     1      -7.834  -0.464 -33.623  1.00  0.00     0.000 A 
HETATM   35  C   UNL     1      -7.060   0.092 -34.646  1.00  0.00     0.001 A 
HETATM   36  C   UNL     1      -6.673   1.431 -34.581  1.00  0.00     0.017 A 
ENDBRANCH  27  31
ENDBRANCH   2  23
TORSDOF 7
ENDMDL
MODEL 9
REMARK VINA RESULT:      -8.9      2.379      3.331
REMARK  7 active torsions:
REMARK  status: ('A' for Active; 'I' for Inactive)
REMARK    1  A    between atoms: O_2  and  C_3 
REMARK    2  A    between atoms: C_4  and  C_5 
REMARK       I    between atoms: C_5  and  N_6 
REMARK    3  A    between atoms: N_6  and  C_7 
REMARK    4  A    between atoms: C_7  and  N_8 
REMARK    5  A    between atoms: N_8  and  C_9 
REMARK    6  A    between atoms: C_10  and  N_11 
REMARK       I    between atoms: N_14  and  C_15 
REMARK    7  A    between atoms: C_15  and  C_16 
ROOT
HETATM    1  C   UNL     1      -5.604   3.173 -31.130  1.00  0.00     0.060 A 
HETATM    2  C   UNL     1      -6.209   2.483 -32.206  1.00  0.00     0.057 A 
HETATM    3  C   UNL     1      -5.413   1.597 -32.943  1.00  0.00     0.031 A 
HETATM    4  C   UNL     1      -4.065   1.408 -32.624  1.00  0.00     0.002 A 
HETATM    5  C   UNL     1      -3.485   2.105 -31.566  1.00  0.00     0.002 A 
HETATM    6  C   UNL     1      -4.255   2.991 -30.814  1.00  0.00     0.032 A 
ENDROOT
BRANCH   1   7
HETATM    7  N   UNL     1      -6.402   4.072 -30.384  1.00  0.00    -0.336 N 
HETATM    8  H   UNL     1      -7.385   4.033 -30.623  1.00  0.00     0.168 HD
BRANCH   7   9
HETATM    9  C   UNL     1      -6.077   5.348 -29.990  1.00  0.00     0.157 C 
HETATM   10  S   UNL     1      -6.070   5.642 -28.341  1.00  0.00    -0.047 SA
BRANCH   9  11
HETATM   11  N   UNL     1      -5.887   6.264 -31.007  1.00  0.00    -0.201 NA
HETATM   12  C   UNL     1      -4.745   7.030 -31.188  1.00  0.00     0.240 C 
HETATM   13  O   UNL     1      -4.827   8.240 -31.003  1.00  0.00    -0.274 OA
HETATM   14  H   UNL     1      -6.663   6.916 -30.994  1.00  0.00     0.139 HD
BRANCH  12  15
HETATM   15  C   UNL     1      -3.495   6.379 -31.672  1.00  0.00     0.060 A 
HETATM   16  C   UNL     1      -3.397   5.891 -32.986  1.00  0.00     0.083 A 
HETATM   17  C   UNL     1      -2.258   5.192 -33.399  1.00  0.00     0.038 A 
HETATM   18  C   UNL     1      -1.193   5.009 -32.521  1.00  0.00     0.003 A 
HETATM   19  C   UNL     1      -1.267   5.511 -31.223  1.00  0.00     0.001 A 
HETATM   20  C   UNL     1      -2.415   6.184 -30.796  1.00  0.00     0.019 A 
BRANCH  16  21
HETATM   21  O   UNL     1      -4.422   6.004 -33.887  1.00  0.00    -0.355 OA
HETATM   22  C   UNL     1      -4.402   4.914 -34.809  1.00  0.00     0.210 C 
ENDBRANCH  16  21
ENDBRANCH  12  15
ENDBRANCH   9  11
ENDBRANCH   7   9
ENDBRANCH   1   7
BRANCH   2  23
HETATM   23  N   UNL     1      -7.515   2.820 -32.578  1.00  0.00    -0.376 N 
HETATM   24  C   UNL     1      -8.507   1.729 -32.595  1.00  0.00     0.143 C 
HETATM   25  C   UNL     1      -9.918   2.359 -32.484  1.00  0.00     0.146 C 
HETATM   26  N   UNL     1     -10.132   3.375 -33.531  1.00  0.00    -0.345 N 
HETATM   27  C   UNL     1     -11.139   3.329 -34.483  1.00  0.00     0.253 C 
HETATM   28  C   UNL     1      -9.071   4.384 -33.651  1.00  0.00     0.146 C 
HETATM   29  O   UNL     1     -11.085   3.910 -35.560  1.00  0.00    -0.267 OA
HETATM   30  C   UNL     1      -7.674   3.746 -33.722  1.00  0.00     0.143 C 
BRANCH  27  31
HETATM   31  C   UNL     1     -12.364   2.570 -34.153  1.00  0.00     0.032 A 
HETATM   32  C   UNL     1     -12.584   1.316 -34.739  1.00  0.00     0.017 A 
HETATM   33  C   UNL     1     -13.727   0.592 -34.406  1.00  0.00     0.001 A 
HETATM   34  C   UNL     1     -14.641   1.116 -33.490  1.00  0.00     0.000 A 
HETATM   35  C   UNL     1     -14.409   2.360 -32.895  1.00  0.00     0.001 A 
HETATM   36  C   UNL     1     -13.263   3.087 -33.220  1.00  0.00     0.017 A 
ENDBRANCH  27  31
ENDBRANCH   2  23
TORSDOF 7
ENDMDL
MODEL 10
REMARK VINA RESULT:      -8.9      3.211      9.082
REMARK  7 active torsions:
REMARK  status: ('A' for Active; 'I' for Inactive)
REMARK    1  A    between atoms: O_2  and  C_3 
REMARK    2  A    between atoms: C_4  and  C_5 
REMARK       I    between atoms: C_5  and  N_6 
REMARK    3  A    between atoms: N_6  and  C_7 
REMARK    4  A    between atoms: C_7  and  N_8 
REMARK    5  A    between atoms: N_8  and  C_9 
REMARK    6  A    between atoms: C_10  and  N_11 
REMARK       I    between atoms: N_14  and  C_15 
REMARK    7  A    between atoms: C_15  and  C_16 
ROOT
HETATM    1  C   UNL     1      -7.396   3.781 -31.351  1.00  0.00     0.060 A 
HETATM    2  C   UNL     1      -7.129   5.161 -31.196  1.00  0.00     0.057 A 
HETATM    3  C   UNL     1      -8.222   6.033 -31.115  1.00  0.00     0.031 A 
HETATM    4  C   UNL     1      -9.533   5.549 -31.190  1.00  0.00     0.002 A 
HETATM    5  C   UNL     1      -9.774   4.187 -31.353  1.00  0.00     0.002 A 
HETATM    6  C   UNL     1      -8.704   3.297 -31.434  1.00  0.00     0.032 A 
ENDROOT
BRANCH   1   7
HETATM    7  N   UNL     1      -6.296   2.896 -31.437  1.00  0.00    -0.336 N 
HETATM    8  H   UNL     1      -5.647   2.982 -30.665  1.00  0.00     0.168 HD
BRANCH   7   9
HETATM    9  C   UNL     1      -5.612   2.521 -32.569  1.00  0.00     0.157 C 
HETATM   10  S   UNL     1      -6.225   3.069 -34.028  1.00  0.00    -0.047 SA
BRANCH   9  11
HETATM   11  N   UNL     1      -4.553   1.656 -32.376  1.00  0.00    -0.201 NA
HETATM   12  C   UNL     1      -4.667   0.331 -31.982  1.00  0.00     0.240 C 
HETATM   13  O   UNL     1      -4.265   0.026 -30.863  1.00  0.00    -0.274 OA
HETATM   14  H   UNL     1      -3.906   2.087 -31.727  1.00  0.00     0.139 HD
BRANCH  12  15
HETATM   15  C   UNL     1      -5.190  -0.678 -32.945  1.00  0.00     0.060 A 
HETATM   16  C   UNL     1      -6.571  -0.831 -33.153  1.00  0.00     0.083 A 
HETATM   17  C   UNL     1      -7.055  -1.848 -33.983  1.00  0.00     0.038 A 
HETATM   18  C   UNL     1      -6.166  -2.696 -34.641  1.00  0.00     0.003 A 
HETATM   19  C   UNL     1      -4.793  -2.537 -34.463  1.00  0.00     0.001 A 
HETATM   20  C   UNL     1      -4.306  -1.542 -33.613  1.00  0.00     0.019 A 
BRANCH  16  21
HETATM   21  O   UNL     1      -7.498  -0.057 -32.508  1.00  0.00    -0.355 OA
HETATM   22  C   UNL     1      -8.655   0.127 -33.325  1.00  0.00     0.210 C 
ENDBRANCH  16  21
ENDBRANCH  12  15
ENDBRANCH   9  11
ENDBRANCH   7   9
ENDBRANCH   1   7
BRANCH   2  23
HETATM   23  N   UNL     1      -5.806   5.608 -31.279  1.00  0.00    -0.376 N 
HETATM   24  C   UNL     1      -5.197   6.127 -30.040  1.00  0.00     0.143 C 
HETATM   25  C   UNL     1      -3.657   6.046 -30.189  1.00  0.00     0.146 C 
HETATM   26  N   UNL     1      -3.203   6.736 -31.411  1.00  0.00    -0.345 N 
HETATM   27  C   UNL     1      -2.315   7.800 -31.433  1.00  0.00     0.253 C 
HETATM   28  C   UNL     1      -3.910   6.361 -32.643  1.00  0.00     0.146 C 
HETATM   29  O   UNL     1      -2.249   8.615 -32.347  1.00  0.00    -0.267 OA
HETATM   30  C   UNL     1      -5.437   6.409 -32.469  1.00  0.00     0.143 C 
BRANCH  27  31
HETATM   31  C   UNL     1      -1.363   7.927 -30.310  1.00  0.00     0.032 A 
HETATM   32  C   UNL     1      -0.189   7.161 -30.302  1.00  0.00     0.017 A 
HETATM   33  C   UNL     1       0.719   7.303 -29.255  1.00  0.00     0.001 A 
HETATM   34  C   UNL     1       0.458   8.208 -28.225  1.00  0.00     0.000 A 
HETATM   35  C   UNL     1      -0.707   8.982 -28.245  1.00  0.00     0.001 A 
HETATM   36  C   UNL     1      -1.617   8.850 -29.294  1.00  0.00     0.017 A 
ENDBRANCH  27  31
ENDBRANCH   2  23
TORSDOF 7
ENDMDL
