MODEL 1
REMARK VINA RESULT:      -8.9      0.000      0.000
REMARK  6 active torsions:
REMARK  status: ('A' for Active; 'I' for Inactive)
REMARK    1  A    between atoms: C_3  and  C_4 
REMARK    2  A    between atoms: C_4  and  C_5 
REMARK       I    between atoms: C_5  and  N_6 
REMARK    3  A    between atoms: N_6  and  C_7 
REMARK    4  A    between atoms: C_9  and  C_10 
REMARK    5  A    between atoms: C_11  and  C_12 
REMARK    6  A    between atoms: C_22  and  O_23 
ROOT
HETATM    1  C   UNL     1      -3.228   3.504 -31.499  1.00  0.00     0.036 A 
HETATM    2  C   UNL     1      -3.494   2.255 -32.066  1.00  0.00     0.050 A 
HETATM    3  C   UNL     1      -4.802   1.757 -32.106  1.00  0.00     0.020 A 
HETATM    4  C   UNL     1      -5.852   2.503 -31.570  1.00  0.00     0.021 A 
HETATM    5  C   UNL     1      -5.597   3.749 -30.999  1.00  0.00     0.004 A 
HETATM    6  C   UNL     1      -4.292   4.247 -30.970  1.00  0.00     0.029 A 
ENDROOT
BRANCH   1   7
HETATM    7  N   UNL     1      -1.946   4.094 -31.459  1.00  0.00    -0.327 N 
HETATM    8  C   UNL     1      -1.419   5.012 -32.349  1.00  0.00     0.226 C 
HETATM    9  O   UNL     1      -1.919   5.372 -33.412  1.00  0.00    -0.273 OA
HETATM   10  H   UNL     1      -1.338   3.776 -30.716  1.00  0.00     0.169 HD
BRANCH   8  11
HETATM   11  C   UNL     1      -0.078   5.581 -31.916  1.00  0.00     0.144 C 
BRANCH  11  12
HETATM   12  C   UNL     1      -0.074   6.084 -30.494  1.00  0.00    -0.016 A 
HETATM   13  C   UNL     1      -0.505   7.397 -30.232  1.00  0.00     0.010 A 
HETATM   14  C   UNL     1      -0.449   7.927 -28.940  1.00  0.00     0.001 A 
HETATM   15  C   UNL     1       0.046   7.157 -27.892  1.00  0.00     0.003 A 
HETATM   16  C   UNL     1       0.477   5.855 -28.134  1.00  0.00     0.037 A 
HETATM   17  C   UNL     1       0.408   5.322 -29.420  1.00  0.00     0.072 A 
BRANCH  17  18
HETATM   18  O   UNL     1       0.859   4.039 -29.558  1.00  0.00    -0.360 OA
HETATM   19  H   UNL     1       0.437   3.618 -30.337  1.00  0.00     0.217 HD
ENDBRANCH  17  18
ENDBRANCH  11  12
ENDBRANCH   8  11
ENDBRANCH   1   7
BRANCH   3  20
HETATM   20  C   UNL     1      -5.062   0.491 -32.721  1.00  0.00    -0.060 C 
HETATM   21  C   UNL     1      -5.254  -0.584 -33.221  1.00  0.00    -0.041 C 
BRANCH  21  22
HETATM   22  C   UNL     1      -5.457  -1.872 -33.802  1.00  0.00     0.110 A 
HETATM   23  N   UNL     1      -4.362  -2.661 -33.826  1.00  0.00    -0.252 NA
HETATM   24  C   UNL     1      -4.510  -3.885 -34.375  1.00  0.00     0.118 A 
HETATM   25  C   UNL     1      -5.702  -4.355 -34.903  1.00  0.00     0.019 A 
HETATM   26  C   UNL     1      -6.814  -3.519 -34.865  1.00  0.00     0.004 A 
HETATM   27  C   UNL     1      -6.694  -2.250 -34.303  1.00  0.00     0.041 A 
ENDBRANCH  21  22
ENDBRANCH   3  20
TORSDOF 6
ENDMDL
MODEL 2
REMARK VINA RESULT:      -8.6      2.496      9.749
REMARK  6 active torsions:
REMARK  status: ('A' for Active; 'I' for Inactive)
REMARK    1  A    between atoms: C_3  and  C_4 
REMARK    2  A    between atoms: C_4  and  C_5 
REMARK       I    between atoms: C_5  and  N_6 
REMARK    3  A    between atoms: N_6  and  C_7 
REMARK    4  A    between atoms: C_9  and  C_10 
REMARK    5  A    between atoms: C_11  and  C_12 
REMARK    6  A    between atoms: C_22  and  O_23 
ROOT
HETATM    1  C   UNL     1      -2.942   3.595 -32.505  1.00  0.00     0.036 A 
HETATM    2  C   UNL     1      -2.325   4.233 -31.426  1.00  0.00     0.050 A 
HETATM    3  C   UNL     1      -1.415   5.275 -31.643  1.00  0.00     0.020 A 
HETATM    4  C   UNL     1      -1.109   5.679 -32.943  1.00  0.00     0.021 A 
HETATM    5  C   UNL     1      -1.716   5.046 -34.026  1.00  0.00     0.004 A 
HETATM    6  C   UNL     1      -2.631   4.013 -33.806  1.00  0.00     0.029 A 
ENDROOT
BRANCH   1   7
HETATM    7  N   UNL     1      -3.901   2.567 -32.370  1.00  0.00    -0.327 N 
HETATM    8  C   UNL     1      -3.757   1.372 -31.689  1.00  0.00     0.226 C 
HETATM    9  O   UNL     1      -2.722   0.929 -31.196  1.00  0.00    -0.273 OA
HETATM   10  H   UNL     1      -4.773   2.712 -32.863  1.00  0.00     0.169 HD
BRANCH   8  11
HETATM   11  C   UNL     1      -5.043   0.569 -31.589  1.00  0.00     0.144 C 
BRANCH  11  12
HETATM   12  C   UNL     1      -5.240  -0.389 -32.738  1.00  0.00    -0.016 A 
HETATM   13  C   UNL     1      -6.279  -0.152 -33.655  1.00  0.00     0.010 A 
HETATM   14  C   UNL     1      -6.542  -1.053 -34.691  1.00  0.00     0.001 A 
HETATM   15  C   UNL     1      -5.777  -2.207 -34.821  1.00  0.00     0.003 A 
HETATM   16  C   UNL     1      -4.744  -2.457 -33.921  1.00  0.00     0.037 A 
HETATM   17  C   UNL     1      -4.473  -1.552 -32.897  1.00  0.00     0.072 A 
BRANCH  17  18
HETATM   18  O   UNL     1      -3.444  -1.887 -32.063  1.00  0.00    -0.360 OA
HETATM   19  H   UNL     1      -3.697  -1.712 -31.132  1.00  0.00     0.217 HD
ENDBRANCH  17  18
ENDBRANCH  11  12
ENDBRANCH   8  11
ENDBRANCH   1   7
BRANCH   3  20
HETATM   20  C   UNL     1      -0.819   5.942 -30.526  1.00  0.00    -0.060 C 
HETATM   21  C   UNL     1      -0.313   6.471 -29.574  1.00  0.00    -0.041 C 
BRANCH  21  22
HETATM   22  C   UNL     1       0.291   7.073 -28.429  1.00  0.00     0.110 A 
HETATM   23  N   UNL     1      -0.068   6.529 -27.247  1.00  0.00    -0.252 NA
HETATM   24  C   UNL     1       0.474   7.075 -26.138  1.00  0.00     0.118 A 
HETATM   25  C   UNL     1       1.358   8.143 -26.159  1.00  0.00     0.019 A 
HETATM   26  C   UNL     1       1.709   8.685 -27.391  1.00  0.00     0.004 A 
HETATM   27  C   UNL     1       1.167   8.141 -28.554  1.00  0.00     0.041 A 
ENDBRANCH  21  22
ENDBRANCH   3  20
TORSDOF 6
ENDMDL
MODEL 3
REMARK VINA RESULT:      -8.5      1.575      2.137
REMARK  6 active torsions:
REMARK  status: ('A' for Active; 'I' for Inactive)
REMARK    1  A    between atoms: C_3  and  C_4 
REMARK    2  A    between atoms: C_4  and  C_5 
REMARK       I    between atoms: C_5  and  N_6 
REMARK    3  A    between atoms: N_6  and  C_7 
REMARK    4  A    between atoms: C_9  and  C_10 
REMARK    5  A    between atoms: C_11  and  C_12 
REMARK    6  A    between atoms: C_22  and  O_23 
ROOT
HETATM    1  C   UNL     1      -3.929   3.341 -32.004  1.00  0.00     0.036 A 
HETATM    2  C   UNL     1      -4.042   2.027 -32.466  1.00  0.00     0.050 A 
HETATM    3  C   UNL     1      -5.302   1.460 -32.691  1.00  0.00     0.020 A 
HETATM    4  C   UNL     1      -6.459   2.200 -32.444  1.00  0.00     0.021 A 
HETATM    5  C   UNL     1      -6.356   3.511 -31.980  1.00  0.00     0.004 A 
HETATM    6  C   UNL     1      -5.097   4.078 -31.766  1.00  0.00     0.029 A 
ENDROOT
BRANCH   1   7
HETATM    7  N   UNL     1      -2.698   4.000 -31.794  1.00  0.00    -0.327 N 
HETATM    8  C   UNL     1      -1.907   4.619 -32.745  1.00  0.00     0.226 C 
HETATM    9  O   UNL     1      -2.065   4.586 -33.964  1.00  0.00    -0.273 OA
HETATM   10  H   UNL     1      -2.343   3.978 -30.847  1.00  0.00     0.169 HD
BRANCH   8  11
HETATM   11  C   UNL     1      -0.735   5.386 -32.158  1.00  0.00     0.144 C 
BRANCH  11  12
HETATM   12  C   UNL     1      -1.133   6.702 -31.537  1.00  0.00    -0.016 A 
HETATM   13  C   UNL     1      -1.123   6.829 -30.136  1.00  0.00     0.010 A 
HETATM   14  C   UNL     1      -1.553   8.006 -29.518  1.00  0.00     0.001 A 
HETATM   15  C   UNL     1      -2.008   9.072 -30.288  1.00  0.00     0.003 A 
HETATM   16  C   UNL     1      -2.024   8.963 -31.677  1.00  0.00     0.037 A 
HETATM   17  C   UNL     1      -1.582   7.794 -32.294  1.00  0.00     0.072 A 
BRANCH  17  18
HETATM   18  O   UNL     1      -1.641   7.782 -33.658  1.00  0.00    -0.360 OA
HETATM   19  H   UNL     1      -1.202   8.580 -34.020  1.00  0.00     0.217 HD
ENDBRANCH  17  18
ENDBRANCH  11  12
ENDBRANCH   8  11
ENDBRANCH   1   7
BRANCH   3  20
HETATM   20  C   UNL     1      -5.400   0.125 -33.197  1.00  0.00    -0.060 C 
HETATM   21  C   UNL     1      -5.460  -1.005 -33.599  1.00  0.00    -0.041 C 
BRANCH  21  22
HETATM   22  C   UNL     1      -5.511  -2.357 -34.055  1.00  0.00     0.110 A 
HETATM   23  N   UNL     1      -4.374  -3.060 -33.872  1.00  0.00    -0.252 NA
HETATM   24  C   UNL     1      -4.377  -4.341 -34.298  1.00  0.00     0.118 A 
HETATM   25  C   UNL     1      -5.467  -4.950 -34.901  1.00  0.00     0.019 A 
HETATM   26  C   UNL     1      -6.626  -4.200 -35.078  1.00  0.00     0.004 A 
HETATM   27  C   UNL     1      -6.653  -2.875 -34.647  1.00  0.00     0.041 A 
ENDBRANCH  21  22
ENDBRANCH   3  20
TORSDOF 6
ENDMDL
MODEL 4
REMARK VINA RESULT:      -8.4      3.171      4.442
REMARK  6 active torsions:
REMARK  status: ('A' for Active; 'I' for Inactive)
REMARK    1  A    between atoms: C_3  and  C_4 
REMARK    2  A    between atoms: C_4  and  C_5 
REMARK       I    between atoms: C_5  and  N_6 
REMARK    3  A    between atoms: N_6  and  C_7 
REMARK    4  A    between atoms: C_9  and  C_10 
REMARK    5  A    between atoms: C_11  and  C_12 
REMARK    6  A    between atoms: C_22  and  O_23 
ROOT
HETATM    1  C   UNL     1      -7.523   3.464 -33.873  1.00  0.00     0.036 A 
HETATM    2  C   UNL     1      -6.964   2.187 -33.976  1.00  0.00     0.050 A 
HETATM    3  C   UNL     1      -7.782   1.067 -34.165  1.00  0.00     0.020 A 
HETATM    4  C   UNL     1      -9.167   1.215 -34.242  1.00  0.00     0.021 A 
HETATM    5  C   UNL     1      -9.735   2.484 -34.138  1.00  0.00     0.004 A 
HETATM    6  C   UNL     1      -8.915   3.601 -33.959  1.00  0.00     0.029 A 
ENDROOT
BRANCH   1   7
HETATM    7  N   UNL     1      -6.767   4.647 -33.726  1.00  0.00    -0.327 N 
HETATM    8  C   UNL     1      -6.063   5.057 -32.609  1.00  0.00     0.226 C 
HETATM    9  O   UNL     1      -6.084   4.533 -31.497  1.00  0.00    -0.273 OA
HETATM   10  H   UNL     1      -6.778   5.278 -34.517  1.00  0.00     0.169 HD
BRANCH   8  11
HETATM   11  C   UNL     1      -5.211   6.292 -32.844  1.00  0.00     0.144 C 
BRANCH  11  12
HETATM   12  C   UNL     1      -3.778   5.973 -33.192  1.00  0.00    -0.016 A 
HETATM   13  C   UNL     1      -2.773   6.210 -32.237  1.00  0.00     0.010 A 
HETATM   14  C   UNL     1      -1.427   5.997 -32.544  1.00  0.00     0.001 A 
HETATM   15  C   UNL     1      -1.062   5.551 -33.810  1.00  0.00     0.003 A 
HETATM   16  C   UNL     1      -2.045   5.312 -34.768  1.00  0.00     0.037 A 
HETATM   17  C   UNL     1      -3.389   5.511 -34.458  1.00  0.00     0.072 A 
BRANCH  17  18
HETATM   18  O   UNL     1      -4.277   5.254 -35.464  1.00  0.00    -0.360 OA
HETATM   19  H   UNL     1      -3.813   4.842 -36.223  1.00  0.00     0.217 HD
ENDBRANCH  17  18
ENDBRANCH  11  12
ENDBRANCH   8  11
ENDBRANCH   1   7
BRANCH   3  20
HETATM   20  C   UNL     1      -7.191  -0.229 -34.302  1.00  0.00    -0.060 C 
HETATM   21  C   UNL     1      -6.682  -1.314 -34.387  1.00  0.00    -0.041 C 
BRANCH  21  22
HETATM   22  C   UNL     1      -6.066  -2.599 -34.460  1.00  0.00     0.110 A 
HETATM   23  N   UNL     1      -4.786  -2.639 -34.031  1.00  0.00    -0.252 NA
HETATM   24  C   UNL     1      -4.164  -3.835 -34.091  1.00  0.00     0.118 A 
HETATM   25  C   UNL     1      -4.763  -4.993 -34.563  1.00  0.00     0.019 A 
HETATM   26  C   UNL     1      -6.082  -4.922 -34.999  1.00  0.00     0.004 A 
HETATM   27  C   UNL     1      -6.752  -3.701 -34.948  1.00  0.00     0.041 A 
ENDBRANCH  21  22
ENDBRANCH   3  20
TORSDOF 6
ENDMDL
MODEL 5
REMARK VINA RESULT:      -8.2      4.742     10.084
REMARK  6 active torsions:
REMARK  status: ('A' for Active; 'I' for Inactive)
REMARK    1  A    between atoms: C_3  and  C_4 
REMARK    2  A    between atoms: C_4  and  C_5 
REMARK       I    between atoms: C_5  and  N_6 
REMARK    3  A    between atoms: N_6  and  C_7 
REMARK    4  A    between atoms: C_9  and  C_10 
REMARK    5  A    between atoms: C_11  and  C_12 
REMARK    6  A    between atoms: C_22  and  O_23 
ROOT
HETATM    1  C   UNL     1      -6.359   0.357 -32.304  1.00  0.00     0.036 A 
HETATM    2  C   UNL     1      -5.568   1.502 -32.185  1.00  0.00     0.050 A 
HETATM    3  C   UNL     1      -4.180   1.427 -32.359  1.00  0.00     0.020 A 
HETATM    4  C   UNL     1      -3.574   0.203 -32.644  1.00  0.00     0.021 A 
HETATM    5  C   UNL     1      -4.355  -0.946 -32.761  1.00  0.00     0.004 A 
HETATM    6  C   UNL     1      -5.741  -0.867 -32.597  1.00  0.00     0.029 A 
ENDROOT
BRANCH   1   7
HETATM    7  N   UNL     1      -7.766   0.355 -32.186  1.00  0.00    -0.327 N 
HETATM    8  C   UNL     1      -8.689   0.086 -33.180  1.00  0.00     0.226 C 
HETATM    9  O   UNL     1      -8.454  -0.064 -34.377  1.00  0.00    -0.273 OA
HETATM   10  H   UNL     1      -8.132   0.620 -31.281  1.00  0.00     0.169 HD
BRANCH   8  11
HETATM   11  C   UNL     1     -10.119  -0.006 -32.676  1.00  0.00     0.144 C 
BRANCH  11  12
HETATM   12  C   UNL     1     -11.105   0.750 -33.532  1.00  0.00    -0.016 A 
HETATM   13  C   UNL     1     -10.710   1.966 -34.119  1.00  0.00     0.010 A 
HETATM   14  C   UNL     1     -11.613   2.733 -34.859  1.00  0.00     0.001 A 
HETATM   15  C   UNL     1     -12.927   2.302 -35.019  1.00  0.00     0.003 A 
HETATM   16  C   UNL     1     -13.334   1.100 -34.445  1.00  0.00     0.037 A 
HETATM   17  C   UNL     1     -12.429   0.328 -33.718  1.00  0.00     0.072 A 
BRANCH  17  18
HETATM   18  O   UNL     1     -12.924  -0.831 -33.191  1.00  0.00    -0.360 OA
HETATM   19  H   UNL     1     -13.831  -0.683 -32.849  1.00  0.00     0.217 HD
ENDBRANCH  17  18
ENDBRANCH  11  12
ENDBRANCH   8  11
ENDBRANCH   1   7
BRANCH   3  20
HETATM   20  C   UNL     1      -3.388   2.615 -32.268  1.00  0.00    -0.060 C 
HETATM   21  C   UNL     1      -2.696   3.593 -32.189  1.00  0.00    -0.041 C 
BRANCH  21  22
HETATM   22  C   UNL     1      -1.849   4.738 -32.091  1.00  0.00     0.110 A 
HETATM   23  N   UNL     1      -0.909   4.666 -31.124  1.00  0.00    -0.252 NA
HETATM   24  C   UNL     1      -0.092   5.733 -30.992  1.00  0.00     0.118 A 
HETATM   25  C   UNL     1      -0.174   6.869 -31.782  1.00  0.00     0.019 A 
HETATM   26  C   UNL     1      -1.153   6.915 -32.770  1.00  0.00     0.004 A 
HETATM   27  C   UNL     1      -2.010   5.829 -32.931  1.00  0.00     0.041 A 
ENDBRANCH  21  22
ENDBRANCH   3  20
TORSDOF 6
ENDMDL
MODEL 6
REMARK VINA RESULT:      -8.1      2.399      3.115
REMARK  6 active torsions:
REMARK  status: ('A' for Active; 'I' for Inactive)
REMARK    1  A    between atoms: C_3  and  C_4 
REMARK    2  A    between atoms: C_4  and  C_5 
REMARK       I    between atoms: C_5  and  N_6 
REMARK    3  A    between atoms: N_6  and  C_7 
REMARK    4  A    between atoms: C_9  and  C_10 
REMARK    5  A    between atoms: C_11  and  C_12 
REMARK    6  A    between atoms: C_22  and  O_23 
ROOT
HETATM    1  C   UNL     1      -5.988   4.044 -34.010  1.00  0.00     0.036 A 
HETATM    2  C   UNL     1      -5.711   2.680 -34.131  1.00  0.00     0.050 A 
HETATM    3  C   UNL     1      -6.746   1.738 -34.073  1.00  0.00     0.020 A 
HETATM    4  C   UNL     1      -8.064   2.155 -33.884  1.00  0.00     0.021 A 
HETATM    5  C   UNL     1      -8.350   3.514 -33.759  1.00  0.00     0.004 A 
HETATM    6  C   UNL     1      -7.317   4.452 -33.827  1.00  0.00     0.029 A 
ENDROOT
BRANCH   1   7
HETATM    7  N   UNL     1      -5.010   5.058 -34.101  1.00  0.00    -0.327 N 
HETATM    8  C   UNL     1      -4.268   5.601 -33.068  1.00  0.00     0.226 C 
HETATM    9  O   UNL     1      -4.426   5.396 -31.866  1.00  0.00    -0.273 OA
HETATM   10  H   UNL     1      -4.871   5.454 -35.021  1.00  0.00     0.169 HD
BRANCH   8  11
HETATM   11  C   UNL     1      -3.175   6.548 -33.533  1.00  0.00     0.144 C 
BRANCH  11  12
HETATM   12  C   UNL     1      -1.932   6.491 -32.681  1.00  0.00    -0.016 A 
HETATM   13  C   UNL     1      -1.327   5.245 -32.435  1.00  0.00     0.010 A 
HETATM   14  C   UNL     1      -0.218   5.138 -31.593  1.00  0.00     0.001 A 
HETATM   15  C   UNL     1       0.301   6.273 -30.977  1.00  0.00     0.003 A 
HETATM   16  C   UNL     1      -0.285   7.515 -31.210  1.00  0.00     0.037 A 
HETATM   17  C   UNL     1      -1.383   7.623 -32.061  1.00  0.00     0.072 A 
BRANCH  17  18
HETATM   18  O   UNL     1      -1.891   8.881 -32.222  1.00  0.00    -0.360 OA
HETATM   19  H   UNL     1      -1.177   9.499 -32.487  1.00  0.00     0.217 HD
ENDBRANCH  17  18
ENDBRANCH  11  12
ENDBRANCH   8  11
ENDBRANCH   1   7
BRANCH   3  20
HETATM   20  C   UNL     1      -6.450   0.347 -34.233  1.00  0.00    -0.060 C 
HETATM   21  C   UNL     1      -6.205  -0.824 -34.335  1.00  0.00    -0.041 C 
BRANCH  21  22
HETATM   22  C   UNL     1      -5.915  -2.219 -34.425  1.00  0.00     0.110 A 
HETATM   23  N   UNL     1      -4.630  -2.548 -34.176  1.00  0.00    -0.252 NA
HETATM   24  C   UNL     1      -4.313  -3.858 -34.260  1.00  0.00     0.118 A 
HETATM   25  C   UNL     1      -5.222  -4.852 -34.583  1.00  0.00     0.019 A 
HETATM   26  C   UNL     1      -6.540  -4.483 -34.836  1.00  0.00     0.004 A 
HETATM   27  C   UNL     1      -6.899  -3.139 -34.756  1.00  0.00     0.041 A 
ENDBRANCH  21  22
ENDBRANCH   3  20
TORSDOF 6
ENDMDL
MODEL 7
REMARK VINA RESULT:      -8.0      5.991      9.405
REMARK  6 active torsions:
REMARK  status: ('A' for Active; 'I' for Inactive)
REMARK    1  A    between atoms: C_3  and  C_4 
REMARK    2  A    between atoms: C_4  and  C_5 
REMARK       I    between atoms: C_5  and  N_6 
REMARK    3  A    between atoms: N_6  and  C_7 
REMARK    4  A    between atoms: C_9  and  C_10 
REMARK    5  A    between atoms: C_11  and  C_12 
REMARK    6  A    between atoms: C_22  and  O_23 
ROOT
HETATM    1  C   UNL     1      -8.832   3.287 -33.809  1.00  0.00     0.036 A 
HETATM    2  C   UNL     1      -8.442   1.958 -33.988  1.00  0.00     0.050 A 
HETATM    3  C   UNL     1      -7.085   1.623 -34.084  1.00  0.00     0.020 A 
HETATM    4  C   UNL     1      -6.111   2.619 -34.011  1.00  0.00     0.021 A 
HETATM    5  C   UNL     1      -6.491   3.949 -33.836  1.00  0.00     0.004 A 
HETATM    6  C   UNL     1      -7.844   4.279 -33.730  1.00  0.00     0.029 A 
ENDROOT
BRANCH   1   7
HETATM    7  N   UNL     1     -10.174   3.702 -33.659  1.00  0.00    -0.327 N 
HETATM    8  C   UNL     1     -11.020   4.170 -34.647  1.00  0.00     0.226 C 
HETATM    9  O   UNL     1     -10.715   4.440 -35.807  1.00  0.00    -0.273 OA
HETATM   10  H   UNL     1     -10.535   3.689 -32.714  1.00  0.00     0.169 HD
BRANCH   8  11
HETATM   11  C   UNL     1     -12.454   4.361 -34.182  1.00  0.00     0.144 C 
BRANCH  11  12
HETATM   12  C   UNL     1     -13.167   3.063 -33.893  1.00  0.00    -0.016 A 
HETATM   13  C   UNL     1     -13.003   1.982 -34.777  1.00  0.00     0.010 A 
HETATM   14  C   UNL     1     -13.701   0.786 -34.587  1.00  0.00     0.001 A 
HETATM   15  C   UNL     1     -14.579   0.655 -33.516  1.00  0.00     0.003 A 
HETATM   16  C   UNL     1     -14.753   1.717 -32.631  1.00  0.00     0.037 A 
HETATM   17  C   UNL     1     -14.046   2.904 -32.813  1.00  0.00     0.072 A 
BRANCH  17  18
HETATM   18  O   UNL     1     -14.288   3.888 -31.897  1.00  0.00    -0.360 OA
HETATM   19  H   UNL     1     -15.191   3.787 -31.527  1.00  0.00     0.217 HD
ENDBRANCH  17  18
ENDBRANCH  11  12
ENDBRANCH   8  11
ENDBRANCH   1   7
BRANCH   3  20
HETATM   20  C   UNL     1      -6.701   0.253 -34.233  1.00  0.00    -0.060 C 
HETATM   21  C   UNL     1      -6.366  -0.897 -34.327  1.00  0.00    -0.041 C 
BRANCH  21  22
HETATM   22  C   UNL     1      -5.956  -2.261 -34.410  1.00  0.00     0.110 A 
HETATM   23  N   UNL     1      -4.662  -2.485 -34.095  1.00  0.00    -0.252 NA
HETATM   24  C   UNL     1      -4.232  -3.762 -34.170  1.00  0.00     0.118 A 
HETATM   25  C   UNL     1      -5.037  -4.826 -34.547  1.00  0.00     0.019 A 
HETATM   26  C   UNL     1      -6.366  -4.566 -34.866  1.00  0.00     0.004 A 
HETATM   27  C   UNL     1      -6.840  -3.257 -34.797  1.00  0.00     0.041 A 
ENDBRANCH  21  22
ENDBRANCH   3  20
TORSDOF 6
ENDMDL
MODEL 8
REMARK VINA RESULT:      -8.0      3.151      9.229
REMARK  6 active torsions:
REMARK  status: ('A' for Active; 'I' for Inactive)
REMARK    1  A    between atoms: C_3  and  C_4 
REMARK    2  A    between atoms: C_4  and  C_5 
REMARK       I    between atoms: C_5  and  N_6 
REMARK    3  A    between atoms: N_6  and  C_7 
REMARK    4  A    between atoms: C_9  and  C_10 
REMARK    5  A    between atoms: C_11  and  C_12 
REMARK    6  A    between atoms: C_22  and  O_23 
ROOT
HETATM    1  C   UNL     1      -7.222   0.760 -32.453  1.00  0.00     0.036 A 
HETATM    2  C   UNL     1      -6.081   1.566 -32.405  1.00  0.00     0.050 A 
HETATM    3  C   UNL     1      -6.052   2.706 -31.592  1.00  0.00     0.020 A 
HETATM    4  C   UNL     1      -7.168   3.052 -30.830  1.00  0.00     0.021 A 
HETATM    5  C   UNL     1      -8.311   2.256 -30.874  1.00  0.00     0.004 A 
HETATM    6  C   UNL     1      -8.334   1.114 -31.678  1.00  0.00     0.029 A 
ENDROOT
BRANCH   1   7
HETATM    7  N   UNL     1      -7.316  -0.427 -33.212  1.00  0.00    -0.327 N 
HETATM    8  C   UNL     1      -7.015  -0.591 -34.551  1.00  0.00     0.226 C 
HETATM    9  O   UNL     1      -6.744   0.298 -35.356  1.00  0.00    -0.273 OA
HETATM   10  H   UNL     1      -7.684  -1.233 -32.723  1.00  0.00     0.169 HD
BRANCH   8  11
HETATM   11  C   UNL     1      -7.056  -2.038 -35.014  1.00  0.00     0.144 C 
BRANCH  11  12
HETATM   12  C   UNL     1      -5.909  -2.866 -34.490  1.00  0.00    -0.016 A 
HETATM   13  C   UNL     1      -4.851  -2.223 -33.822  1.00  0.00     0.010 A 
HETATM   14  C   UNL     1      -3.735  -2.942 -33.385  1.00  0.00     0.001 A 
HETATM   15  C   UNL     1      -3.655  -4.312 -33.615  1.00  0.00     0.003 A 
HETATM   16  C   UNL     1      -4.695  -4.964 -34.274  1.00  0.00     0.037 A 
HETATM   17  C   UNL     1      -5.814  -4.249 -34.698  1.00  0.00     0.072 A 
BRANCH  17  18
HETATM   18  O   UNL     1      -6.777  -4.975 -35.339  1.00  0.00    -0.360 OA
HETATM   19  H   UNL     1      -6.526  -5.110 -36.277  1.00  0.00     0.217 HD
ENDBRANCH  17  18
ENDBRANCH  11  12
ENDBRANCH   8  11
ENDBRANCH   1   7
BRANCH   3  20
HETATM   20  C   UNL     1      -4.865   3.502 -31.528  1.00  0.00    -0.060 C 
HETATM   21  C   UNL     1      -3.878   4.186 -31.501  1.00  0.00    -0.041 C 
BRANCH  21  22
HETATM   22  C   UNL     1      -2.714   5.013 -31.495  1.00  0.00     0.110 A 
HETATM   23  N   UNL     1      -1.551   4.356 -31.689  1.00  0.00    -0.252 NA
HETATM   24  C   UNL     1      -0.425   5.101 -31.682  1.00  0.00     0.118 A 
HETATM   25  C   UNL     1      -0.411   6.473 -31.488  1.00  0.00     0.019 A 
HETATM   26  C   UNL     1      -1.624   7.124 -31.289  1.00  0.00     0.004 A 
HETATM   27  C   UNL     1      -2.804   6.382 -31.293  1.00  0.00     0.041 A 
ENDBRANCH  21  22
ENDBRANCH   3  20
TORSDOF 6
ENDMDL
MODEL 9
REMARK VINA RESULT:      -7.9      2.828      9.227
REMARK  6 active torsions:
REMARK  status: ('A' for Active; 'I' for Inactive)
REMARK    1  A    between atoms: C_3  and  C_4 
REMARK    2  A    between atoms: C_4  and  C_5 
REMARK       I    between atoms: C_5  and  N_6 
REMARK    3  A    between atoms: N_6  and  C_7 
REMARK    4  A    between atoms: C_9  and  C_10 
REMARK    5  A    between atoms: C_11  and  C_12 
REMARK    6  A    between atoms: C_22  and  O_23 
ROOT
HETATM    1  C   UNL     1      -6.889   2.416 -33.409  1.00  0.00     0.036 A 
HETATM    2  C   UNL     1      -5.627   2.830 -32.978  1.00  0.00     0.050 A 
HETATM    3  C   UNL     1      -5.292   4.190 -32.965  1.00  0.00     0.020 A 
HETATM    4  C   UNL     1      -6.216   5.144 -33.393  1.00  0.00     0.021 A 
HETATM    5  C   UNL     1      -7.477   4.739 -33.828  1.00  0.00     0.004 A 
HETATM    6  C   UNL     1      -7.812   3.383 -33.831  1.00  0.00     0.029 A 
ENDROOT
BRANCH   1   7
HETATM    7  N   UNL     1      -7.319   1.071 -33.411  1.00  0.00    -0.327 N 
HETATM    8  C   UNL     1      -7.285   0.183 -34.471  1.00  0.00     0.226 C 
HETATM    9  O   UNL     1      -7.003   0.446 -35.639  1.00  0.00    -0.273 OA
HETATM   10  H   UNL     1      -7.734   0.740 -32.550  1.00  0.00     0.169 HD
BRANCH   8  11
HETATM   11  C   UNL     1      -7.658  -1.239 -34.088  1.00  0.00     0.144 C 
BRANCH  11  12
HETATM   12  C   UNL     1      -6.519  -2.216 -34.235  1.00  0.00    -0.016 A 
HETATM   13  C   UNL     1      -6.765  -3.470 -34.824  1.00  0.00     0.010 A 
HETATM   14  C   UNL     1      -5.755  -4.432 -34.914  1.00  0.00     0.001 A 
HETATM   15  C   UNL     1      -4.487  -4.160 -34.411  1.00  0.00     0.003 A 
HETATM   16  C   UNL     1      -4.226  -2.923 -33.824  1.00  0.00     0.037 A 
HETATM   17  C   UNL     1      -5.229  -1.959 -33.747  1.00  0.00     0.072 A 
BRANCH  17  18
HETATM   18  O   UNL     1      -4.879  -0.781 -33.151  1.00  0.00    -0.360 OA
HETATM   19  H   UNL     1      -3.917  -0.624 -33.259  1.00  0.00     0.217 HD
ENDBRANCH  17  18
ENDBRANCH  11  12
ENDBRANCH   8  11
ENDBRANCH   1   7
BRANCH   3  20
HETATM   20  C   UNL     1      -4.007   4.601 -32.488  1.00  0.00    -0.060 C 
HETATM   21  C   UNL     1      -2.926   4.966 -32.113  1.00  0.00    -0.041 C 
BRANCH  21  22
HETATM   22  C   UNL     1      -1.638   5.417 -31.694  1.00  0.00     0.110 A 
HETATM   23  N   UNL     1      -0.983   4.573 -30.868  1.00  0.00    -0.252 NA
HETATM   24  C   UNL     1       0.235   4.966 -30.440  1.00  0.00     0.118 A 
HETATM   25  C   UNL     1       0.828   6.166 -30.801  1.00  0.00     0.019 A 
HETATM   26  C   UNL     1       0.130   7.017 -31.652  1.00  0.00     0.004 A 
HETATM   27  C   UNL     1      -1.130   6.638 -32.111  1.00  0.00     0.041 A 
ENDBRANCH  21  22
ENDBRANCH   3  20
TORSDOF 6
ENDMDL
MODEL 10
REMARK VINA RESULT:      -7.6      3.821      7.058
REMARK  6 active torsions:
REMARK  status: ('A' for Active; 'I' for Inactive)
REMARK    1  A    between atoms: C_3  and  C_4 
REMARK    2  A    between atoms: C_4  and  C_5 
REMARK       I    between atoms: C_5  and  N_6 
REMARK    3  A    between atoms: N_6  and  C_7 
REMARK    4  A    between atoms: C_9  and  C_10 
REMARK    5  A    between atoms: C_11  and  C_12 
REMARK    6  A    between atoms: C_22  and  O_23 
ROOT
HETATM    1  C   UNL     1      -5.709   3.267 -32.161  1.00  0.00     0.036 A 
HETATM    2  C   UNL     1      -5.812   1.959 -32.641  1.00  0.00     0.050 A 
HETATM    3  C   UNL     1      -4.705   1.102 -32.612  1.00  0.00     0.020 A 
HETATM    4  C   UNL     1      -3.483   1.553 -32.111  1.00  0.00     0.021 A 
HETATM    5  C   UNL     1      -3.369   2.857 -31.633  1.00  0.00     0.004 A 
HETATM    6  C   UNL     1      -4.478   3.706 -31.653  1.00  0.00     0.029 A 
ENDROOT
BRANCH   1   7
HETATM    7  N   UNL     1      -6.787   4.177 -32.114  1.00  0.00    -0.327 N 
HETATM    8  C   UNL     1      -7.235   4.996 -33.134  1.00  0.00     0.226 C 
HETATM    9  O   UNL     1      -6.690   5.180 -34.221  1.00  0.00    -0.273 OA
HETATM   10  H   UNL     1      -7.252   4.263 -31.220  1.00  0.00     0.169 HD
BRANCH   8  11
HETATM   11  C   UNL     1      -8.529   5.724 -32.809  1.00  0.00     0.144 C 
BRANCH  11  12
HETATM   12  C   UNL     1      -9.746   5.088 -33.434  1.00  0.00    -0.016 A 
HETATM   13  C   UNL     1     -10.521   4.198 -32.669  1.00  0.00     0.010 A 
HETATM   14  C   UNL     1     -11.614   3.532 -33.230  1.00  0.00     0.001 A 
HETATM   15  C   UNL     1     -11.944   3.739 -34.566  1.00  0.00     0.003 A 
HETATM   16  C   UNL     1     -11.187   4.617 -35.338  1.00  0.00     0.037 A 
HETATM   17  C   UNL     1     -10.106   5.291 -34.773  1.00  0.00     0.072 A 
BRANCH  17  18
HETATM   18  O   UNL     1      -9.423   6.127 -35.611  1.00  0.00    -0.360 OA
HETATM   19  H   UNL     1      -8.795   6.678 -35.096  1.00  0.00     0.217 HD
ENDBRANCH  17  18
ENDBRANCH  11  12
ENDBRANCH   8  11
ENDBRANCH   1   7
BRANCH   3  20
HETATM   20  C   UNL     1      -4.837  -0.245 -33.076  1.00  0.00    -0.060 C 
HETATM   21  C   UNL     1      -4.964  -1.365 -33.492  1.00  0.00    -0.041 C 
BRANCH  21  22
HETATM   22  C   UNL     1      -5.131  -2.684 -34.010  1.00  0.00     0.110 A 
HETATM   23  N   UNL     1      -4.115  -3.531 -33.741  1.00  0.00    -0.252 NA
HETATM   24  C   UNL     1      -4.230  -4.788 -34.221  1.00  0.00     0.118 A 
HETATM   25  C   UNL     1      -5.315  -5.235 -34.959  1.00  0.00     0.019 A 
HETATM   26  C   UNL     1      -6.347  -4.339 -35.221  1.00  0.00     0.004 A 
HETATM   27  C   UNL     1      -6.258  -3.036 -34.737  1.00  0.00     0.041 A 
ENDBRANCH  21  22
ENDBRANCH   3  20
TORSDOF 6
ENDMDL
