MODEL 1
REMARK VINA RESULT:      -8.8      0.000      0.000
REMARK  3 active torsions:
REMARK  status: ('A' for Active; 'I' for Inactive)
REMARK    1  A    between atoms: C_2  and  C_3 
REMARK    2  A    between atoms: C_10  and  C_12 
REMARK    3  A    between atoms: C_10  and  O_11 
ROOT
HETATM    1  C   UNL     1      -6.574  -1.546 -33.940  1.00  0.00    -0.058 A 
HETATM    2  C   UNL     1      -7.731  -0.885 -33.495  1.00  0.00     0.020 A 
HETATM    3  C   UNL     1      -7.590   0.192 -32.632  1.00  0.00     0.018 A 
HETATM    4  C   UNL     1      -6.324   0.589 -32.200  1.00  0.00     0.045 A 
HETATM    5  N   UNL     1      -6.420   1.686 -31.357  1.00  0.00    -0.323 N 
HETATM    6  C   UNL     1      -7.747   2.091 -31.194  1.00  0.00     0.266 A 
HETATM    7  O   UNL     1      -8.096   3.030 -30.494  1.00  0.00    -0.269 OA
HETATM    8  C   UNL     1      -8.641   1.077 -31.996  1.00  0.00     0.199 A 
HETATM    9  C   UNL     1      -5.169  -0.043 -32.609  1.00  0.00     0.031 A 
HETATM   10  C   UNL     1      -5.303  -1.117 -33.493  1.00  0.00     0.009 A 
HETATM   11  H   UNL     1      -5.649   2.176 -30.928  1.00  0.00     0.169 HD
ENDROOT
BRANCH   8  12
HETATM   12  C   UNL     1      -9.432   1.732 -33.108  1.00  0.00     0.025 A 
HETATM   13  C   UNL     1     -10.754   1.375 -33.585  1.00  0.00     0.003 A 
HETATM   14  C   UNL     1     -11.089   2.259 -34.611  1.00  0.00     0.043 A 
HETATM   15  C   UNL     1     -11.707   0.390 -33.238  1.00  0.00     0.014 A 
HETATM   16  C   UNL     1     -12.313   2.218 -35.292  1.00  0.00     0.030 A 
HETATM   17  N   UNL     1     -10.023   3.103 -34.781  1.00  0.00    -0.359 N 
HETATM   18  C   UNL     1     -13.234   1.239 -34.918  1.00  0.00     0.002 A 
HETATM   19  C   UNL     1     -12.937   0.333 -33.906  1.00  0.00     0.001 A 
HETATM   20  H   UNL     1      -9.988   3.838 -35.473  1.00  0.00     0.166 HD
HETATM   21  C   UNL     1      -9.019   2.806 -33.899  1.00  0.00     0.016 A 
HETATM   22  C   UNL     1      -7.749   3.581 -33.910  1.00  0.00     0.069 C 
ENDBRANCH   8  12
BRANCH   8  23
HETATM   23  O   UNL     1      -9.431   0.276 -31.120  1.00  0.00    -0.371 OA
HETATM   24  H   UNL     1      -9.900  -0.365 -31.678  1.00  0.00     0.212 HD
ENDBRANCH   8  23
BRANCH   1  25
HETATM   25  C   UNL     1      -6.689  -2.682 -34.925  1.00  0.00     0.034 C 
HETATM   26  C   UNL     1      -5.461  -3.581 -34.895  1.00  0.00     0.010 C 
ENDBRANCH   1  25
TORSDOF 3
ENDMDL
MODEL 2
REMARK VINA RESULT:      -8.4      3.275      5.761
REMARK  3 active torsions:
REMARK  status: ('A' for Active; 'I' for Inactive)
REMARK    1  A    between atoms: C_2  and  C_3 
REMARK    2  A    between atoms: C_10  and  C_12 
REMARK    3  A    between atoms: C_10  and  O_11 
ROOT
HETATM    1  C   UNL     1      -3.136   3.914 -32.631  1.00  0.00    -0.058 A 
HETATM    2  C   UNL     1      -3.205   2.527 -32.424  1.00  0.00     0.020 A 
HETATM    3  C   UNL     1      -4.073   2.042 -31.457  1.00  0.00     0.018 A 
HETATM    4  C   UNL     1      -4.841   2.922 -30.693  1.00  0.00     0.045 A 
HETATM    5  N   UNL     1      -5.640   2.222 -29.802  1.00  0.00    -0.323 N 
HETATM    6  C   UNL     1      -5.463   0.842 -29.931  1.00  0.00     0.266 A 
HETATM    7  O   UNL     1      -6.049   0.010 -29.254  1.00  0.00    -0.269 OA
HETATM    8  C   UNL     1      -4.351   0.619 -31.018  1.00  0.00     0.199 A 
HETATM    9  C   UNL     1      -4.791   4.289 -30.864  1.00  0.00     0.031 A 
HETATM   10  C   UNL     1      -3.932   4.783 -31.850  1.00  0.00     0.009 A 
HETATM   11  H   UNL     1      -6.301   2.624 -29.154  1.00  0.00     0.169 HD
ENDROOT
BRANCH   8  12
HETATM   12  C   UNL     1      -4.843  -0.151 -32.225  1.00  0.00     0.025 A 
HETATM   13  C   UNL     1      -5.902   0.221 -33.143  1.00  0.00     0.003 A 
HETATM   14  C   UNL     1      -5.998  -0.781 -34.109  1.00  0.00     0.043 A 
HETATM   15  C   UNL     1      -6.784   1.319 -33.254  1.00  0.00     0.014 A 
HETATM   16  C   UNL     1      -6.910  -0.739 -35.172  1.00  0.00     0.030 A 
HETATM   17  N   UNL     1      -5.069  -1.737 -33.793  1.00  0.00    -0.359 N 
HETATM   18  C   UNL     1      -7.761   0.365 -35.256  1.00  0.00     0.002 A 
HETATM   19  C   UNL     1      -7.702   1.381 -34.310  1.00  0.00     0.001 A 
HETATM   20  H   UNL     1      -4.930  -2.588 -34.320  1.00  0.00     0.166 HD
HETATM   21  C   UNL     1      -4.369  -1.387 -32.669  1.00  0.00     0.016 A 
HETATM   22  C   UNL     1      -3.314  -2.285 -32.125  1.00  0.00     0.069 C 
ENDBRANCH   8  12
BRANCH   8  23
HETATM   23  O   UNL     1      -3.160   0.089 -30.440  1.00  0.00    -0.371 OA
HETATM   24  H   UNL     1      -2.760  -0.490 -31.110  1.00  0.00     0.212 HD
ENDBRANCH   8  23
BRANCH   1  25
HETATM   25  C   UNL     1      -2.246   4.469 -33.716  1.00  0.00     0.034 C 
HETATM   26  C   UNL     1      -3.034   5.288 -34.727  1.00  0.00     0.010 C 
ENDBRANCH   1  25
TORSDOF 3
ENDMDL
MODEL 3
REMARK VINA RESULT:      -8.2      3.293      6.065
REMARK  3 active torsions:
REMARK  status: ('A' for Active; 'I' for Inactive)
REMARK    1  A    between atoms: C_2  and  C_3 
REMARK    2  A    between atoms: C_10  and  C_12 
REMARK    3  A    between atoms: C_10  and  O_11 
ROOT
HETATM    1  C   UNL     1      -3.070   4.078 -32.738  1.00  0.00    -0.058 A 
HETATM    2  C   UNL     1      -3.327   2.704 -32.605  1.00  0.00     0.020 A 
HETATM    3  C   UNL     1      -4.163   2.280 -31.583  1.00  0.00     0.018 A 
HETATM    4  C   UNL     1      -4.714   3.203 -30.693  1.00  0.00     0.045 A 
HETATM    5  N   UNL     1      -5.521   2.562 -29.766  1.00  0.00    -0.323 N 
HETATM    6  C   UNL     1      -5.567   1.184 -29.993  1.00  0.00     0.266 A 
HETATM    7  O   UNL     1      -6.204   0.397 -29.308  1.00  0.00    -0.269 OA
HETATM    8  C   UNL     1      -4.608   0.883 -31.201  1.00  0.00     0.199 A 
HETATM    9  C   UNL     1      -4.476   4.557 -30.789  1.00  0.00     0.031 A 
HETATM   10  C   UNL     1      -3.650   4.993 -31.828  1.00  0.00     0.009 A 
HETATM   11  H   UNL     1      -6.051   3.006 -29.031  1.00  0.00     0.169 HD
ENDROOT
BRANCH   8  12
HETATM   12  C   UNL     1      -5.322   0.281 -32.392  1.00  0.00     0.025 A 
HETATM   13  C   UNL     1      -5.018  -0.964 -33.071  1.00  0.00     0.003 A 
HETATM   14  C   UNL     1      -5.945  -1.123 -34.102  1.00  0.00     0.043 A 
HETATM   15  C   UNL     1      -4.050  -1.980 -32.904  1.00  0.00     0.014 A 
HETATM   16  C   UNL     1      -5.962  -2.233 -34.956  1.00  0.00     0.030 A 
HETATM   17  N   UNL     1      -6.763  -0.024 -34.082  1.00  0.00    -0.359 N 
HETATM   18  C   UNL     1      -4.997  -3.223 -34.758  1.00  0.00     0.002 A 
HETATM   19  C   UNL     1      -4.051  -3.099 -33.747  1.00  0.00     0.001 A 
HETATM   20  H   UNL     1      -7.519   0.131 -34.735  1.00  0.00     0.166 HD
HETATM   21  C   UNL     1      -6.408   0.832 -33.074  1.00  0.00     0.016 A 
HETATM   22  C   UNL     1      -7.147   2.108 -32.870  1.00  0.00     0.069 C 
ENDBRANCH   8  12
BRANCH   8  23
HETATM   23  O   UNL     1      -3.461   0.147 -30.781  1.00  0.00    -0.371 OA
HETATM   24  H   UNL     1      -2.693   0.569 -31.199  1.00  0.00     0.212 HD
ENDBRANCH   8  23
BRANCH   1  25
HETATM   25  C   UNL     1      -2.214   4.578 -33.875  1.00  0.00     0.034 C 
HETATM   26  C   UNL     1      -3.027   5.369 -34.888  1.00  0.00     0.010 C 
ENDBRANCH   1  25
TORSDOF 3
ENDMDL
MODEL 4
REMARK VINA RESULT:      -8.1      3.094      6.094
REMARK  3 active torsions:
REMARK  status: ('A' for Active; 'I' for Inactive)
REMARK    1  A    between atoms: C_2  and  C_3 
REMARK    2  A    between atoms: C_10  and  C_12 
REMARK    3  A    between atoms: C_10  and  O_11 
ROOT
HETATM    1  C   UNL     1      -3.656   4.106 -33.382  1.00  0.00    -0.058 A 
HETATM    2  C   UNL     1      -3.911   2.960 -32.611  1.00  0.00     0.020 A 
HETATM    3  C   UNL     1      -5.209   2.474 -32.553  1.00  0.00     0.018 A 
HETATM    4  C   UNL     1      -6.239   3.130 -33.228  1.00  0.00     0.045 A 
HETATM    5  N   UNL     1      -7.442   2.467 -33.041  1.00  0.00    -0.323 N 
HETATM    6  C   UNL     1      -7.281   1.328 -32.248  1.00  0.00     0.266 A 
HETATM    7  O   UNL     1      -8.193   0.578 -31.933  1.00  0.00    -0.269 OA
HETATM    8  C   UNL     1      -5.772   1.279 -31.812  1.00  0.00     0.199 A 
HETATM    9  C   UNL     1      -6.026   4.262 -33.986  1.00  0.00     0.031 A 
HETATM   10  C   UNL     1      -4.717   4.746 -34.063  1.00  0.00     0.009 A 
HETATM   11  H   UNL     1      -8.332   2.725 -33.440  1.00  0.00     0.169 HD
ENDROOT
BRANCH   8  12
HETATM   12  C   UNL     1      -5.050   0.043 -32.305  1.00  0.00     0.025 A 
HETATM   13  C   UNL     1      -5.519  -0.932 -33.269  1.00  0.00     0.003 A 
HETATM   14  C   UNL     1      -4.517  -1.890 -33.427  1.00  0.00     0.043 A 
HETATM   15  C   UNL     1      -6.698  -1.092 -34.033  1.00  0.00     0.014 A 
HETATM   16  C   UNL     1      -4.624  -2.977 -34.304  1.00  0.00     0.030 A 
HETATM   17  N   UNL     1      -3.492  -1.544 -32.586  1.00  0.00    -0.359 N 
HETATM   18  C   UNL     1      -5.797  -3.099 -35.050  1.00  0.00     0.002 A 
HETATM   19  C   UNL     1      -6.823  -2.171 -34.917  1.00  0.00     0.001 A 
HETATM   20  H   UNL     1      -2.638  -2.075 -32.485  1.00  0.00     0.166 HD
HETATM   21  C   UNL     1      -3.788  -0.395 -31.901  1.00  0.00     0.016 A 
HETATM   22  C   UNL     1      -2.826   0.165 -30.914  1.00  0.00     0.069 C 
ENDBRANCH   8  12
BRANCH   8  23
HETATM   23  O   UNL     1      -5.630   1.512 -30.412  1.00  0.00    -0.371 OA
HETATM   24  H   UNL     1      -4.934   0.911 -30.101  1.00  0.00     0.212 HD
ENDBRANCH   8  23
BRANCH   1  25
HETATM   25  C   UNL     1      -2.246   4.625 -33.514  1.00  0.00     0.034 C 
HETATM   26  C   UNL     1      -1.944   5.082 -34.934  1.00  0.00     0.010 C 
ENDBRANCH   1  25
TORSDOF 3
ENDMDL
MODEL 5
REMARK VINA RESULT:      -8.0      3.244      6.079
REMARK  3 active torsions:
REMARK  status: ('A' for Active; 'I' for Inactive)
REMARK    1  A    between atoms: C_2  and  C_3 
REMARK    2  A    between atoms: C_10  and  C_12 
REMARK    3  A    between atoms: C_10  and  O_11 
ROOT
HETATM    1  C   UNL     1      -7.045   0.034 -34.052  1.00  0.00    -0.058 A 
HETATM    2  C   UNL     1      -6.510   1.332 -34.035  1.00  0.00     0.020 A 
HETATM    3  C   UNL     1      -7.079   2.275 -33.192  1.00  0.00     0.018 A 
HETATM    4  C   UNL     1      -8.176   1.939 -32.397  1.00  0.00     0.045 A 
HETATM    5  N   UNL     1      -8.570   3.025 -31.630  1.00  0.00    -0.323 N 
HETATM    6  C   UNL     1      -7.753   4.135 -31.856  1.00  0.00     0.266 A 
HETATM    7  O   UNL     1      -7.899   5.217 -31.307  1.00  0.00    -0.269 OA
HETATM    8  C   UNL     1      -6.720   3.729 -32.970  1.00  0.00     0.199 A 
HETATM    9  C   UNL     1      -8.732   0.678 -32.395  1.00  0.00     0.031 A 
HETATM   10  C   UNL     1      -8.151  -0.282 -33.230  1.00  0.00     0.009 A 
HETATM   11  H   UNL     1      -9.324   3.037 -30.959  1.00  0.00     0.169 HD
ENDROOT
BRANCH   8  12
HETATM   12  C   UNL     1      -5.283   3.788 -32.498  1.00  0.00     0.025 A 
HETATM   13  C   UNL     1      -4.143   4.347 -33.198  1.00  0.00     0.003 A 
HETATM   14  C   UNL     1      -3.024   4.193 -32.378  1.00  0.00     0.043 A 
HETATM   15  C   UNL     1      -3.952   4.980 -34.448  1.00  0.00     0.014 A 
HETATM   16  C   UNL     1      -1.745   4.641 -32.732  1.00  0.00     0.030 A 
HETATM   17  N   UNL     1      -3.441   3.549 -31.243  1.00  0.00    -0.359 N 
HETATM   18  C   UNL     1      -1.594   5.270 -33.969  1.00  0.00     0.002 A 
HETATM   19  C   UNL     1      -2.681   5.437 -34.819  1.00  0.00     0.001 A 
HETATM   20  H   UNL     1      -2.829   3.294 -30.480  1.00  0.00     0.166 HD
HETATM   21  C   UNL     1      -4.785   3.291 -31.293  1.00  0.00     0.016 A 
HETATM   22  C   UNL     1      -5.460   2.580 -30.173  1.00  0.00     0.069 C 
ENDBRANCH   8  12
BRANCH   8  23
HETATM   23  O   UNL     1      -6.960   4.440 -34.183  1.00  0.00    -0.371 OA
HETATM   24  H   UNL     1      -6.558   5.317 -34.074  1.00  0.00     0.212 HD
ENDBRANCH   8  23
BRANCH   1  25
HETATM   25  C   UNL     1      -6.411  -1.030 -34.913  1.00  0.00     0.034 C 
HETATM   26  C   UNL     1      -6.814  -2.429 -34.469  1.00  0.00     0.010 C 
ENDBRANCH   1  25
TORSDOF 3
ENDMDL
MODEL 6
REMARK VINA RESULT:      -7.6     14.896     16.372
REMARK  3 active torsions:
REMARK  status: ('A' for Active; 'I' for Inactive)
REMARK    1  A    between atoms: C_2  and  C_3 
REMARK    2  A    between atoms: C_10  and  C_12 
REMARK    3  A    between atoms: C_10  and  O_11 
ROOT
HETATM    1  C   UNL     1      -4.314 -13.305 -36.576  1.00  0.00    -0.058 A 
HETATM    2  C   UNL     1      -5.174 -13.034 -37.653  1.00  0.00     0.020 A 
HETATM    3  C   UNL     1      -4.711 -13.246 -38.943  1.00  0.00     0.018 A 
HETATM    4  C   UNL     1      -3.407 -13.694 -39.160  1.00  0.00     0.045 A 
HETATM    5  N   UNL     1      -3.165 -13.846 -40.516  1.00  0.00    -0.323 N 
HETATM    6  C   UNL     1      -4.292 -13.525 -41.277  1.00  0.00     0.266 A 
HETATM    7  O   UNL     1      -4.331 -13.571 -42.498  1.00  0.00    -0.269 OA
HETATM    8  C   UNL     1      -5.402 -13.040 -40.275  1.00  0.00     0.199 A 
HETATM    9  C   UNL     1      -2.534 -13.961 -38.127  1.00  0.00     0.031 A 
HETATM   10  C   UNL     1      -3.001 -13.768 -36.824  1.00  0.00     0.009 A 
HETATM   11  H   UNL     1      -2.308 -14.178 -40.934  1.00  0.00     0.169 HD
ENDROOT
BRANCH   8  12
HETATM   12  C   UNL     1      -6.641 -13.909 -40.295  1.00  0.00     0.025 A 
HETATM   13  C   UNL     1      -8.026 -13.479 -40.254  1.00  0.00     0.003 A 
HETATM   14  C   UNL     1      -8.826 -14.620 -40.307  1.00  0.00     0.043 A 
HETATM   15  C   UNL     1      -8.679 -12.227 -40.186  1.00  0.00     0.014 A 
HETATM   16  C   UNL     1     -10.227 -14.576 -40.308  1.00  0.00     0.030 A 
HETATM   17  N   UNL     1      -7.987 -15.701 -40.352  1.00  0.00    -0.359 N 
HETATM   18  C   UNL     1     -10.840 -13.324 -40.249  1.00  0.00     0.002 A 
HETATM   19  C   UNL     1     -10.079 -12.163 -40.187  1.00  0.00     0.001 A 
HETATM   20  H   UNL     1      -8.301 -16.662 -40.380  1.00  0.00     0.166 HD
HETATM   21  C   UNL     1      -6.676 -15.303 -40.340  1.00  0.00     0.016 A 
HETATM   22  C   UNL     1      -5.580 -16.310 -40.364  1.00  0.00     0.069 C 
ENDBRANCH   8  12
BRANCH   8  23
HETATM   23  O   UNL     1      -5.669 -11.648 -40.431  1.00  0.00    -0.371 OA
HETATM   24  H   UNL     1      -6.504 -11.580 -40.922  1.00  0.00     0.212 HD
ENDBRANCH   8  23
BRANCH   1  25
HETATM   25  C   UNL     1      -4.807 -13.142 -35.160  1.00  0.00     0.034 C 
HETATM   26  C   UNL     1      -6.242 -13.624 -35.004  1.00  0.00     0.010 C 
ENDBRANCH   1  25
TORSDOF 3
ENDMDL
MODEL 7
REMARK VINA RESULT:      -7.5      2.597      5.131
REMARK  3 active torsions:
REMARK  status: ('A' for Active; 'I' for Inactive)
REMARK    1  A    between atoms: C_2  and  C_3 
REMARK    2  A    between atoms: C_10  and  C_12 
REMARK    3  A    between atoms: C_10  and  O_11 
ROOT
HETATM    1  C   UNL     1      -5.007  -1.171 -33.511  1.00  0.00    -0.058 A 
HETATM    2  C   UNL     1      -5.305   0.185 -33.298  1.00  0.00     0.020 A 
HETATM    3  C   UNL     1      -6.507   0.684 -33.778  1.00  0.00     0.018 A 
HETATM    4  C   UNL     1      -7.385  -0.144 -34.479  1.00  0.00     0.045 A 
HETATM    5  N   UNL     1      -8.521   0.557 -34.852  1.00  0.00    -0.323 N 
HETATM    6  C   UNL     1      -8.473   1.882 -34.409  1.00  0.00     0.266 A 
HETATM    7  O   UNL     1      -9.351   2.706 -34.617  1.00  0.00    -0.269 OA
HETATM    8  C   UNL     1      -7.084   2.082 -33.701  1.00  0.00     0.199 A 
HETATM    9  C   UNL     1      -7.120  -1.476 -34.713  1.00  0.00     0.031 A 
HETATM   10  C   UNL     1      -5.919  -1.990 -34.216  1.00  0.00     0.009 A 
HETATM   11  H   UNL     1      -9.316   0.183 -35.348  1.00  0.00     0.169 HD
ENDROOT
BRANCH   8  12
HETATM   12  C   UNL     1      -7.210   2.453 -32.239  1.00  0.00     0.025 A 
HETATM   13  C   UNL     1      -6.491   3.489 -31.523  1.00  0.00     0.003 A 
HETATM   14  C   UNL     1      -6.939   3.481 -30.201  1.00  0.00     0.043 A 
HETATM   15  C   UNL     1      -5.508   4.444 -31.871  1.00  0.00     0.014 A 
HETATM   16  C   UNL     1      -6.471   4.371 -29.226  1.00  0.00     0.030 A 
HETATM   17  N   UNL     1      -7.865   2.477 -30.095  1.00  0.00    -0.359 N 
HETATM   18  C   UNL     1      -5.506   5.306 -29.606  1.00  0.00     0.002 A 
HETATM   19  C   UNL     1      -5.028   5.343 -30.910  1.00  0.00     0.001 A 
HETATM   20  H   UNL     1      -8.343   2.237 -29.238  1.00  0.00     0.166 HD
HETATM   21  C   UNL     1      -8.041   1.845 -31.297  1.00  0.00     0.016 A 
HETATM   22  C   UNL     1      -8.989   0.705 -31.420  1.00  0.00     0.069 C 
ENDBRANCH   8  12
BRANCH   8  23
HETATM   23  O   UNL     1      -6.242   2.956 -34.449  1.00  0.00    -0.371 OA
HETATM   24  H   UNL     1      -5.946   2.456 -35.227  1.00  0.00     0.212 HD
ENDBRANCH   8  23
BRANCH   1  25
HETATM   25  C   UNL     1      -3.735  -1.759 -32.951  1.00  0.00     0.034 C 
HETATM   26  C   UNL     1      -3.018  -0.779 -32.034  1.00  0.00     0.010 C 
ENDBRANCH   1  25
TORSDOF 3
ENDMDL
MODEL 8
REMARK VINA RESULT:      -7.3      3.758      6.552
REMARK  3 active torsions:
REMARK  status: ('A' for Active; 'I' for Inactive)
REMARK    1  A    between atoms: C_2  and  C_3 
REMARK    2  A    between atoms: C_10  and  C_12 
REMARK    3  A    between atoms: C_10  and  O_11 
ROOT
HETATM    1  C   UNL     1      -5.166  -0.233 -32.619  1.00  0.00    -0.058 A 
HETATM    2  C   UNL     1      -4.933   1.098 -33.003  1.00  0.00     0.020 A 
HETATM    3  C   UNL     1      -5.903   2.049 -32.726  1.00  0.00     0.018 A 
HETATM    4  C   UNL     1      -7.095   1.679 -32.102  1.00  0.00     0.045 A 
HETATM    5  N   UNL     1      -7.909   2.786 -31.915  1.00  0.00    -0.323 N 
HETATM    6  C   UNL     1      -7.303   3.953 -32.386  1.00  0.00     0.266 A 
HETATM    7  O   UNL     1      -7.819   5.060 -32.343  1.00  0.00    -0.269 OA
HETATM    8  C   UNL     1      -5.928   3.534 -33.022  1.00  0.00     0.199 A 
HETATM    9  C   UNL     1      -7.361   0.382 -31.720  1.00  0.00     0.031 A 
HETATM   10  C   UNL     1      -6.378  -0.578 -31.979  1.00  0.00     0.009 A 
HETATM   11  H   UNL     1      -8.814   2.790 -31.467  1.00  0.00     0.169 HD
ENDROOT
BRANCH   8  12
HETATM   12  C   UNL     1      -4.737   4.165 -32.332  1.00  0.00     0.025 A 
HETATM   13  C   UNL     1      -3.547   4.719 -32.948  1.00  0.00     0.003 A 
HETATM   14  C   UNL     1      -2.726   5.202 -31.929  1.00  0.00     0.043 A 
HETATM   15  C   UNL     1      -3.089   4.867 -34.278  1.00  0.00     0.014 A 
HETATM   16  C   UNL     1      -1.494   5.826 -32.165  1.00  0.00     0.030 A 
HETATM   17  N   UNL     1      -3.358   4.938 -30.742  1.00  0.00    -0.359 N 
HETATM   18  C   UNL     1      -1.077   5.964 -33.489  1.00  0.00     0.002 A 
HETATM   19  C   UNL     1      -1.861   5.490 -34.534  1.00  0.00     0.001 A 
HETATM   20  H   UNL     1      -2.978   5.169 -29.835  1.00  0.00     0.166 HD
HETATM   21  C   UNL     1      -4.559   4.315 -30.956  1.00  0.00     0.016 A 
HETATM   22  C   UNL     1      -5.417   3.913 -29.808  1.00  0.00     0.069 C 
ENDBRANCH   8  12
BRANCH   8  23
HETATM   23  O   UNL     1      -5.936   3.709 -34.437  1.00  0.00    -0.371 OA
HETATM   24  H   UNL     1      -6.760   3.311 -34.760  1.00  0.00     0.212 HD
ENDBRANCH   8  23
BRANCH   1  25
HETATM   25  C   UNL     1      -4.105  -1.280 -32.852  1.00  0.00     0.034 C 
HETATM   26  C   UNL     1      -2.975  -1.173 -31.838  1.00  0.00     0.010 C 
ENDBRANCH   1  25
TORSDOF 3
ENDMDL
MODEL 9
REMARK VINA RESULT:      -7.3      6.504      9.358
REMARK  3 active torsions:
REMARK  status: ('A' for Active; 'I' for Inactive)
REMARK    1  A    between atoms: C_2  and  C_3 
REMARK    2  A    between atoms: C_10  and  C_12 
REMARK    3  A    between atoms: C_10  and  O_11 
ROOT
HETATM    1  C   UNL     1      -4.906   3.139 -32.527  1.00  0.00    -0.058 A 
HETATM    2  C   UNL     1      -3.723   3.749 -32.080  1.00  0.00     0.020 A 
HETATM    3  C   UNL     1      -3.199   4.802 -32.815  1.00  0.00     0.018 A 
HETATM    4  C   UNL     1      -3.827   5.225 -33.986  1.00  0.00     0.045 A 
HETATM    5  N   UNL     1      -3.142   6.292 -34.547  1.00  0.00    -0.323 N 
HETATM    6  C   UNL     1      -2.033   6.650 -33.776  1.00  0.00     0.266 A 
HETATM    7  O   UNL     1      -1.263   7.555 -34.061  1.00  0.00    -0.269 OA
HETATM    8  C   UNL     1      -1.955   5.634 -32.579  1.00  0.00     0.199 A 
HETATM    9  C   UNL     1      -4.984   4.644 -34.459  1.00  0.00     0.031 A 
HETATM   10  C   UNL     1      -5.527   3.594 -33.713  1.00  0.00     0.009 A 
HETATM   11  H   UNL     1      -3.402   6.793 -35.383  1.00  0.00     0.169 HD
ENDROOT
BRANCH   8  12
HETATM   12  C   UNL     1      -2.089   6.297 -31.225  1.00  0.00     0.025 A 
HETATM   13  C   UNL     1      -1.181   6.202 -30.099  1.00  0.00     0.003 A 
HETATM   14  C   UNL     1      -1.698   6.989 -29.069  1.00  0.00     0.043 A 
HETATM   15  C   UNL     1       0.039   5.530 -29.855  1.00  0.00     0.014 A 
HETATM   16  C   UNL     1      -1.064   7.147 -27.830  1.00  0.00     0.030 A 
HETATM   17  N   UNL     1      -2.876   7.522 -29.521  1.00  0.00    -0.359 N 
HETATM   18  C   UNL     1       0.144   6.477 -27.626  1.00  0.00     0.002 A 
HETATM   19  C   UNL     1       0.689   5.676 -28.623  1.00  0.00     0.001 A 
HETATM   20  H   UNL     1      -3.473   8.124 -28.971  1.00  0.00     0.166 HD
HETATM   21  C   UNL     1      -3.134   7.120 -30.804  1.00  0.00     0.016 A 
HETATM   22  C   UNL     1      -4.374   7.561 -31.500  1.00  0.00     0.069 C 
ENDBRANCH   8  12
BRANCH   8  23
HETATM   23  O   UNL     1      -0.818   4.781 -32.696  1.00  0.00    -0.371 OA
HETATM   24  H   UNL     1      -0.187   5.066 -32.015  1.00  0.00     0.212 HD
ENDBRANCH   8  23
BRANCH   1  25
HETATM   25  C   UNL     1      -5.534   2.030 -31.719  1.00  0.00     0.034 C 
HETATM   26  C   UNL     1      -5.116   0.657 -32.227  1.00  0.00     0.010 C 
ENDBRANCH   1  25
TORSDOF 3
ENDMDL
MODEL 10
REMARK VINA RESULT:      -7.2     14.865     17.483
REMARK  3 active torsions:
REMARK  status: ('A' for Active; 'I' for Inactive)
REMARK    1  A    between atoms: C_2  and  C_3 
REMARK    2  A    between atoms: C_10  and  C_12 
REMARK    3  A    between atoms: C_10  and  O_11 
ROOT
HETATM    1  C   UNL     1      -8.603 -14.222 -39.331  1.00  0.00    -0.058 A 
HETATM    2  C   UNL     1      -7.396 -13.946 -39.993  1.00  0.00     0.020 A 
HETATM    3  C   UNL     1      -6.363 -13.360 -39.277  1.00  0.00     0.018 A 
HETATM    4  C   UNL     1      -6.537 -13.030 -37.932  1.00  0.00     0.045 A 
HETATM    5  N   UNL     1      -5.379 -12.469 -37.416  1.00  0.00    -0.323 N 
HETATM    6  C   UNL     1      -4.367 -12.407 -38.378  1.00  0.00     0.266 A 
HETATM    7  O   UNL     1      -3.254 -11.947 -38.173  1.00  0.00    -0.269 OA
HETATM    8  C   UNL     1      -4.975 -12.951 -39.722  1.00  0.00     0.199 A 
HETATM    9  C   UNL     1      -7.710 -13.279 -37.253  1.00  0.00     0.031 A 
HETATM   10  C   UNL     1      -8.748 -13.886 -37.965  1.00  0.00     0.009 A 
HETATM   11  H   UNL     1      -5.237 -12.165 -36.464  1.00  0.00     0.169 HD
ENDROOT
BRANCH   8  12
HETATM   12  C   UNL     1      -4.269 -14.187 -40.237  1.00  0.00     0.025 A 
HETATM   13  C   UNL     1      -4.123 -14.615 -41.615  1.00  0.00     0.003 A 
HETATM   14  C   UNL     1      -3.388 -15.800 -41.615  1.00  0.00     0.043 A 
HETATM   15  C   UNL     1      -4.537 -14.105 -42.866  1.00  0.00     0.014 A 
HETATM   16  C   UNL     1      -3.040 -16.488 -42.786  1.00  0.00     0.030 A 
HETATM   17  N   UNL     1      -3.115 -16.107 -40.309  1.00  0.00    -0.359 N 
HETATM   18  C   UNL     1      -3.457 -15.952 -44.005  1.00  0.00     0.002 A 
HETATM   19  C   UNL     1      -4.198 -14.776 -44.048  1.00  0.00     0.001 A 
HETATM   20  H   UNL     1      -2.604 -16.928 -40.014  1.00  0.00     0.166 HD
HETATM   21  C   UNL     1      -3.634 -15.161 -39.466  1.00  0.00     0.016 A 
HETATM   22  C   UNL     1      -3.477 -15.294 -37.992  1.00  0.00     0.069 C 
ENDBRANCH   8  12
BRANCH   8  23
HETATM   23  O   UNL     1      -5.103 -11.912 -40.691  1.00  0.00    -0.371 OA
HETATM   24  H   UNL     1      -6.004 -11.974 -41.045  1.00  0.00     0.212 HD
ENDBRANCH   8  23
BRANCH   1  25
HETATM   25  C   UNL     1      -9.724 -14.914 -40.066  1.00  0.00     0.034 C 
HETATM   26  C   UNL     1     -10.782 -13.926 -40.537  1.00  0.00     0.010 C 
ENDBRANCH   1  25
TORSDOF 3
ENDMDL
