MODEL 1
REMARK VINA RESULT:      -8.9      0.000      0.000
REMARK  3 active torsions:
REMARK  status: ('A' for Active; 'I' for Inactive)
REMARK    1  A    between atoms: C_2  and  C_3 
REMARK    2  A    between atoms: C_3  and  C_4 
REMARK    3  A    between atoms: C_8  and  C_9 
REMARK       I    between atoms: C_9  and  N_10 
ROOT
HETATM    1  C   UNL     1      -5.734   2.784 -31.851  1.00  0.00     0.271 C 
HETATM    2  N   UNL     1      -4.488   3.426 -31.835  1.00  0.00    -0.347 N 
HETATM    3  C   UNL     1      -3.283   2.934 -32.500  1.00  0.00     0.128 C 
HETATM    4  C   UNL     1      -2.438   4.054 -33.092  1.00  0.00     0.055 C 
HETATM    5  C   UNL     1      -2.154   5.182 -32.091  1.00  0.00     0.100 C 
HETATM    6  N   UNL     1      -1.245   4.670 -31.031  1.00  0.00    -0.273 NA
HETATM    7  C   UNL     1      -0.571   5.653 -30.286  1.00  0.00     0.036 A 
HETATM    8  C   UNL     1      -0.291   6.920 -30.829  1.00  0.00     0.056 A 
HETATM    9  N   UNL     1      -0.745   7.238 -32.113  1.00  0.00    -0.324 N 
HETATM   10  C   UNL     1      -1.522   6.383 -32.854  1.00  0.00     0.245 C 
HETATM   11  O   UNL     1      -1.779   6.656 -34.028  1.00  0.00    -0.271 OA
HETATM   12  C   UNL     1      -0.027   5.328 -29.040  1.00  0.00     0.026 A 
HETATM   13  C   UNL     1       0.716   6.268 -28.320  1.00  0.00     0.002 A 
HETATM   14  C   UNL     1       0.955   7.533 -28.856  1.00  0.00     0.002 A 
HETATM   15  C   UNL     1       0.460   7.857 -30.119  1.00  0.00     0.031 A 
HETATM   16  C   UNL     1      -3.481   5.670 -31.483  1.00  0.00     0.055 C 
HETATM   17  C   UNL     1      -4.311   4.534 -30.903  1.00  0.00     0.128 C 
HETATM   18  O   UNL     1      -6.736   3.339 -31.401  1.00  0.00    -0.266 OA
HETATM   19  H   UNL     1      -1.647   3.952 -30.436  1.00  0.00     0.129 HD
HETATM   20  H   UNL     1      -0.423   8.075 -32.578  1.00  0.00     0.169 HD
ENDROOT
BRANCH   1  21
HETATM   21  C   UNL     1      -5.850   1.463 -32.418  1.00  0.00     0.119 A 
HETATM   22  N   UNL     1      -5.645   0.342 -31.660  1.00  0.00    -0.273 N 
HETATM   23  N   UNL     1      -5.827  -0.813 -32.323  1.00  0.00    -0.179 NA
HETATM   24  H   UNL     1      -5.402   0.310 -30.674  1.00  0.00     0.189 HD
HETATM   25  C   UNL     1      -6.083  -0.424 -33.576  1.00  0.00     0.057 A 
HETATM   26  C   UNL     1      -6.059   0.983 -33.697  1.00  0.00     0.065 A 
BRANCH  25  27
HETATM   27  C   UNL     1      -6.355  -1.426 -34.652  1.00  0.00     0.065 C 
BRANCH  27  28
HETATM   28  C   UNL     1      -5.867  -2.841 -34.288  1.00  0.00    -0.017 C 
HETATM   29  C   UNL     1      -4.419  -3.074 -34.728  1.00  0.00     0.010 C 
HETATM   30  C   UNL     1      -6.778  -3.891 -34.925  1.00  0.00     0.010 C 
ENDBRANCH  27  28
ENDBRANCH  25  27
ENDBRANCH   1  21
TORSDOF 3
ENDMDL
MODEL 2
REMARK VINA RESULT:      -8.7      1.492      8.956
REMARK  3 active torsions:
REMARK  status: ('A' for Active; 'I' for Inactive)
REMARK    1  A    between atoms: C_2  and  C_3 
REMARK    2  A    between atoms: C_3  and  C_4 
REMARK    3  A    between atoms: C_8  and  C_9 
REMARK       I    between atoms: C_9  and  N_10 
ROOT
HETATM    1  C   UNL     1      -3.515   5.652 -32.644  1.00  0.00     0.271 C 
HETATM    2  N   UNL     1      -4.119   4.406 -32.428  1.00  0.00    -0.347 N 
HETATM    3  C   UNL     1      -4.020   3.628 -31.194  1.00  0.00     0.128 C 
HETATM    4  C   UNL     1      -5.313   2.900 -30.852  1.00  0.00     0.055 C 
HETATM    5  C   UNL     1      -5.874   2.090 -32.029  1.00  0.00     0.100 C 
HETATM    6  N   UNL     1      -4.965   0.944 -32.304  1.00  0.00    -0.273 NA
HETATM    7  C   UNL     1      -5.525  -0.104 -33.055  1.00  0.00     0.036 A 
HETATM    8  C   UNL     1      -6.909  -0.356 -33.043  1.00  0.00     0.056 A 
HETATM    9  N   UNL     1      -7.760   0.487 -32.321  1.00  0.00    -0.324 N 
HETATM   10  C   UNL     1      -7.309   1.608 -31.669  1.00  0.00     0.245 C 
HETATM   11  O   UNL     1      -8.076   2.238 -30.938  1.00  0.00    -0.271 OA
HETATM   12  C   UNL     1      -4.688  -1.014 -33.706  1.00  0.00     0.026 A 
HETATM   13  C   UNL     1      -5.223  -2.109 -34.391  1.00  0.00     0.002 A 
HETATM   14  C   UNL     1      -6.601  -2.326 -34.400  1.00  0.00     0.002 A 
HETATM   15  C   UNL     1      -7.446  -1.455 -33.714  1.00  0.00     0.031 A 
HETATM   16  C   UNL     1      -5.991   3.002 -33.264  1.00  0.00     0.055 C 
HETATM   17  C   UNL     1      -4.689   3.723 -33.585  1.00  0.00     0.128 C 
HETATM   18  O   UNL     1      -3.773   6.314 -33.648  1.00  0.00    -0.266 OA
HETATM   19  H   UNL     1      -4.043   1.203 -32.642  1.00  0.00     0.129 HD
HETATM   20  H   UNL     1      -8.726   0.235 -32.171  1.00  0.00     0.169 HD
ENDROOT
BRANCH   1  21
HETATM   21  C   UNL     1      -2.591   6.176 -31.668  1.00  0.00     0.119 A 
HETATM   22  N   UNL     1      -3.023   6.935 -30.613  1.00  0.00    -0.273 N 
HETATM   23  N   UNL     1      -2.047   7.316 -29.771  1.00  0.00    -0.179 NA
HETATM   24  H   UNL     1      -3.982   7.202 -30.408  1.00  0.00     0.189 HD
HETATM   25  C   UNL     1      -0.933   6.853 -30.346  1.00  0.00     0.057 A 
HETATM   26  C   UNL     1      -1.214   6.179 -31.555  1.00  0.00     0.065 A 
BRANCH  25  27
HETATM   27  C   UNL     1       0.404   7.064 -29.711  1.00  0.00     0.065 C 
BRANCH  27  28
HETATM   28  C   UNL     1       0.304   7.584 -28.264  1.00  0.00    -0.017 C 
HETATM   29  C   UNL     1       1.466   8.517 -27.913  1.00  0.00     0.010 C 
HETATM   30  C   UNL     1       0.266   6.410 -27.285  1.00  0.00     0.010 C 
ENDBRANCH  27  28
ENDBRANCH  25  27
ENDBRANCH   1  21
TORSDOF 3
ENDMDL
MODEL 3
REMARK VINA RESULT:      -8.5      5.006      8.254
REMARK  3 active torsions:
REMARK  status: ('A' for Active; 'I' for Inactive)
REMARK    1  A    between atoms: C_2  and  C_3 
REMARK    2  A    between atoms: C_3  and  C_4 
REMARK    3  A    between atoms: C_8  and  C_9 
REMARK       I    between atoms: C_9  and  N_10 
ROOT
HETATM    1  C   UNL     1      -8.502   2.329 -32.081  1.00  0.00     0.271 C 
HETATM    2  N   UNL     1      -7.351   1.573 -32.342  1.00  0.00    -0.347 N 
HETATM    3  C   UNL     1      -6.288   1.955 -33.270  1.00  0.00     0.128 C 
HETATM    4  C   UNL     1      -4.903   1.563 -32.773  1.00  0.00     0.055 C 
HETATM    5  C   UNL     1      -4.818   0.094 -32.335  1.00  0.00     0.100 C 
HETATM    6  N   UNL     1      -4.948  -0.776 -33.535  1.00  0.00    -0.273 NA
HETATM    7  C   UNL     1      -4.491  -2.096 -33.376  1.00  0.00     0.036 A 
HETATM    8  C   UNL     1      -3.490  -2.417 -32.442  1.00  0.00     0.056 A 
HETATM    9  N   UNL     1      -2.977  -1.420 -31.606  1.00  0.00    -0.324 N 
HETATM   10  C   UNL     1      -3.462  -0.135 -31.607  1.00  0.00     0.245 C 
HETATM   11  O   UNL     1      -2.885   0.734 -30.951  1.00  0.00    -0.271 OA
HETATM   12  C   UNL     1      -4.918  -3.090 -34.261  1.00  0.00     0.026 A 
HETATM   13  C   UNL     1      -4.414  -4.390 -34.170  1.00  0.00     0.002 A 
HETATM   14  C   UNL     1      -3.447  -4.702 -33.215  1.00  0.00     0.002 A 
HETATM   15  C   UNL     1      -2.974  -3.711 -32.356  1.00  0.00     0.031 A 
HETATM   16  C   UNL     1      -5.940  -0.201 -31.323  1.00  0.00     0.055 C 
HETATM   17  C   UNL     1      -7.314   0.204 -31.838  1.00  0.00     0.128 C 
HETATM   18  O   UNL     1      -9.271   2.016 -31.173  1.00  0.00    -0.266 OA
HETATM   19  H   UNL     1      -5.855  -0.741 -33.990  1.00  0.00     0.129 HD
HETATM   20  H   UNL     1      -2.155  -1.592 -31.045  1.00  0.00     0.169 HD
ENDROOT
BRANCH   1  21
HETATM   21  C   UNL     1      -8.782   3.499 -32.876  1.00  0.00     0.119 A 
HETATM   22  N   UNL     1      -8.324   4.736 -32.508  1.00  0.00    -0.273 N 
HETATM   23  N   UNL     1      -8.636   5.718 -33.371  1.00  0.00    -0.179 NA
HETATM   24  H   UNL     1      -7.771   4.961 -31.686  1.00  0.00     0.189 HD
HETATM   25  C   UNL     1      -9.390   5.107 -34.290  1.00  0.00     0.057 A 
HETATM   26  C   UNL     1      -9.551   3.734 -33.999  1.00  0.00     0.065 A 
BRANCH  25  27
HETATM   27  C   UNL     1      -9.947   5.863 -35.454  1.00  0.00     0.065 C 
BRANCH  27  28
HETATM   28  C   UNL     1     -11.239   6.627 -35.107  1.00  0.00    -0.017 C 
HETATM   29  C   UNL     1     -12.481   5.744 -35.262  1.00  0.00     0.010 C 
HETATM   30  C   UNL     1     -11.371   7.867 -35.993  1.00  0.00     0.010 C 
ENDBRANCH  27  28
ENDBRANCH  25  27
ENDBRANCH   1  21
TORSDOF 3
ENDMDL
MODEL 4
REMARK VINA RESULT:      -8.3      1.377      1.820
REMARK  3 active torsions:
REMARK  status: ('A' for Active; 'I' for Inactive)
REMARK    1  A    between atoms: C_2  and  C_3 
REMARK    2  A    between atoms: C_3  and  C_4 
REMARK    3  A    between atoms: C_8  and  C_9 
REMARK       I    between atoms: C_9  and  N_10 
ROOT
HETATM    1  C   UNL     1      -5.235   4.034 -31.617  1.00  0.00     0.271 C 
HETATM    2  N   UNL     1      -3.945   4.484 -31.303  1.00  0.00    -0.347 N 
HETATM    3  C   UNL     1      -2.708   3.770 -31.613  1.00  0.00     0.128 C 
HETATM    4  C   UNL     1      -1.572   4.705 -32.008  1.00  0.00     0.055 C 
HETATM    5  C   UNL     1      -1.369   5.854 -31.011  1.00  0.00     0.100 C 
HETATM    6  N   UNL     1      -0.849   5.297 -29.732  1.00  0.00    -0.273 NA
HETATM    7  C   UNL     1      -0.233   6.226 -28.875  1.00  0.00     0.036 A 
HETATM    8  C   UNL     1       0.375   7.392 -29.374  1.00  0.00     0.056 A 
HETATM    9  N   UNL     1       0.314   7.673 -30.743  1.00  0.00    -0.324 N 
HETATM   10  C   UNL     1      -0.380   6.886 -31.628  1.00  0.00     0.245 C 
HETATM   11  O   UNL     1      -0.288   7.101 -32.838  1.00  0.00    -0.271 OA
HETATM   12  C   UNL     1      -0.078   5.923 -27.520  1.00  0.00     0.026 A 
HETATM   13  C   UNL     1       0.603   6.797 -26.668  1.00  0.00     0.002 A 
HETATM   14  C   UNL     1       1.170   7.967 -27.171  1.00  0.00     0.002 A 
HETATM   15  C   UNL     1       1.066   8.262 -28.530  1.00  0.00     0.031 A 
HETATM   16  C   UNL     1      -2.709   6.577 -30.787  1.00  0.00     0.055 C 
HETATM   17  C   UNL     1      -3.831   5.624 -30.399  1.00  0.00     0.128 C 
HETATM   18  O   UNL     1      -6.214   4.763 -31.464  1.00  0.00    -0.266 OA
HETATM   19  H   UNL     1      -1.499   4.695 -29.235  1.00  0.00     0.129 HD
HETATM   20  H   UNL     1       0.874   8.414 -31.140  1.00  0.00     0.169 HD
ENDROOT
BRANCH   1  21
HETATM   21  C   UNL     1      -5.417   2.704 -32.145  1.00  0.00     0.119 A 
HETATM   22  N   UNL     1      -5.940   2.498 -33.394  1.00  0.00    -0.273 N 
HETATM   23  N   UNL     1      -6.011   1.205 -33.755  1.00  0.00    -0.179 NA
HETATM   24  H   UNL     1      -6.243   3.210 -34.051  1.00  0.00     0.189 HD
HETATM   25  C   UNL     1      -5.592   0.547 -32.670  1.00  0.00     0.057 A 
HETATM   26  C   UNL     1      -5.258   1.435 -31.623  1.00  0.00     0.065 A 
BRANCH  25  27
HETATM   27  C   UNL     1      -5.513  -0.945 -32.658  1.00  0.00     0.065 C 
BRANCH  27  28
HETATM   28  C   UNL     1      -5.672  -1.563 -34.061  1.00  0.00    -0.017 C 
HETATM   29  C   UNL     1      -7.073  -2.144 -34.271  1.00  0.00     0.010 C 
HETATM   30  C   UNL     1      -4.621  -2.652 -34.278  1.00  0.00     0.010 C 
ENDBRANCH  27  28
ENDBRANCH  25  27
ENDBRANCH   1  21
TORSDOF 3
ENDMDL
MODEL 5
REMARK VINA RESULT:      -8.2      6.034      8.521
REMARK  3 active torsions:
REMARK  status: ('A' for Active; 'I' for Inactive)
REMARK    1  A    between atoms: C_2  and  C_3 
REMARK    2  A    between atoms: C_3  and  C_4 
REMARK    3  A    between atoms: C_8  and  C_9 
REMARK       I    between atoms: C_9  and  N_10 
ROOT
HETATM    1  C   UNL     1      -6.980   0.786 -32.220  1.00  0.00     0.271 C 
HETATM    2  N   UNL     1      -8.053   1.341 -32.931  1.00  0.00    -0.347 N 
HETATM    3  C   UNL     1      -8.445   0.962 -34.288  1.00  0.00     0.128 C 
HETATM    4  C   UNL     1      -9.955   0.964 -34.486  1.00  0.00     0.055 C 
HETATM    5  C   UNL     1     -10.620   2.263 -34.009  1.00  0.00     0.100 C 
HETATM    6  N   UNL     1     -10.212   3.374 -34.911  1.00  0.00    -0.273 NA
HETATM    7  C   UNL     1     -11.031   4.516 -34.870  1.00  0.00     0.036 A 
HETATM    8  C   UNL     1     -12.388   4.432 -34.509  1.00  0.00     0.056 A 
HETATM    9  N   UNL     1     -12.926   3.202 -34.121  1.00  0.00    -0.324 N 
HETATM   10  C   UNL     1     -12.164   2.065 -34.007  1.00  0.00     0.245 C 
HETATM   11  O   UNL     1     -12.712   0.982 -33.794  1.00  0.00    -0.271 OA
HETATM   12  C   UNL     1     -10.542   5.737 -35.343  1.00  0.00     0.026 A 
HETATM   13  C   UNL     1     -11.366   6.865 -35.386  1.00  0.00     0.002 A 
HETATM   14  C   UNL     1     -12.700   6.775 -34.991  1.00  0.00     0.002 A 
HETATM   15  C   UNL     1     -13.217   5.553 -34.562  1.00  0.00     0.031 A 
HETATM   16  C   UNL     1     -10.191   2.551 -32.559  1.00  0.00     0.055 C 
HETATM   17  C   UNL     1      -8.679   2.539 -32.383  1.00  0.00     0.128 C 
HETATM   18  O   UNL     1      -6.811   1.045 -31.029  1.00  0.00    -0.266 OA
HETATM   19  H   UNL     1      -9.226   3.612 -34.874  1.00  0.00     0.129 HD
HETATM   20  H   UNL     1     -13.924   3.089 -34.012  1.00  0.00     0.169 HD
ENDROOT
BRANCH   1  21
HETATM   21  C   UNL     1      -6.071  -0.114 -32.885  1.00  0.00     0.119 A 
HETATM   22  N   UNL     1      -4.723   0.126 -32.913  1.00  0.00    -0.273 N 
HETATM   23  N   UNL     1      -4.007  -0.824 -33.538  1.00  0.00    -0.179 NA
HETATM   24  H   UNL     1      -4.237   0.915 -32.497  1.00  0.00     0.189 HD
HETATM   25  C   UNL     1      -4.934  -1.670 -34.000  1.00  0.00     0.057 A 
HETATM   26  C   UNL     1      -6.238  -1.244 -33.662  1.00  0.00     0.065 A 
BRANCH  25  27
HETATM   27  C   UNL     1      -4.546  -2.894 -34.766  1.00  0.00     0.065 C 
BRANCH  27  28
HETATM   28  C   UNL     1      -5.347  -4.141 -34.344  1.00  0.00    -0.017 C 
HETATM   29  C   UNL     1      -4.428  -5.317 -34.001  1.00  0.00     0.010 C 
HETATM   30  C   UNL     1      -6.314  -4.545 -35.457  1.00  0.00     0.010 C 
ENDBRANCH  27  28
ENDBRANCH  25  27
ENDBRANCH   1  21
TORSDOF 3
ENDMDL
MODEL 6
REMARK VINA RESULT:      -7.9      3.503      9.252
REMARK  3 active torsions:
REMARK  status: ('A' for Active; 'I' for Inactive)
REMARK    1  A    between atoms: C_2  and  C_3 
REMARK    2  A    between atoms: C_3  and  C_4 
REMARK    3  A    between atoms: C_8  and  C_9 
REMARK       I    between atoms: C_9  and  N_10 
ROOT
HETATM    1  C   UNL     1      -5.392   4.166 -30.796  1.00  0.00     0.271 C 
HETATM    2  N   UNL     1      -6.288   3.604 -31.715  1.00  0.00    -0.347 N 
HETATM    3  C   UNL     1      -5.934   3.138 -33.055  1.00  0.00     0.128 C 
HETATM    4  C   UNL     1      -6.696   1.884 -33.462  1.00  0.00     0.055 C 
HETATM    5  C   UNL     1      -8.210   2.008 -33.251  1.00  0.00     0.100 C 
HETATM    6  N   UNL     1      -8.754   2.999 -34.219  1.00  0.00    -0.273 NA
HETATM    7  C   UNL     1     -10.141   2.931 -34.438  1.00  0.00     0.036 A 
HETATM    8  C   UNL     1     -10.852   1.730 -34.264  1.00  0.00     0.056 A 
HETATM    9  N   UNL     1     -10.185   0.591 -33.803  1.00  0.00    -0.324 N 
HETATM   10  C   UNL     1      -8.861   0.607 -33.441  1.00  0.00     0.245 C 
HETATM   11  O   UNL     1      -8.290  -0.452 -33.173  1.00  0.00    -0.271 OA
HETATM   12  C   UNL     1     -10.811   4.028 -34.987  1.00  0.00     0.026 A 
HETATM   13  C   UNL     1     -12.174   3.953 -35.287  1.00  0.00     0.002 A 
HETATM   14  C   UNL     1     -12.874   2.766 -35.076  1.00  0.00     0.002 A 
HETATM   15  C   UNL     1     -12.210   1.647 -34.574  1.00  0.00     0.031 A 
HETATM   16  C   UNL     1      -8.488   2.451 -31.803  1.00  0.00     0.055 C 
HETATM   17  C   UNL     1      -7.713   3.703 -31.415  1.00  0.00     0.128 C 
HETATM   18  O   UNL     1      -5.734   4.388 -29.635  1.00  0.00    -0.266 OA
HETATM   19  H   UNL     1      -8.439   3.953 -34.073  1.00  0.00     0.129 HD
HETATM   20  H   UNL     1     -10.637  -0.312 -33.822  1.00  0.00     0.169 HD
ENDROOT
BRANCH   1  21
HETATM   21  C   UNL     1      -4.044   4.472 -31.208  1.00  0.00     0.119 A 
HETATM   22  N   UNL     1      -3.047   3.537 -31.137  1.00  0.00    -0.273 N 
HETATM   23  N   UNL     1      -1.857   3.964 -31.594  1.00  0.00    -0.179 NA
HETATM   24  H   UNL     1      -3.132   2.581 -30.805  1.00  0.00     0.189 HD
HETATM   25  C   UNL     1      -2.074   5.247 -31.899  1.00  0.00     0.057 A 
HETATM   26  C   UNL     1      -3.409   5.624 -31.630  1.00  0.00     0.065 A 
BRANCH  25  27
HETATM   27  C   UNL     1      -0.982   6.100 -32.458  1.00  0.00     0.065 C 
BRANCH  27  28
HETATM   28  C   UNL     1       0.013   6.577 -31.382  1.00  0.00    -0.017 C 
HETATM   29  C   UNL     1       0.804   5.411 -30.781  1.00  0.00     0.010 C 
HETATM   30  C   UNL     1      -0.729   7.325 -30.274  1.00  0.00     0.010 C 
ENDBRANCH  27  28
ENDBRANCH  25  27
ENDBRANCH   1  21
TORSDOF 3
ENDMDL
MODEL 7
REMARK VINA RESULT:      -7.7      5.752      8.690
REMARK  3 active torsions:
REMARK  status: ('A' for Active; 'I' for Inactive)
REMARK    1  A    between atoms: C_2  and  C_3 
REMARK    2  A    between atoms: C_3  and  C_4 
REMARK    3  A    between atoms: C_8  and  C_9 
REMARK       I    between atoms: C_9  and  N_10 
ROOT
HETATM    1  C   UNL     1     -10.308   2.828 -34.206  1.00  0.00     0.271 C 
HETATM    2  N   UNL     1      -9.375   1.868 -33.792  1.00  0.00    -0.347 N 
HETATM    3  C   UNL     1      -9.677   0.718 -32.941  1.00  0.00     0.128 C 
HETATM    4  C   UNL     1      -8.894  -0.528 -33.337  1.00  0.00     0.055 C 
HETATM    5  C   UNL     1      -7.389  -0.267 -33.483  1.00  0.00     0.100 C 
HETATM    6  N   UNL     1      -6.815   0.016 -32.139  1.00  0.00    -0.273 NA
HETATM    7  C   UNL     1      -5.421  -0.128 -32.036  1.00  0.00     0.036 A 
HETATM    8  C   UNL     1      -4.710  -1.002 -32.878  1.00  0.00     0.056 A 
HETATM    9  N   UNL     1      -5.388  -1.698 -33.884  1.00  0.00    -0.324 N 
HETATM   10  C   UNL     1      -6.725  -1.514 -34.137  1.00  0.00     0.245 C 
HETATM   11  O   UNL     1      -7.300  -2.250 -34.941  1.00  0.00    -0.271 OA
HETATM   12  C   UNL     1      -4.736   0.483 -30.981  1.00  0.00     0.026 A 
HETATM   13  C   UNL     1      -3.363   0.286 -30.814  1.00  0.00     0.002 A 
HETATM   14  C   UNL     1      -2.664  -0.556 -31.680  1.00  0.00     0.002 A 
HETATM   15  C   UNL     1      -3.341  -1.212 -32.708  1.00  0.00     0.031 A 
HETATM   16  C   UNL     1      -7.168   0.924 -34.433  1.00  0.00     0.055 C 
HETATM   17  C   UNL     1      -7.963   2.155 -34.022  1.00  0.00     0.128 C 
HETATM   18  O   UNL     1     -10.010   3.676 -35.047  1.00  0.00    -0.266 OA
HETATM   19  H   UNL     1      -7.140   0.877 -31.711  1.00  0.00     0.129 HD
HETATM   20  H   UNL     1      -4.930  -2.442 -34.391  1.00  0.00     0.169 HD
ENDROOT
BRANCH   1  21
HETATM   21  C   UNL     1     -11.641   2.813 -33.656  1.00  0.00     0.119 A 
HETATM   22  N   UNL     1     -12.676   2.200 -34.310  1.00  0.00    -0.273 N 
HETATM   23  N   UNL     1     -13.846   2.240 -33.650  1.00  0.00    -0.179 NA
HETATM   24  H   UNL     1     -12.630   1.717 -35.202  1.00  0.00     0.189 HD
HETATM   25  C   UNL     1     -13.576   2.974 -32.566  1.00  0.00     0.057 A 
HETATM   26  C   UNL     1     -12.228   3.396 -32.549  1.00  0.00     0.065 A 
BRANCH  25  27
HETATM   27  C   UNL     1     -14.631   3.256 -31.546  1.00  0.00     0.065 C 
BRANCH  27  28
HETATM   28  C   UNL     1     -15.962   3.714 -32.175  1.00  0.00    -0.017 C 
HETATM   29  C   UNL     1     -16.439   5.046 -31.590  1.00  0.00     0.010 C 
HETATM   30  C   UNL     1     -17.035   2.643 -31.971  1.00  0.00     0.010 C 
ENDBRANCH  27  28
ENDBRANCH  25  27
ENDBRANCH   1  21
TORSDOF 3
ENDMDL
MODEL 8
REMARK VINA RESULT:      -7.7     17.354     19.619
REMARK  3 active torsions:
REMARK  status: ('A' for Active; 'I' for Inactive)
REMARK    1  A    between atoms: C_2  and  C_3 
REMARK    2  A    between atoms: C_3  and  C_4 
REMARK    3  A    between atoms: C_8  and  C_9 
REMARK       I    between atoms: C_9  and  N_10 
ROOT
HETATM    1  C   UNL     1      -3.465 -12.253 -38.616  1.00  0.00     0.271 C 
HETATM    2  N   UNL     1      -2.727 -13.418 -38.362  1.00  0.00    -0.347 N 
HETATM    3  C   UNL     1      -3.231 -14.781 -38.519  1.00  0.00     0.128 C 
HETATM    4  C   UNL     1      -2.175 -15.741 -39.051  1.00  0.00     0.055 C 
HETATM    5  C   UNL     1      -0.857 -15.674 -38.269  1.00  0.00     0.100 C 
HETATM    6  N   UNL     1      -1.077 -16.222 -36.903  1.00  0.00    -0.273 NA
HETATM    7  C   UNL     1       0.085 -16.608 -36.213  1.00  0.00     0.036 A 
HETATM    8  C   UNL     1       1.244 -17.012 -36.899  1.00  0.00     0.056 A 
HETATM    9  N   UNL     1       1.271 -16.971 -38.296  1.00  0.00    -0.324 N 
HETATM   10  C   UNL     1       0.227 -16.483 -39.041  1.00  0.00     0.245 C 
HETATM   11  O   UNL     1       0.247 -16.596 -40.268  1.00  0.00    -0.271 OA
HETATM   12  C   UNL     1       0.052 -16.747 -34.822  1.00  0.00     0.026 A 
HETATM   13  C   UNL     1       1.173 -17.208 -34.126  1.00  0.00     0.002 A 
HETATM   14  C   UNL     1       2.328 -17.571 -34.817  1.00  0.00     0.002 A 
HETATM   15  C   UNL     1       2.361 -17.485 -36.209  1.00  0.00     0.031 A 
HETATM   16  C   UNL     1      -0.379 -14.213 -38.201  1.00  0.00     0.055 C 
HETATM   17  C   UNL     1      -1.451 -13.270 -37.671  1.00  0.00     0.128 C 
HETATM   18  O   UNL     1      -2.924 -11.148 -38.611  1.00  0.00    -0.266 OA
HETATM   19  H   UNL     1      -1.700 -15.671 -36.320  1.00  0.00     0.129 HD
HETATM   20  H   UNL     1       2.028 -17.402 -38.808  1.00  0.00     0.169 HD
ENDROOT
BRANCH   1  21
HETATM   21  C   UNL     1      -4.875 -12.350 -38.903  1.00  0.00     0.119 A 
HETATM   22  N   UNL     1      -5.807 -12.388 -37.900  1.00  0.00    -0.273 N 
HETATM   23  N   UNL     1      -7.079 -12.440 -38.330  1.00  0.00    -0.179 NA
HETATM   24  H   UNL     1      -5.626 -12.357 -36.901  1.00  0.00     0.189 HD
HETATM   25  C   UNL     1      -6.963 -12.518 -39.659  1.00  0.00     0.057 A 
HETATM   26  C   UNL     1      -5.608 -12.515 -40.062  1.00  0.00     0.065 A 
BRANCH  25  27
HETATM   27  C   UNL     1      -8.173 -12.589 -40.534  1.00  0.00     0.065 C 
BRANCH  27  28
HETATM   28  C   UNL     1      -9.490 -12.522 -39.738  1.00  0.00    -0.017 C 
HETATM   29  C   UNL     1     -10.144 -13.900 -39.604  1.00  0.00     0.010 C 
HETATM   30  C   UNL     1     -10.461 -11.549 -40.410  1.00  0.00     0.010 C 
ENDBRANCH  27  28
ENDBRANCH  25  27
ENDBRANCH   1  21
TORSDOF 3
ENDMDL
MODEL 9
REMARK VINA RESULT:      -7.7      2.778      9.007
REMARK  3 active torsions:
REMARK  status: ('A' for Active; 'I' for Inactive)
REMARK    1  A    between atoms: C_2  and  C_3 
REMARK    2  A    between atoms: C_3  and  C_4 
REMARK    3  A    between atoms: C_8  and  C_9 
REMARK       I    between atoms: C_9  and  N_10 
ROOT
HETATM    1  C   UNL     1      -5.178   5.472 -32.127  1.00  0.00     0.271 C 
HETATM    2  N   UNL     1      -5.549   4.120 -32.118  1.00  0.00    -0.347 N 
HETATM    3  C   UNL     1      -5.754   3.315 -30.915  1.00  0.00     0.128 C 
HETATM    4  C   UNL     1      -6.903   2.325 -31.058  1.00  0.00     0.055 C 
HETATM    5  C   UNL     1      -6.810   1.482 -32.336  1.00  0.00     0.100 C 
HETATM    6  N   UNL     1      -5.650   0.557 -32.222  1.00  0.00    -0.273 NA
HETATM    7  C   UNL     1      -5.665  -0.542 -33.098  1.00  0.00     0.036 A 
HETATM    8  C   UNL     1      -6.871  -1.067 -33.594  1.00  0.00     0.056 A 
HETATM    9  N   UNL     1      -8.082  -0.450 -33.264  1.00  0.00    -0.324 N 
HETATM   10  C   UNL     1      -8.145   0.703 -32.522  1.00  0.00     0.245 C 
HETATM   11  O   UNL     1      -9.240   1.127 -32.146  1.00  0.00    -0.271 OA
HETATM   12  C   UNL     1      -4.479  -1.231 -33.367  1.00  0.00     0.026 A 
HETATM   13  C   UNL     1      -4.485  -2.374 -34.171  1.00  0.00     0.002 A 
HETATM   14  C   UNL     1      -5.686  -2.863 -34.685  1.00  0.00     0.002 A 
HETATM   15  C   UNL     1      -6.885  -2.215 -34.387  1.00  0.00     0.031 A 
HETATM   16  C   UNL     1      -6.648   2.414 -33.551  1.00  0.00     0.055 C 
HETATM   17  C   UNL     1      -5.498   3.397 -33.384  1.00  0.00     0.128 C 
HETATM   18  O   UNL     1      -5.178   6.119 -33.174  1.00  0.00    -0.266 OA
HETATM   19  H   UNL     1      -4.743   1.014 -32.200  1.00  0.00     0.129 HD
HETATM   20  H   UNL     1      -8.962  -0.899 -33.477  1.00  0.00     0.169 HD
ENDROOT
BRANCH   1  21
HETATM   21  C   UNL     1      -4.809   6.120 -30.893  1.00  0.00     0.119 A 
HETATM   22  N   UNL     1      -5.744   6.732 -30.102  1.00  0.00    -0.273 N 
HETATM   23  N   UNL     1      -5.249   7.256 -28.967  1.00  0.00    -0.179 NA
HETATM   24  H   UNL     1      -6.742   6.799 -30.280  1.00  0.00     0.189 HD
HETATM   25  C   UNL     1      -3.933   7.044 -29.066  1.00  0.00     0.057 A 
HETATM   26  C   UNL     1      -3.604   6.383 -30.272  1.00  0.00     0.065 A 
BRANCH  25  27
HETATM   27  C   UNL     1      -3.000   7.480 -27.983  1.00  0.00     0.065 C 
BRANCH  27  28
HETATM   28  C   UNL     1      -3.394   6.931 -26.598  1.00  0.00    -0.017 C 
HETATM   29  C   UNL     1      -4.034   8.009 -25.720  1.00  0.00     0.010 C 
HETATM   30  C   UNL     1      -2.166   6.350 -25.895  1.00  0.00     0.010 C 
ENDBRANCH  27  28
ENDBRANCH  25  27
ENDBRANCH   1  21
TORSDOF 3
ENDMDL
MODEL 10
REMARK VINA RESULT:      -7.5      5.856      8.716
REMARK  3 active torsions:
REMARK  status: ('A' for Active; 'I' for Inactive)
REMARK    1  A    between atoms: C_2  and  C_3 
REMARK    2  A    between atoms: C_3  and  C_4 
REMARK    3  A    between atoms: C_8  and  C_9 
REMARK       I    between atoms: C_9  and  N_10 
ROOT
HETATM    1  C   UNL     1      -8.232   2.498 -31.363  1.00  0.00     0.271 C 
HETATM    2  N   UNL     1      -9.076   2.988 -32.369  1.00  0.00    -0.347 N 
HETATM    3  C   UNL     1      -9.231   2.397 -33.696  1.00  0.00     0.128 C 
HETATM    4  C   UNL     1     -10.663   2.471 -34.211  1.00  0.00     0.055 C 
HETATM    5  C   UNL     1     -11.263   3.880 -34.107  1.00  0.00     0.100 C 
HETATM    6  N   UNL     1     -10.567   4.774 -35.071  1.00  0.00    -0.273 NA
HETATM    7  C   UNL     1     -11.248   5.960 -35.394  1.00  0.00     0.036 A 
HETATM    8  C   UNL     1     -12.650   6.043 -35.323  1.00  0.00     0.056 A 
HETATM    9  N   UNL     1     -13.386   4.947 -34.861  1.00  0.00    -0.324 N 
HETATM   10  C   UNL     1     -12.790   3.798 -34.402  1.00  0.00     0.245 C 
HETATM   11  O   UNL     1     -13.484   2.815 -34.137  1.00  0.00    -0.271 OA
HETATM   12  C   UNL     1     -10.546   7.036 -35.946  1.00  0.00     0.026 A 
HETATM   13  C   UNL     1     -11.217   8.194 -36.349  1.00  0.00     0.002 A 
HETATM   14  C   UNL     1     -12.605   8.274 -36.239  1.00  0.00     0.002 A 
HETATM   15  C   UNL     1     -13.326   7.192 -35.736  1.00  0.00     0.031 A 
HETATM   16  C   UNL     1     -11.101   4.398 -32.666  1.00  0.00     0.055 C 
HETATM   17  C   UNL     1      -9.664   4.309 -32.171  1.00  0.00     0.128 C 
HETATM   18  O   UNL     1      -8.274   2.958 -30.222  1.00  0.00    -0.266 OA
HETATM   19  H   UNL     1      -9.588   4.943 -34.863  1.00  0.00     0.129 HD
HETATM   20  H   UNL     1     -14.391   4.928 -34.952  1.00  0.00     0.169 HD
ENDROOT
BRANCH   1  21
HETATM   21  C   UNL     1      -7.313   1.427 -31.662  1.00  0.00     0.119 A 
HETATM   22  N   UNL     1      -7.116   0.391 -30.788  1.00  0.00    -0.273 N 
HETATM   23  N   UNL     1      -6.259  -0.545 -31.227  1.00  0.00    -0.179 NA
HETATM   24  H   UNL     1      -7.564   0.264 -29.885  1.00  0.00     0.189 HD
HETATM   25  C   UNL     1      -5.825  -0.058 -32.393  1.00  0.00     0.057 A 
HETATM   26  C   UNL     1      -6.415   1.192 -32.685  1.00  0.00     0.065 A 
BRANCH  25  27
HETATM   27  C   UNL     1      -4.840  -0.816 -33.225  1.00  0.00     0.065 C 
BRANCH  27  28
HETATM   28  C   UNL     1      -5.426  -2.116 -33.809  1.00  0.00    -0.017 C 
HETATM   29  C   UNL     1      -4.378  -2.910 -34.594  1.00  0.00     0.010 C 
HETATM   30  C   UNL     1      -6.618  -1.795 -34.712  1.00  0.00     0.010 C 
ENDBRANCH  27  28
ENDBRANCH  25  27
ENDBRANCH   1  21
TORSDOF 3
ENDMDL
