MODEL 1
REMARK VINA RESULT:      -8.6      0.000      0.000
REMARK  9 active torsions:
REMARK  status: ('A' for Active; 'I' for Inactive)
REMARK    1  A    between atoms: C_2  and  C_3 
REMARK    2  A    between atoms: C_3  and  C_4 
REMARK    3  A    between atoms: C_4  and  N_5 
REMARK    4  A    between atoms: C_9  and  C_10 
REMARK    5  A    between atoms: C_13  and  C_14 
REMARK    6  A    between atoms: C_14  and  O_15 
REMARK    7  A    between atoms: C_20  and  C_21 
REMARK       I    between atoms: C_21  and  N_22 
REMARK    8  A    between atoms: N_22  and  C_23 
REMARK    9  A    between atoms: C_24  and  O_25 
ROOT
HETATM    1  N   UNL     1      -6.271   2.617 -31.837  1.00  0.00    -0.303 N 
HETATM    2  C   UNL     1      -6.975   2.074 -30.765  1.00  0.00     0.323 C 
HETATM    3  O   UNL     1      -6.953   2.522 -29.621  1.00  0.00    -0.247 OA
HETATM    4  N   UNL     1      -7.694   0.948 -31.012  1.00  0.00    -0.330 N 
HETATM    5  C   UNL     1      -7.982   0.404 -32.315  1.00  0.00     0.160 C 
HETATM    6  C   UNL     1      -7.017   0.935 -33.335  1.00  0.00     0.059 C 
HETATM    7  C   UNL     1      -6.318   2.073 -33.132  1.00  0.00     0.026 C 
HETATM    8  C   UNL     1      -5.603   2.803 -34.247  1.00  0.00     0.069 C 
HETATM    9  H   UNL     1      -8.238   0.628 -30.224  1.00  0.00     0.165 HD
ENDROOT
BRANCH   6  10
HETATM   10  C   UNL     1      -6.960   0.139 -34.595  1.00  0.00     0.256 C 
HETATM   11  N   UNL     1      -6.084  -0.895 -34.749  1.00  0.00    -0.321 N 
HETATM   12  H   UNL     1      -5.986  -1.164 -35.726  1.00  0.00     0.169 HD
HETATM   13  O   UNL     1      -7.701   0.419 -35.536  1.00  0.00    -0.267 OA
BRANCH  11  14
HETATM   14  C   UNL     1      -5.187  -1.548 -33.883  1.00  0.00     0.068 A 
HETATM   15  C   UNL     1      -4.854  -2.875 -34.210  1.00  0.00     0.095 A 
HETATM   16  C   UNL     1      -3.922  -3.588 -33.456  1.00  0.00     0.039 A 
HETATM   17  C   UNL     1      -3.305  -2.973 -32.367  1.00  0.00     0.003 A 
HETATM   18  C   UNL     1      -3.652  -1.668 -32.016  1.00  0.00     0.002 A 
HETATM   19  C   UNL     1      -4.601  -0.960 -32.763  1.00  0.00     0.032 A 
BRANCH  15  20
HETATM   20  O   UNL     1      -5.482  -3.449 -35.291  1.00  0.00    -0.354 OA
HETATM   21  C   UNL     1      -6.340  -4.519 -34.894  1.00  0.00     0.210 C 
ENDBRANCH  15  20
ENDBRANCH  11  14
ENDBRANCH   6  10
BRANCH   5  22
HETATM   22  C   UNL     1      -9.442   0.670 -32.677  1.00  0.00    -0.031 A 
HETATM   23  C   UNL     1      -9.898   1.965 -32.975  1.00  0.00     0.010 A 
HETATM   24  C   UNL     1     -11.206   2.178 -33.420  1.00  0.00     0.018 A 
HETATM   25  C   UNL     1     -12.087   1.101 -33.567  1.00  0.00     0.039 A 
HETATM   26  C   UNL     1     -11.657  -0.187 -33.226  1.00  0.00     0.018 A 
HETATM   27  C   UNL     1     -10.346  -0.398 -32.783  1.00  0.00     0.010 A 
BRANCH  25  28
HETATM   28  C   UNL     1     -13.442   1.372 -34.123  1.00  0.00     0.292 C 
HETATM   29  O   UNL     1     -13.637   1.752 -35.267  1.00  0.00    -0.259 OA
BRANCH  28  30
HETATM   30  O   UNL     1     -14.403   1.105 -33.203  1.00  0.00    -0.323 OA
HETATM   31  C   UNL     1     -14.791   2.237 -32.425  1.00  0.00     0.213 C 
ENDBRANCH  28  30
ENDBRANCH  25  28
ENDBRANCH   5  22
BRANCH   1  32
HETATM   32  C   UNL     1      -5.284   3.649 -31.492  1.00  0.00     0.133 C 
BRANCH  32  33
HETATM   33  C   UNL     1      -3.892   3.109 -31.163  1.00  0.00     0.020 C 
BRANCH  33  34
HETATM   34  C   UNL     1      -2.863   3.699 -32.133  1.00  0.00    -0.003 C 
HETATM   35  C   UNL     1      -1.962   4.718 -31.458  1.00  0.00     0.005 C 
ENDBRANCH  33  34
ENDBRANCH  32  33
ENDBRANCH   1  32
TORSDOF 9
ENDMDL
MODEL 2
REMARK VINA RESULT:      -8.4      2.871      7.485
REMARK  9 active torsions:
REMARK  status: ('A' for Active; 'I' for Inactive)
REMARK    1  A    between atoms: C_2  and  C_3 
REMARK    2  A    between atoms: C_3  and  C_4 
REMARK    3  A    between atoms: C_4  and  N_5 
REMARK    4  A    between atoms: C_9  and  C_10 
REMARK    5  A    between atoms: C_13  and  C_14 
REMARK    6  A    between atoms: C_14  and  O_15 
REMARK    7  A    between atoms: C_20  and  C_21 
REMARK       I    between atoms: C_21  and  N_22 
REMARK    8  A    between atoms: N_22  and  C_23 
REMARK    9  A    between atoms: C_24  and  O_25 
ROOT
HETATM    1  N   UNL     1      -7.006   2.720 -31.492  1.00  0.00    -0.303 N 
HETATM    2  C   UNL     1      -6.987   3.562 -32.601  1.00  0.00     0.323 C 
HETATM    3  O   UNL     1      -7.909   4.308 -32.923  1.00  0.00    -0.247 OA
HETATM    4  N   UNL     1      -5.884   3.509 -33.392  1.00  0.00    -0.330 N 
HETATM    5  C   UNL     1      -4.647   2.845 -33.065  1.00  0.00     0.160 C 
HETATM    6  C   UNL     1      -4.863   1.826 -31.984  1.00  0.00     0.059 C 
HETATM    7  C   UNL     1      -5.931   1.877 -31.158  1.00  0.00     0.026 C 
HETATM    8  C   UNL     1      -6.010   1.083 -29.873  1.00  0.00     0.069 C 
HETATM    9  H   UNL     1      -5.887   4.182 -34.145  1.00  0.00     0.165 HD
ENDROOT
BRANCH   6  10
HETATM   10  C   UNL     1      -3.772   0.816 -31.869  1.00  0.00     0.256 C 
HETATM   11  N   UNL     1      -3.859  -0.405 -32.470  1.00  0.00    -0.321 N 
HETATM   12  H   UNL     1      -3.177  -1.059 -32.096  1.00  0.00     0.169 HD
HETATM   13  O   UNL     1      -2.768   1.067 -31.203  1.00  0.00    -0.267 OA
BRANCH  11  14
HETATM   14  C   UNL     1      -4.778  -0.985 -33.365  1.00  0.00     0.068 A 
HETATM   15  C   UNL     1      -4.629  -2.362 -33.610  1.00  0.00     0.095 A 
HETATM   16  C   UNL     1      -5.530  -3.047 -34.426  1.00  0.00     0.039 A 
HETATM   17  C   UNL     1      -6.596  -2.357 -35.002  1.00  0.00     0.003 A 
HETATM   18  C   UNL     1      -6.733  -0.985 -34.790  1.00  0.00     0.002 A 
HETATM   19  C   UNL     1      -5.819  -0.296 -33.986  1.00  0.00     0.032 A 
BRANCH  15  20
HETATM   20  O   UNL     1      -3.566  -3.009 -33.025  1.00  0.00    -0.354 OA
HETATM   21  C   UNL     1      -3.516  -4.386 -33.401  1.00  0.00     0.210 C 
ENDBRANCH  15  20
ENDBRANCH  11  14
ENDBRANCH   6  10
BRANCH   5  22
HETATM   22  C   UNL     1      -3.581   3.879 -32.709  1.00  0.00    -0.031 A 
HETATM   23  C   UNL     1      -2.540   4.194 -33.599  1.00  0.00     0.010 A 
HETATM   24  C   UNL     1      -1.641   5.226 -33.312  1.00  0.00     0.018 A 
HETATM   25  C   UNL     1      -1.759   5.957 -32.125  1.00  0.00     0.039 A 
HETATM   26  C   UNL     1      -2.763   5.618 -31.209  1.00  0.00     0.018 A 
HETATM   27  C   UNL     1      -3.664   4.587 -31.500  1.00  0.00     0.010 A 
BRANCH  25  28
HETATM   28  C   UNL     1      -0.828   7.098 -31.906  1.00  0.00     0.292 C 
HETATM   29  O   UNL     1      -1.065   8.239 -32.269  1.00  0.00    -0.259 OA
BRANCH  28  30
HETATM   30  O   UNL     1       0.277   6.695 -31.229  1.00  0.00    -0.323 OA
HETATM   31  C   UNL     1       0.325   7.147 -29.876  1.00  0.00     0.213 C 
ENDBRANCH  28  30
ENDBRANCH  25  28
ENDBRANCH   5  22
BRANCH   1  32
HETATM   32  C   UNL     1      -8.305   2.580 -30.822  1.00  0.00     0.133 C 
BRANCH  32  33
HETATM   33  C   UNL     1      -9.400   1.957 -31.688  1.00  0.00     0.020 C 
BRANCH  33  34
HETATM   34  C   UNL     1      -9.118   0.464 -31.889  1.00  0.00    -0.003 C 
HETATM   35  C   UNL     1     -10.097  -0.176 -32.856  1.00  0.00     0.005 C 
ENDBRANCH  33  34
ENDBRANCH  32  33
ENDBRANCH   1  32
TORSDOF 9
ENDMDL
MODEL 3
REMARK VINA RESULT:      -8.4      2.199      6.743
REMARK  9 active torsions:
REMARK  status: ('A' for Active; 'I' for Inactive)
REMARK    1  A    between atoms: C_2  and  C_3 
REMARK    2  A    between atoms: C_3  and  C_4 
REMARK    3  A    between atoms: C_4  and  N_5 
REMARK    4  A    between atoms: C_9  and  C_10 
REMARK    5  A    between atoms: C_13  and  C_14 
REMARK    6  A    between atoms: C_14  and  O_15 
REMARK    7  A    between atoms: C_20  and  C_21 
REMARK       I    between atoms: C_21  and  N_22 
REMARK    8  A    between atoms: N_22  and  C_23 
REMARK    9  A    between atoms: C_24  and  O_25 
ROOT
HETATM    1  N   UNL     1      -4.916   4.013 -32.752  1.00  0.00    -0.303 N 
HETATM    2  C   UNL     1      -5.357   3.939 -34.071  1.00  0.00     0.323 C 
HETATM    3  O   UNL     1      -4.903   4.611 -34.995  1.00  0.00    -0.247 OA
HETATM    4  N   UNL     1      -6.388   3.093 -34.327  1.00  0.00    -0.330 N 
HETATM    5  C   UNL     1      -6.907   2.102 -33.417  1.00  0.00     0.160 C 
HETATM    6  C   UNL     1      -6.510   2.421 -32.005  1.00  0.00     0.059 C 
HETATM    7  C   UNL     1      -5.465   3.230 -31.722  1.00  0.00     0.026 C 
HETATM    8  C   UNL     1      -4.841   3.309 -30.347  1.00  0.00     0.069 C 
HETATM    9  H   UNL     1      -6.631   3.023 -35.305  1.00  0.00     0.165 HD
ENDROOT
BRANCH   6  10
HETATM   10  C   UNL     1      -7.321   1.720 -30.968  1.00  0.00     0.256 C 
HETATM   11  N   UNL     1      -8.505   2.228 -30.520  1.00  0.00    -0.321 N 
HETATM   12  H   UNL     1      -8.801   1.785 -29.653  1.00  0.00     0.169 HD
HETATM   13  O   UNL     1      -6.919   0.665 -30.480  1.00  0.00    -0.267 OA
BRANCH  11  14
HETATM   14  C   UNL     1      -9.304   3.321 -30.907  1.00  0.00     0.068 A 
HETATM   15  C   UNL     1     -10.231   3.084 -31.938  1.00  0.00     0.095 A 
HETATM   16  C   UNL     1     -11.117   4.079 -32.349  1.00  0.00     0.039 A 
HETATM   17  C   UNL     1     -11.088   5.325 -31.724  1.00  0.00     0.003 A 
HETATM   18  C   UNL     1     -10.151   5.579 -30.722  1.00  0.00     0.002 A 
HETATM   19  C   UNL     1      -9.250   4.585 -30.323  1.00  0.00     0.032 A 
BRANCH  15  20
HETATM   20  O   UNL     1     -10.231   1.843 -32.532  1.00  0.00    -0.354 OA
HETATM   21  C   UNL     1     -10.601   1.919 -33.909  1.00  0.00     0.210 C 
ENDBRANCH  15  20
ENDBRANCH  11  14
ENDBRANCH   6  10
BRANCH   5  22
HETATM   22  C   UNL     1      -6.467   0.709 -33.861  1.00  0.00    -0.031 A 
HETATM   23  C   UNL     1      -5.230   0.171 -33.466  1.00  0.00     0.010 A 
HETATM   24  C   UNL     1      -4.891  -1.149 -33.779  1.00  0.00     0.018 A 
HETATM   25  C   UNL     1      -5.778  -1.955 -34.502  1.00  0.00     0.039 A 
HETATM   26  C   UNL     1      -6.992  -1.412 -34.942  1.00  0.00     0.018 A 
HETATM   27  C   UNL     1      -7.331  -0.092 -34.625  1.00  0.00     0.010 A 
BRANCH  25  28
HETATM   28  C   UNL     1      -5.404  -3.377 -34.738  1.00  0.00     0.292 C 
HETATM   29  O   UNL     1      -6.174  -4.208 -35.194  1.00  0.00    -0.259 OA
BRANCH  28  30
HETATM   30  O   UNL     1      -4.105  -3.595 -34.412  1.00  0.00    -0.323 OA
HETATM   31  C   UNL     1      -3.864  -4.866 -33.810  1.00  0.00     0.213 C 
ENDBRANCH  28  30
ENDBRANCH  25  28
ENDBRANCH   5  22
BRANCH   1  32
HETATM   32  C   UNL     1      -4.011   5.129 -32.447  1.00  0.00     0.133 C 
BRANCH  32  33
HETATM   33  C   UNL     1      -2.527   4.764 -32.471  1.00  0.00     0.020 C 
BRANCH  33  34
HETATM   34  C   UNL     1      -1.757   5.777 -33.325  1.00  0.00    -0.003 C 
HETATM   35  C   UNL     1      -1.554   5.287 -34.747  1.00  0.00     0.005 C 
ENDBRANCH  33  34
ENDBRANCH  32  33
ENDBRANCH   1  32
TORSDOF 9
ENDMDL
MODEL 4
REMARK VINA RESULT:      -8.4      1.563      4.944
REMARK  9 active torsions:
REMARK  status: ('A' for Active; 'I' for Inactive)
REMARK    1  A    between atoms: C_2  and  C_3 
REMARK    2  A    between atoms: C_3  and  C_4 
REMARK    3  A    between atoms: C_4  and  N_5 
REMARK    4  A    between atoms: C_9  and  C_10 
REMARK    5  A    between atoms: C_13  and  C_14 
REMARK    6  A    between atoms: C_14  and  O_15 
REMARK    7  A    between atoms: C_20  and  C_21 
REMARK       I    between atoms: C_21  and  N_22 
REMARK    8  A    between atoms: N_22  and  C_23 
REMARK    9  A    between atoms: C_24  and  O_25 
ROOT
HETATM    1  N   UNL     1      -6.365  -0.454 -33.192  1.00  0.00    -0.303 N 
HETATM    2  C   UNL     1      -6.642  -0.288 -34.547  1.00  0.00     0.323 C 
HETATM    3  O   UNL     1      -6.350  -1.101 -35.421  1.00  0.00    -0.247 OA
HETATM    4  N   UNL     1      -7.237   0.877 -34.913  1.00  0.00    -0.330 N 
HETATM    5  C   UNL     1      -7.815   1.844 -34.014  1.00  0.00     0.160 C 
HETATM    6  C   UNL     1      -7.275   1.663 -32.624  1.00  0.00     0.059 C 
HETATM    7  C   UNL     1      -6.713   0.502 -32.222  1.00  0.00     0.026 C 
HETATM    8  C   UNL     1      -6.464   0.175 -30.767  1.00  0.00     0.069 C 
HETATM    9  H   UNL     1      -7.476   0.926 -35.893  1.00  0.00     0.165 HD
ENDROOT
BRANCH   6  10
HETATM   10  C   UNL     1      -7.477   2.840 -31.732  1.00  0.00     0.256 C 
HETATM   11  N   UNL     1      -6.618   3.900 -31.737  1.00  0.00    -0.321 N 
HETATM   12  H   UNL     1      -6.738   4.487 -30.915  1.00  0.00     0.169 HD
HETATM   13  O   UNL     1      -8.428   2.866 -30.951  1.00  0.00    -0.267 OA
BRANCH  11  14
HETATM   14  C   UNL     1      -5.518   4.256 -32.540  1.00  0.00     0.068 A 
HETATM   15  C   UNL     1      -4.268   3.740 -32.152  1.00  0.00     0.095 A 
HETATM   16  C   UNL     1      -3.126   3.976 -32.918  1.00  0.00     0.039 A 
HETATM   17  C   UNL     1      -3.228   4.727 -34.088  1.00  0.00     0.003 A 
HETATM   18  C   UNL     1      -4.457   5.269 -34.464  1.00  0.00     0.002 A 
HETATM   19  C   UNL     1      -5.598   5.047 -33.685  1.00  0.00     0.032 A 
BRANCH  15  20
HETATM   20  O   UNL     1      -4.206   3.004 -30.992  1.00  0.00    -0.354 OA
HETATM   21  C   UNL     1      -3.344   1.874 -31.131  1.00  0.00     0.210 C 
ENDBRANCH  15  20
ENDBRANCH  11  14
ENDBRANCH   6  10
BRANCH   5  22
HETATM   22  C   UNL     1      -9.339   1.766 -34.078  1.00  0.00    -0.031 A 
HETATM   23  C   UNL     1     -10.035   0.641 -33.604  1.00  0.00     0.010 A 
HETATM   24  C   UNL     1     -11.433   0.632 -33.558  1.00  0.00     0.018 A 
HETATM   25  C   UNL     1     -12.162   1.743 -33.994  1.00  0.00     0.039 A 
HETATM   26  C   UNL     1     -11.478   2.850 -34.513  1.00  0.00     0.018 A 
HETATM   27  C   UNL     1     -10.080   2.859 -34.555  1.00  0.00     0.010 A 
BRANCH  25  28
HETATM   28  C   UNL     1     -13.644   1.714 -33.847  1.00  0.00     0.292 C 
HETATM   29  O   UNL     1     -14.394   1.244 -34.689  1.00  0.00    -0.259 OA
BRANCH  28  30
HETATM   30  O   UNL     1     -14.021   2.242 -32.656  1.00  0.00    -0.323 OA
HETATM   31  C   UNL     1     -15.396   2.029 -32.338  1.00  0.00     0.213 C 
ENDBRANCH  28  30
ENDBRANCH  25  28
ENDBRANCH   5  22
BRANCH   1  32
HETATM   32  C   UNL     1      -5.475  -1.573 -32.858  1.00  0.00     0.133 C 
BRANCH  32  33
HETATM   33  C   UNL     1      -3.992  -1.298 -33.104  1.00  0.00     0.020 C 
BRANCH  33  34
HETATM   34  C   UNL     1      -3.166  -1.795 -31.913  1.00  0.00    -0.003 C 
HETATM   35  C   UNL     1      -3.025  -3.307 -31.909  1.00  0.00     0.005 C 
ENDBRANCH  33  34
ENDBRANCH  32  33
ENDBRANCH   1  32
TORSDOF 9
ENDMDL
MODEL 5
REMARK VINA RESULT:      -8.1      1.886      6.816
REMARK  9 active torsions:
REMARK  status: ('A' for Active; 'I' for Inactive)
REMARK    1  A    between atoms: C_2  and  C_3 
REMARK    2  A    between atoms: C_3  and  C_4 
REMARK    3  A    between atoms: C_4  and  N_5 
REMARK    4  A    between atoms: C_9  and  C_10 
REMARK    5  A    between atoms: C_13  and  C_14 
REMARK    6  A    between atoms: C_14  and  O_15 
REMARK    7  A    between atoms: C_20  and  C_21 
REMARK       I    between atoms: C_21  and  N_22 
REMARK    8  A    between atoms: N_22  and  C_23 
REMARK    9  A    between atoms: C_24  and  O_25 
ROOT
HETATM    1  N   UNL     1      -6.192   3.754 -32.487  1.00  0.00    -0.303 N 
HETATM    2  C   UNL     1      -5.962   3.714 -33.861  1.00  0.00     0.323 C 
HETATM    3  O   UNL     1      -5.174   4.445 -34.455  1.00  0.00    -0.247 OA
HETATM    4  N   UNL     1      -6.701   2.829 -34.580  1.00  0.00    -0.330 N 
HETATM    5  C   UNL     1      -7.520   1.777 -34.032  1.00  0.00     0.160 C 
HETATM    6  C   UNL     1      -7.847   2.057 -32.593  1.00  0.00     0.059 C 
HETATM    7  C   UNL     1      -7.106   2.902 -31.844  1.00  0.00     0.026 C 
HETATM    8  C   UNL     1      -7.201   2.955 -30.335  1.00  0.00     0.069 C 
HETATM    9  H   UNL     1      -6.455   2.789 -35.558  1.00  0.00     0.165 HD
ENDROOT
BRANCH   6  10
HETATM   10  C   UNL     1      -9.001   1.274 -32.065  1.00  0.00     0.256 C 
HETATM   11  N   UNL     1     -10.291   1.624 -32.341  1.00  0.00    -0.321 N 
HETATM   12  H   UNL     1     -10.948   1.164 -31.716  1.00  0.00     0.169 HD
HETATM   13  O   UNL     1      -8.805   0.295 -31.346  1.00  0.00    -0.267 OA
BRANCH  11  14
HETATM   14  C   UNL     1     -10.878   2.587 -33.183  1.00  0.00     0.068 A 
HETATM   15  C   UNL     1     -11.900   2.133 -34.037  1.00  0.00     0.095 A 
HETATM   16  C   UNL     1     -12.593   3.019 -34.861  1.00  0.00     0.039 A 
HETATM   17  C   UNL     1     -12.275   4.376 -34.831  1.00  0.00     0.003 A 
HETATM   18  C   UNL     1     -11.242   4.831 -34.011  1.00  0.00     0.002 A 
HETATM   19  C   UNL     1     -10.534   3.938 -33.199  1.00  0.00     0.032 A 
BRANCH  15  20
HETATM   20  O   UNL     1     -12.187   0.788 -34.039  1.00  0.00    -0.354 OA
HETATM   21  C   UNL     1     -13.594   0.550 -33.985  1.00  0.00     0.210 C 
ENDBRANCH  15  20
ENDBRANCH  11  14
ENDBRANCH   6  10
BRANCH   5  22
HETATM   22  C   UNL     1      -6.837   0.427 -34.238  1.00  0.00    -0.031 A 
HETATM   23  C   UNL     1      -5.626   0.113 -33.598  1.00  0.00     0.010 A 
HETATM   24  C   UNL     1      -5.074  -1.168 -33.700  1.00  0.00     0.018 A 
HETATM   25  C   UNL     1      -5.716  -2.157 -34.453  1.00  0.00     0.039 A 
HETATM   26  C   UNL     1      -6.898  -1.839 -35.135  1.00  0.00     0.018 A 
HETATM   27  C   UNL     1      -7.451  -0.558 -35.029  1.00  0.00     0.010 A 
BRANCH  25  28
HETATM   28  C   UNL     1      -5.130  -3.525 -34.462  1.00  0.00     0.292 C 
HETATM   29  O   UNL     1      -5.731  -4.512 -34.858  1.00  0.00    -0.259 OA
BRANCH  28  30
HETATM   30  O   UNL     1      -3.851  -3.506 -34.011  1.00  0.00    -0.323 OA
HETATM   31  C   UNL     1      -3.456  -4.699 -33.335  1.00  0.00     0.213 C 
ENDBRANCH  28  30
ENDBRANCH  25  28
ENDBRANCH   5  22
BRANCH   1  32
HETATM   32  C   UNL     1      -5.605   4.899 -31.779  1.00  0.00     0.133 C 
BRANCH  32  33
HETATM   33  C   UNL     1      -4.264   4.607 -31.106  1.00  0.00     0.020 C 
BRANCH  33  34
HETATM   34  C   UNL     1      -3.141   5.346 -31.844  1.00  0.00    -0.003 C 
HETATM   35  C   UNL     1      -2.165   4.387 -32.502  1.00  0.00     0.005 C 
ENDBRANCH  33  34
ENDBRANCH  32  33
ENDBRANCH   1  32
TORSDOF 9
ENDMDL
MODEL 6
REMARK VINA RESULT:      -8.1      3.214      7.066
REMARK  9 active torsions:
REMARK  status: ('A' for Active; 'I' for Inactive)
REMARK    1  A    between atoms: C_2  and  C_3 
REMARK    2  A    between atoms: C_3  and  C_4 
REMARK    3  A    between atoms: C_4  and  N_5 
REMARK    4  A    between atoms: C_9  and  C_10 
REMARK    5  A    between atoms: C_13  and  C_14 
REMARK    6  A    between atoms: C_14  and  O_15 
REMARK    7  A    between atoms: C_20  and  C_21 
REMARK       I    between atoms: C_21  and  N_22 
REMARK    8  A    between atoms: N_22  and  C_23 
REMARK    9  A    between atoms: C_24  and  O_25 
ROOT
HETATM    1  N   UNL     1      -4.764   3.953 -32.909  1.00  0.00    -0.303 N 
HETATM    2  C   UNL     1      -5.357   3.853 -34.165  1.00  0.00     0.323 C 
HETATM    3  O   UNL     1      -5.020   4.511 -35.147  1.00  0.00    -0.247 OA
HETATM    4  N   UNL     1      -6.404   2.996 -34.282  1.00  0.00    -0.330 N 
HETATM    5  C   UNL     1      -6.804   2.019 -33.301  1.00  0.00     0.160 C 
HETATM    6  C   UNL     1      -6.246   2.366 -31.951  1.00  0.00     0.059 C 
HETATM    7  C   UNL     1      -5.180   3.185 -31.808  1.00  0.00     0.026 C 
HETATM    8  C   UNL     1      -4.399   3.292 -30.517  1.00  0.00     0.069 C 
HETATM    9  H   UNL     1      -6.760   2.909 -35.223  1.00  0.00     0.165 HD
ENDROOT
BRANCH   6  10
HETATM   10  C   UNL     1      -6.923   1.679 -30.814  1.00  0.00     0.256 C 
HETATM   11  N   UNL     1      -8.013   2.219 -30.197  1.00  0.00    -0.321 N 
HETATM   12  H   UNL     1      -8.197   1.776 -29.300  1.00  0.00     0.169 HD
HETATM   13  O   UNL     1      -6.491   0.605 -30.397  1.00  0.00    -0.267 OA
BRANCH  11  14
HETATM   14  C   UNL     1      -8.821   3.342 -30.458  1.00  0.00     0.068 A 
HETATM   15  C   UNL     1      -8.435   4.547 -29.844  1.00  0.00     0.095 A 
HETATM   16  C   UNL     1      -9.127   5.733 -30.091  1.00  0.00     0.039 A 
HETATM   17  C   UNL     1     -10.212   5.724 -30.966  1.00  0.00     0.003 A 
HETATM   18  C   UNL     1     -10.622   4.527 -31.556  1.00  0.00     0.002 A 
HETATM   19  C   UNL     1      -9.938   3.335 -31.292  1.00  0.00     0.032 A 
BRANCH  15  20
HETATM   20  O   UNL     1      -7.359   4.518 -28.986  1.00  0.00    -0.354 OA
HETATM   21  C   UNL     1      -7.263   5.721 -28.222  1.00  0.00     0.210 C 
ENDBRANCH  15  20
ENDBRANCH  11  14
ENDBRANCH   6  10
BRANCH   5  22
HETATM   22  C   UNL     1      -6.409   0.621 -33.770  1.00  0.00    -0.031 A 
HETATM   23  C   UNL     1      -5.140   0.086 -33.490  1.00  0.00     0.010 A 
HETATM   24  C   UNL     1      -4.833  -1.238 -33.820  1.00  0.00     0.018 A 
HETATM   25  C   UNL     1      -5.785  -2.050 -34.445  1.00  0.00     0.039 A 
HETATM   26  C   UNL     1      -7.036  -1.511 -34.773  1.00  0.00     0.018 A 
HETATM   27  C   UNL     1      -7.342  -0.187 -34.439  1.00  0.00     0.010 A 
BRANCH  25  28
HETATM   28  C   UNL     1      -5.436  -3.475 -34.701  1.00  0.00     0.292 C 
HETATM   29  O   UNL     1      -6.250  -4.313 -35.058  1.00  0.00    -0.259 OA
BRANCH  28  30
HETATM   30  O   UNL     1      -4.109  -3.687 -34.517  1.00  0.00    -0.323 OA
HETATM   31  C   UNL     1      -3.811  -4.814 -33.692  1.00  0.00     0.213 C 
ENDBRANCH  28  30
ENDBRANCH  25  28
ENDBRANCH   5  22
BRANCH   1  32
HETATM   32  C   UNL     1      -3.837   5.079 -32.731  1.00  0.00     0.133 C 
BRANCH  32  33
HETATM   33  C   UNL     1      -2.393   4.780 -33.134  1.00  0.00     0.020 C 
BRANCH  33  34
HETATM   34  C   UNL     1      -1.450   5.116 -31.974  1.00  0.00    -0.003 C 
HETATM   35  C   UNL     1      -0.779   6.465 -32.157  1.00  0.00     0.005 C 
ENDBRANCH  33  34
ENDBRANCH  32  33
ENDBRANCH   1  32
TORSDOF 9
ENDMDL
MODEL 7
REMARK VINA RESULT:      -8.0      2.360      7.122
REMARK  9 active torsions:
REMARK  status: ('A' for Active; 'I' for Inactive)
REMARK    1  A    between atoms: C_2  and  C_3 
REMARK    2  A    between atoms: C_3  and  C_4 
REMARK    3  A    between atoms: C_4  and  N_5 
REMARK    4  A    between atoms: C_9  and  C_10 
REMARK    5  A    between atoms: C_13  and  C_14 
REMARK    6  A    between atoms: C_14  and  O_15 
REMARK    7  A    between atoms: C_20  and  C_21 
REMARK       I    between atoms: C_21  and  N_22 
REMARK    8  A    between atoms: N_22  and  C_23 
REMARK    9  A    between atoms: C_24  and  O_25 
ROOT
HETATM    1  N   UNL     1      -6.274   3.596 -32.346  1.00  0.00    -0.303 N 
HETATM    2  C   UNL     1      -5.877   3.467 -33.675  1.00  0.00     0.323 C 
HETATM    3  O   UNL     1      -4.971   4.116 -34.196  1.00  0.00    -0.247 OA
HETATM    4  N   UNL     1      -6.577   2.593 -34.443  1.00  0.00    -0.330 N 
HETATM    5  C   UNL     1      -7.528   1.625 -33.959  1.00  0.00     0.160 C 
HETATM    6  C   UNL     1      -8.014   2.000 -32.589  1.00  0.00     0.059 C 
HETATM    7  C   UNL     1      -7.318   2.837 -31.789  1.00  0.00     0.026 C 
HETATM    8  C   UNL     1      -7.598   2.976 -30.309  1.00  0.00     0.069 C 
HETATM    9  H   UNL     1      -6.214   2.486 -35.379  1.00  0.00     0.165 HD
ENDROOT
BRANCH   6  10
HETATM   10  C   UNL     1      -9.277   1.320 -32.180  1.00  0.00     0.256 C 
HETATM   11  N   UNL     1     -10.501   1.813 -32.524  1.00  0.00    -0.321 N 
HETATM   12  H   UNL     1     -11.245   1.398 -31.968  1.00  0.00     0.169 HD
HETATM   13  O   UNL     1      -9.232   0.295 -31.499  1.00  0.00    -0.267 OA
BRANCH  11  14
HETATM   14  C   UNL     1     -10.926   2.868 -33.354  1.00  0.00     0.068 A 
HETATM   15  C   UNL     1     -11.202   4.092 -32.718  1.00  0.00     0.095 A 
HETATM   16  C   UNL     1     -11.563   5.219 -33.457  1.00  0.00     0.039 A 
HETATM   17  C   UNL     1     -11.644   5.132 -34.845  1.00  0.00     0.003 A 
HETATM   18  C   UNL     1     -11.403   3.914 -35.482  1.00  0.00     0.002 A 
HETATM   19  C   UNL     1     -11.059   2.780 -34.739  1.00  0.00     0.032 A 
BRANCH  15  20
HETATM   20  O   UNL     1     -11.112   4.140 -31.346  1.00  0.00    -0.354 OA
HETATM   21  C   UNL     1     -10.396   5.296 -30.906  1.00  0.00     0.210 C 
ENDBRANCH  15  20
ENDBRANCH  11  14
ENDBRANCH   6  10
BRANCH   5  22
HETATM   22  C   UNL     1      -6.919   0.226 -34.015  1.00  0.00    -0.031 A 
HETATM   23  C   UNL     1      -7.628  -0.860 -34.556  1.00  0.00     0.010 A 
HETATM   24  C   UNL     1      -7.015  -2.108 -34.711  1.00  0.00     0.018 A 
HETATM   25  C   UNL     1      -5.686  -2.297 -34.318  1.00  0.00     0.039 A 
HETATM   26  C   UNL     1      -4.987  -1.234 -33.732  1.00  0.00     0.018 A 
HETATM   27  C   UNL     1      -5.601   0.015 -33.581  1.00  0.00     0.010 A 
BRANCH  25  28
HETATM   28  C   UNL     1      -5.057  -3.621 -34.580  1.00  0.00     0.292 C 
HETATM   29  O   UNL     1      -5.614  -4.523 -35.187  1.00  0.00    -0.259 OA
BRANCH  28  30
HETATM   30  O   UNL     1      -3.794  -3.661 -34.087  1.00  0.00    -0.323 OA
HETATM   31  C   UNL     1      -3.446  -4.906 -33.481  1.00  0.00     0.213 C 
ENDBRANCH  28  30
ENDBRANCH  25  28
ENDBRANCH   5  22
BRANCH   1  32
HETATM   32  C   UNL     1      -5.704   4.738 -31.620  1.00  0.00     0.133 C 
BRANCH  32  33
HETATM   33  C   UNL     1      -4.439   4.416 -30.826  1.00  0.00     0.020 C 
BRANCH  33  34
HETATM   34  C   UNL     1      -3.275   5.274 -31.332  1.00  0.00    -0.003 C 
HETATM   35  C   UNL     1      -2.198   4.437 -32.000  1.00  0.00     0.005 C 
ENDBRANCH  33  34
ENDBRANCH  32  33
ENDBRANCH   1  32
TORSDOF 9
ENDMDL
MODEL 8
REMARK VINA RESULT:      -7.8      3.032      8.497
REMARK  9 active torsions:
REMARK  status: ('A' for Active; 'I' for Inactive)
REMARK    1  A    between atoms: C_2  and  C_3 
REMARK    2  A    between atoms: C_3  and  C_4 
REMARK    3  A    between atoms: C_4  and  N_5 
REMARK    4  A    between atoms: C_9  and  C_10 
REMARK    5  A    between atoms: C_13  and  C_14 
REMARK    6  A    between atoms: C_14  and  O_15 
REMARK    7  A    between atoms: C_20  and  C_21 
REMARK       I    between atoms: C_21  and  N_22 
REMARK    8  A    between atoms: N_22  and  C_23 
REMARK    9  A    between atoms: C_24  and  O_25 
ROOT
HETATM    1  N   UNL     1      -6.093   1.073 -32.136  1.00  0.00    -0.303 N 
HETATM    2  C   UNL     1      -5.767   1.382 -30.818  1.00  0.00     0.323 C 
HETATM    3  O   UNL     1      -5.570   0.548 -29.937  1.00  0.00    -0.247 OA
HETATM    4  N   UNL     1      -5.711   2.699 -30.493  1.00  0.00    -0.330 N 
HETATM    5  C   UNL     1      -5.725   3.797 -31.427  1.00  0.00     0.160 C 
HETATM    6  C   UNL     1      -6.283   3.357 -32.750  1.00  0.00     0.059 C 
HETATM    7  C   UNL     1      -6.316   2.057 -33.115  1.00  0.00     0.026 C 
HETATM    8  C   UNL     1      -6.558   1.613 -34.541  1.00  0.00     0.069 C 
HETATM    9  H   UNL     1      -5.409   2.876 -29.545  1.00  0.00     0.165 HD
ENDROOT
BRANCH   6  10
HETATM   10  C   UNL     1      -6.724   4.478 -33.630  1.00  0.00     0.256 C 
HETATM   11  N   UNL     1      -7.990   4.982 -33.569  1.00  0.00    -0.321 N 
HETATM   12  H   UNL     1      -8.211   5.547 -34.385  1.00  0.00     0.169 HD
HETATM   13  O   UNL     1      -5.945   4.960 -34.452  1.00  0.00    -0.267 OA
BRANCH  11  14
HETATM   14  C   UNL     1      -9.085   4.759 -32.713  1.00  0.00     0.068 A 
HETATM   15  C   UNL     1     -10.091   3.902 -33.193  1.00  0.00     0.095 A 
HETATM   16  C   UNL     1     -11.184   3.561 -32.397  1.00  0.00     0.039 A 
HETATM   17  C   UNL     1     -11.277   4.072 -31.103  1.00  0.00     0.003 A 
HETATM   18  C   UNL     1     -10.300   4.948 -30.629  1.00  0.00     0.002 A 
HETATM   19  C   UNL     1      -9.213   5.303 -31.435  1.00  0.00     0.032 A 
BRANCH  15  20
HETATM   20  O   UNL     1      -9.966   3.417 -34.474  1.00  0.00    -0.354 OA
HETATM   21  C   UNL     1     -11.064   3.816 -35.297  1.00  0.00     0.210 C 
ENDBRANCH  15  20
ENDBRANCH  11  14
ENDBRANCH   6  10
BRANCH   5  22
HETATM   22  C   UNL     1      -4.328   4.402 -31.539  1.00  0.00    -0.031 A 
HETATM   23  C   UNL     1      -3.965   5.545 -30.807  1.00  0.00     0.010 A 
HETATM   24  C   UNL     1      -2.649   6.018 -30.826  1.00  0.00     0.018 A 
HETATM   25  C   UNL     1      -1.673   5.363 -31.584  1.00  0.00     0.039 A 
HETATM   26  C   UNL     1      -2.036   4.252 -32.356  1.00  0.00     0.018 A 
HETATM   27  C   UNL     1      -3.352   3.778 -32.333  1.00  0.00     0.010 A 
BRANCH  25  28
HETATM   28  C   UNL     1      -0.271   5.859 -31.505  1.00  0.00     0.292 C 
HETATM   29  O   UNL     1       0.048   7.016 -31.733  1.00  0.00    -0.259 OA
BRANCH  28  30
HETATM   30  O   UNL     1       0.571   4.867 -31.120  1.00  0.00    -0.323 OA
HETATM   31  C   UNL     1       0.842   4.849 -29.718  1.00  0.00     0.213 C 
ENDBRANCH  28  30
ENDBRANCH  25  28
ENDBRANCH   5  22
BRANCH   1  32
HETATM   32  C   UNL     1      -6.429  -0.333 -32.395  1.00  0.00     0.133 C 
BRANCH  32  33
HETATM   33  C   UNL     1      -5.233  -1.215 -32.750  1.00  0.00     0.020 C 
BRANCH  33  34
HETATM   34  C   UNL     1      -5.515  -1.975 -34.051  1.00  0.00    -0.003 C 
HETATM   35  C   UNL     1      -7.001  -2.058 -34.352  1.00  0.00     0.005 C 
ENDBRANCH  33  34
ENDBRANCH  32  33
ENDBRANCH   1  32
TORSDOF 9
ENDMDL
MODEL 9
REMARK VINA RESULT:      -7.8      2.771      8.287
REMARK  9 active torsions:
REMARK  status: ('A' for Active; 'I' for Inactive)
REMARK    1  A    between atoms: C_2  and  C_3 
REMARK    2  A    between atoms: C_3  and  C_4 
REMARK    3  A    between atoms: C_4  and  N_5 
REMARK    4  A    between atoms: C_9  and  C_10 
REMARK    5  A    between atoms: C_13  and  C_14 
REMARK    6  A    between atoms: C_14  and  O_15 
REMARK    7  A    between atoms: C_20  and  C_21 
REMARK       I    between atoms: C_21  and  N_22 
REMARK    8  A    between atoms: N_22  and  C_23 
REMARK    9  A    between atoms: C_24  and  O_25 
ROOT
HETATM    1  N   UNL     1      -6.710   0.407 -32.731  1.00  0.00    -0.303 N 
HETATM    2  C   UNL     1      -6.538   0.549 -31.356  1.00  0.00     0.323 C 
HETATM    3  O   UNL     1      -6.418  -0.388 -30.570  1.00  0.00    -0.247 OA
HETATM    4  N   UNL     1      -6.549   1.815 -30.864  1.00  0.00    -0.330 N 
HETATM    5  C   UNL     1      -6.487   3.022 -31.650  1.00  0.00     0.160 C 
HETATM    6  C   UNL     1      -6.886   2.750 -33.071  1.00  0.00     0.059 C 
HETATM    7  C   UNL     1      -6.847   1.506 -33.597  1.00  0.00     0.026 C 
HETATM    8  C   UNL     1      -6.920   1.245 -35.085  1.00  0.00     0.069 C 
HETATM    9  H   UNL     1      -6.357   1.873 -29.874  1.00  0.00     0.165 HD
ENDROOT
BRANCH   6  10
HETATM   10  C   UNL     1      -7.254   3.968 -33.848  1.00  0.00     0.256 C 
HETATM   11  N   UNL     1      -8.554   4.281 -34.117  1.00  0.00    -0.321 N 
HETATM   12  H   UNL     1      -8.629   4.977 -34.854  1.00  0.00     0.169 HD
HETATM   13  O   UNL     1      -6.374   4.713 -34.280  1.00  0.00    -0.267 OA
BRANCH  11  14
HETATM   14  C   UNL     1      -9.788   3.740 -33.710  1.00  0.00     0.068 A 
HETATM   15  C   UNL     1     -10.408   4.354 -32.606  1.00  0.00     0.095 A 
HETATM   16  C   UNL     1     -11.665   3.940 -32.167  1.00  0.00     0.039 A 
HETATM   17  C   UNL     1     -12.320   2.908 -32.837  1.00  0.00     0.003 A 
HETATM   18  C   UNL     1     -11.700   2.272 -33.913  1.00  0.00     0.002 A 
HETATM   19  C   UNL     1     -10.431   2.677 -34.341  1.00  0.00     0.032 A 
BRANCH  15  20
HETATM   20  O   UNL     1      -9.731   5.370 -31.971  1.00  0.00    -0.354 OA
HETATM   21  C   UNL     1      -9.452   5.043 -30.609  1.00  0.00     0.210 C 
ENDBRANCH  15  20
ENDBRANCH  11  14
ENDBRANCH   6  10
BRANCH   5  22
HETATM   22  C   UNL     1      -5.100   3.650 -31.527  1.00  0.00    -0.031 A 
HETATM   23  C   UNL     1      -3.968   3.042 -32.097  1.00  0.00     0.010 A 
HETATM   24  C   UNL     1      -2.727   3.686 -32.081  1.00  0.00     0.018 A 
HETATM   25  C   UNL     1      -2.590   4.945 -31.487  1.00  0.00     0.039 A 
HETATM   26  C   UNL     1      -3.702   5.537 -30.874  1.00  0.00     0.018 A 
HETATM   27  C   UNL     1      -4.944   4.893 -30.893  1.00  0.00     0.010 A 
BRANCH  25  28
HETATM   28  C   UNL     1      -1.267   5.622 -31.570  1.00  0.00     0.292 C 
HETATM   29  O   UNL     1      -0.538   5.795 -30.605  1.00  0.00    -0.259 OA
BRANCH  28  30
HETATM   30  O   UNL     1      -0.985   5.976 -32.849  1.00  0.00    -0.323 OA
HETATM   31  C   UNL     1      -1.375   7.308 -33.182  1.00  0.00     0.213 C 
ENDBRANCH  28  30
ENDBRANCH  25  28
ENDBRANCH   5  22
BRANCH   1  32
HETATM   32  C   UNL     1      -6.981  -0.957 -33.200  1.00  0.00     0.133 C 
BRANCH  32  33
HETATM   33  C   UNL     1      -5.740  -1.739 -33.628  1.00  0.00     0.020 C 
BRANCH  33  34
HETATM   34  C   UNL     1      -5.997  -2.429 -34.972  1.00  0.00    -0.003 C 
HETATM   35  C   UNL     1      -6.724  -3.751 -34.804  1.00  0.00     0.005 C 
ENDBRANCH  33  34
ENDBRANCH  32  33
ENDBRANCH   1  32
TORSDOF 9
ENDMDL
MODEL 10
REMARK VINA RESULT:      -7.6      2.450      7.273
REMARK  9 active torsions:
REMARK  status: ('A' for Active; 'I' for Inactive)
REMARK    1  A    between atoms: C_2  and  C_3 
REMARK    2  A    between atoms: C_3  and  C_4 
REMARK    3  A    between atoms: C_4  and  N_5 
REMARK    4  A    between atoms: C_9  and  C_10 
REMARK    5  A    between atoms: C_13  and  C_14 
REMARK    6  A    between atoms: C_14  and  O_15 
REMARK    7  A    between atoms: C_20  and  C_21 
REMARK       I    between atoms: C_21  and  N_22 
REMARK    8  A    between atoms: N_22  and  C_23 
REMARK    9  A    between atoms: C_24  and  O_25 
ROOT
HETATM    1  N   UNL     1      -6.823   4.187 -32.495  1.00  0.00    -0.303 N 
HETATM    2  C   UNL     1      -6.213   3.917 -33.718  1.00  0.00     0.323 C 
HETATM    3  O   UNL     1      -5.387   4.649 -34.259  1.00  0.00    -0.247 OA
HETATM    4  N   UNL     1      -6.601   2.785 -34.360  1.00  0.00    -0.330 N 
HETATM    5  C   UNL     1      -7.402   1.730 -33.793  1.00  0.00     0.160 C 
HETATM    6  C   UNL     1      -8.154   2.224 -32.591  1.00  0.00     0.059 C 
HETATM    7  C   UNL     1      -7.767   3.325 -31.910  1.00  0.00     0.026 C 
HETATM    8  C   UNL     1      -8.290   3.659 -30.531  1.00  0.00     0.069 C 
HETATM    9  H   UNL     1      -6.086   2.598 -35.209  1.00  0.00     0.165 HD
ENDROOT
BRANCH   6  10
HETATM   10  C   UNL     1      -9.302   1.361 -32.191  1.00  0.00     0.256 C 
HETATM   11  N   UNL     1     -10.566   1.590 -32.652  1.00  0.00    -0.321 N 
HETATM   12  H   UNL     1     -11.263   1.094 -32.102  1.00  0.00     0.169 HD
HETATM   13  O   UNL     1      -9.128   0.425 -31.411  1.00  0.00    -0.267 OA
BRANCH  11  14
HETATM   14  C   UNL     1     -11.108   2.472 -33.605  1.00  0.00     0.068 A 
HETATM   15  C   UNL     1     -12.125   1.956 -34.428  1.00  0.00     0.095 A 
HETATM   16  C   UNL     1     -12.777   2.767 -35.358  1.00  0.00     0.039 A 
HETATM   17  C   UNL     1     -12.420   4.110 -35.467  1.00  0.00     0.003 A 
HETATM   18  C   UNL     1     -11.391   4.623 -34.676  1.00  0.00     0.002 A 
HETATM   19  C   UNL     1     -10.725   3.804 -33.757  1.00  0.00     0.032 A 
BRANCH  15  20
HETATM   20  O   UNL     1     -12.451   0.626 -34.293  1.00  0.00    -0.354 OA
HETATM   21  C   UNL     1     -13.793   0.458 -33.834  1.00  0.00     0.210 C 
ENDBRANCH  15  20
ENDBRANCH  11  14
ENDBRANCH   6  10
BRANCH   5  22
HETATM   22  C   UNL     1      -6.524   0.517 -33.492  1.00  0.00    -0.031 A 
HETATM   23  C   UNL     1      -6.591  -0.647 -34.276  1.00  0.00     0.010 A 
HETATM   24  C   UNL     1      -5.699  -1.704 -34.065  1.00  0.00     0.018 A 
HETATM   25  C   UNL     1      -4.731  -1.622 -33.059  1.00  0.00     0.039 A 
HETATM   26  C   UNL     1      -4.689  -0.486 -32.240  1.00  0.00     0.018 A 
HETATM   27  C   UNL     1      -5.580   0.571 -32.455  1.00  0.00     0.010 A 
BRANCH  25  28
HETATM   28  C   UNL     1      -3.755  -2.738 -32.929  1.00  0.00     0.292 C 
HETATM   29  O   UNL     1      -2.980  -2.850 -31.991  1.00  0.00    -0.259 OA
BRANCH  28  30
HETATM   30  O   UNL     1      -3.876  -3.608 -33.963  1.00  0.00    -0.323 OA
HETATM   31  C   UNL     1      -3.691  -4.975 -33.596  1.00  0.00     0.213 C 
ENDBRANCH  28  30
ENDBRANCH  25  28
ENDBRANCH   5  22
BRANCH   1  32
HETATM   32  C   UNL     1      -6.609   5.539 -31.963  1.00  0.00     0.133 C 
BRANCH  32  33
HETATM   33  C   UNL     1      -7.590   6.588 -32.484  1.00  0.00     0.020 C 
BRANCH  33  34
HETATM   34  C   UNL     1      -7.586   7.809 -31.559  1.00  0.00    -0.003 C 
HETATM   35  C   UNL     1      -6.180   8.211 -31.150  1.00  0.00     0.005 C 
ENDBRANCH  33  34
ENDBRANCH  32  33
ENDBRANCH   1  32
TORSDOF 9
ENDMDL
