MODEL 1
REMARK VINA RESULT:      -8.3      0.000      0.000
REMARK  9 active torsions:
REMARK  status: ('A' for Active; 'I' for Inactive)
REMARK    1  A    between atoms: C_3  and  C_4 
REMARK    2  A    between atoms: C_4  and  O_5 
REMARK    3  A    between atoms: C_8  and  N_9 
REMARK       I    between atoms: N_9  and  C_10 
REMARK    4  A    between atoms: C_10  and  C_11 
REMARK    5  A    between atoms: C_11  and  N_12 
REMARK    6  A    between atoms: C_14  and  C_15 
REMARK    7  A    between atoms: C_16  and  O_17 
REMARK    8  A    between atoms: C_21  and  O_22 
REMARK    9  A    between atoms: C_26  and  O_27 
ROOT
HETATM    1  N   UNL     1      -6.618   2.658 -30.913  1.00  0.00    -0.054 N 
HETATM    2  H   UNL     1      -5.973   3.395 -30.600  1.00  0.00     0.281 HD
HETATM    3  C   UNL     1      -6.558   2.816 -32.441  1.00  0.00     0.231 C 
HETATM    4  C   UNL     1      -6.891   1.477 -33.163  1.00  0.00     0.055 C 
HETATM    5  C   UNL     1      -6.331   0.180 -32.546  1.00  0.00     0.065 C 
HETATM    6  C   UNL     1      -6.578   0.159 -31.040  1.00  0.00     0.066 C 
HETATM    7  C   UNL     1      -6.012   1.400 -30.374  1.00  0.00     0.239 C 
HETATM    8  C   UNL     1      -6.653   1.519 -34.682  1.00  0.00     0.010 C 
HETATM    9  C   UNL     1      -7.288   0.305 -35.361  1.00  0.00     0.001 C 
HETATM   10  C   UNL     1      -6.826  -1.014 -34.748  1.00  0.00     0.003 C 
HETATM   11  C   UNL     1      -6.990  -1.040 -33.225  1.00  0.00     0.038 C 
ENDROOT
BRANCH   1  12
HETATM   12  C   UNL     1      -7.930   3.117 -30.262  1.00  0.00     0.338 C 
BRANCH  12  13
HETATM   13  C   UNL     1      -9.220   2.656 -30.930  1.00  0.00     0.248 C 
HETATM   14  N   UNL     1     -10.074   3.688 -31.289  1.00  0.00    -0.319 N 
HETATM   15  H   UNL     1     -10.108   4.528 -30.724  1.00  0.00     0.169 HD
HETATM   16  O   UNL     1      -9.475   1.457 -31.037  1.00  0.00    -0.271 OA
BRANCH  14  17
HETATM   17  C   UNL     1     -11.233   3.404 -31.983  1.00  0.00     0.094 C 
HETATM   18  C   UNL     1     -11.482   2.755 -33.177  1.00  0.00     0.080 C 
HETATM   19  C   UNL     1     -12.925   2.591 -33.352  1.00  0.00    -0.030 C 
HETATM   20  C   UNL     1     -13.575   1.876 -34.501  1.00  0.00     0.050 C 
HETATM   21  C   UNL     1     -13.639   3.212 -32.332  1.00  0.00    -0.012 C 
HETATM   22  S   UNL     1     -12.616   4.015 -31.227  1.00  0.00    -0.076 SA
HETATM   23  C   UNL     1     -15.122   3.277 -32.140  1.00  0.00     0.057 C 
BRANCH  18  24
HETATM   24  C   UNL     1     -10.407   2.389 -34.117  1.00  0.00     0.296 C 
HETATM   25  O   UNL     1     -10.149   1.229 -34.425  1.00  0.00    -0.259 OA
BRANCH  24  26
HETATM   26  O   UNL     1      -9.679   3.460 -34.542  1.00  0.00    -0.322 OA
HETATM   27  C   UNL     1     -10.398   4.417 -35.324  1.00  0.00     0.213 C 
ENDBRANCH  24  26
ENDBRANCH  18  24
ENDBRANCH  14  17
ENDBRANCH  12  13
ENDBRANCH   1  12
BRANCH   3  28
HETATM   28  C   UNL     1      -5.334   3.649 -32.829  1.00  0.00     0.009 A 
HETATM   29  C   UNL     1      -5.492   4.757 -33.697  1.00  0.00     0.076 A 
HETATM   30  C   UNL     1      -4.398   5.566 -34.020  1.00  0.00     0.040 A 
HETATM   31  C   UNL     1      -3.140   5.291 -33.489  1.00  0.00     0.039 A 
HETATM   32  C   UNL     1      -2.960   4.210 -32.634  1.00  0.00     0.069 A 
HETATM   33  C   UNL     1      -4.055   3.413 -32.295  1.00  0.00     0.048 A 
BRANCH  29  34
HETATM   34  O   UNL     1      -6.769   5.013 -34.129  1.00  0.00    -0.355 OA
HETATM   35  C   UNL     1      -7.572   5.843 -33.290  1.00  0.00     0.210 C 
ENDBRANCH  29  34
BRANCH  32  36
HETATM   36  O   UNL     1      -1.688   4.056 -32.159  1.00  0.00    -0.356 OA
HETATM   37  C   UNL     1      -0.847   5.203 -32.199  1.00  0.00     0.210 C 
ENDBRANCH  32  36
ENDBRANCH   3  28
BRANCH   5  38
HETATM   38  O   UNL     1      -4.919   0.103 -32.722  1.00  0.00    -0.389 OA
HETATM   39  H   UNL     1      -4.609  -0.804 -32.536  1.00  0.00     0.210 HD
ENDBRANCH   5  38
TORSDOF 9
ENDMDL
MODEL 2
REMARK VINA RESULT:      -7.9      3.129      7.535
REMARK  9 active torsions:
REMARK  status: ('A' for Active; 'I' for Inactive)
REMARK    1  A    between atoms: C_3  and  C_4 
REMARK    2  A    between atoms: C_4  and  O_5 
REMARK    3  A    between atoms: C_8  and  N_9 
REMARK       I    between atoms: N_9  and  C_10 
REMARK    4  A    between atoms: C_10  and  C_11 
REMARK    5  A    between atoms: C_11  and  N_12 
REMARK    6  A    between atoms: C_14  and  C_15 
REMARK    7  A    between atoms: C_16  and  O_17 
REMARK    8  A    between atoms: C_21  and  O_22 
REMARK    9  A    between atoms: C_26  and  O_27 
ROOT
HETATM    1  N   UNL     1     -10.476   3.197 -32.933  1.00  0.00    -0.054 N 
HETATM    2  H   UNL     1     -10.027   4.107 -33.100  1.00  0.00     0.281 HD
HETATM    3  C   UNL     1     -11.924   3.613 -32.628  1.00  0.00     0.231 C 
HETATM    4  C   UNL     1     -12.927   2.476 -32.980  1.00  0.00     0.055 C 
HETATM    5  C   UNL     1     -12.661   1.668 -34.265  1.00  0.00     0.065 C 
HETATM    6  C   UNL     1     -11.194   1.255 -34.338  1.00  0.00     0.066 C 
HETATM    7  C   UNL     1     -10.279   2.460 -34.221  1.00  0.00     0.239 C 
HETATM    8  C   UNL     1     -14.402   2.902 -32.885  1.00  0.00     0.010 C 
HETATM    9  C   UNL     1     -15.321   1.680 -32.929  1.00  0.00     0.001 C 
HETATM   10  C   UNL     1     -15.060   0.798 -34.147  1.00  0.00     0.003 C 
HETATM   11  C   UNL     1     -13.580   0.427 -34.293  1.00  0.00     0.038 C 
ENDROOT
BRANCH   1  12
HETATM   12  C   UNL     1      -9.676   2.688 -31.726  1.00  0.00     0.338 C 
BRANCH  12  13
HETATM   13  C   UNL     1      -8.260   2.196 -32.007  1.00  0.00     0.248 C 
HETATM   14  N   UNL     1      -8.003   0.913 -31.546  1.00  0.00    -0.319 N 
HETATM   15  H   UNL     1      -8.461   0.583 -30.706  1.00  0.00     0.169 HD
HETATM   16  O   UNL     1      -7.429   2.944 -32.519  1.00  0.00    -0.271 OA
BRANCH  14  17
HETATM   17  C   UNL     1      -6.786   0.323 -31.819  1.00  0.00     0.094 C 
HETATM   18  C   UNL     1      -6.346  -0.507 -32.833  1.00  0.00     0.080 C 
HETATM   19  C   UNL     1      -4.901  -0.696 -32.716  1.00  0.00    -0.030 C 
HETATM   20  C   UNL     1      -4.058  -1.485 -33.676  1.00  0.00     0.050 C 
HETATM   21  C   UNL     1      -4.393  -0.079 -31.577  1.00  0.00    -0.012 C 
HETATM   22  S   UNL     1      -5.617   0.659 -30.645  1.00  0.00    -0.076 SA
HETATM   23  C   UNL     1      -2.976  -0.034 -31.096  1.00  0.00     0.057 C 
BRANCH  18  24
HETATM   24  C   UNL     1      -7.268  -1.133 -33.797  1.00  0.00     0.296 C 
HETATM   25  O   UNL     1      -7.342  -2.347 -33.966  1.00  0.00    -0.259 OA
BRANCH  24  26
HETATM   26  O   UNL     1      -7.966  -0.226 -34.538  1.00  0.00    -0.322 OA
HETATM   27  C   UNL     1      -7.180   0.585 -35.413  1.00  0.00     0.213 C 
ENDBRANCH  24  26
ENDBRANCH  18  24
ENDBRANCH  14  17
ENDBRANCH  12  13
ENDBRANCH   1  12
BRANCH   3  28
HETATM   28  C   UNL     1     -12.158   5.054 -33.089  1.00  0.00     0.009 A 
HETATM   29  C   UNL     1     -12.545   6.034 -32.142  1.00  0.00     0.076 A 
HETATM   30  C   UNL     1     -12.709   7.368 -32.529  1.00  0.00     0.040 A 
HETATM   31  C   UNL     1     -12.492   7.746 -33.852  1.00  0.00     0.039 A 
HETATM   32  C   UNL     1     -12.110   6.804 -34.799  1.00  0.00     0.069 A 
HETATM   33  C   UNL     1     -11.927   5.475 -34.410  1.00  0.00     0.048 A 
BRANCH  29  34
HETATM   34  O   UNL     1     -12.676   5.607 -30.845  1.00  0.00    -0.355 OA
HETATM   35  C   UNL     1     -13.987   5.669 -30.282  1.00  0.00     0.210 C 
ENDBRANCH  29  34
BRANCH  32  36
HETATM   36  O   UNL     1     -11.903   7.300 -36.055  1.00  0.00    -0.356 OA
HETATM   37  C   UNL     1     -12.996   7.979 -36.663  1.00  0.00     0.210 C 
ENDBRANCH  32  36
ENDBRANCH   3  28
BRANCH   5  38
HETATM   38  O   UNL     1     -12.914   2.458 -35.423  1.00  0.00    -0.389 OA
HETATM   39  H   UNL     1     -13.464   3.230 -35.186  1.00  0.00     0.210 HD
ENDBRANCH   5  38
TORSDOF 9
ENDMDL
MODEL 3
REMARK VINA RESULT:      -7.9      3.579      6.437
REMARK  9 active torsions:
REMARK  status: ('A' for Active; 'I' for Inactive)
REMARK    1  A    between atoms: C_3  and  C_4 
REMARK    2  A    between atoms: C_4  and  O_5 
REMARK    3  A    between atoms: C_8  and  N_9 
REMARK       I    between atoms: N_9  and  C_10 
REMARK    4  A    between atoms: C_10  and  C_11 
REMARK    5  A    between atoms: C_11  and  N_12 
REMARK    6  A    between atoms: C_14  and  C_15 
REMARK    7  A    between atoms: C_16  and  O_17 
REMARK    8  A    between atoms: C_21  and  O_22 
REMARK    9  A    between atoms: C_26  and  O_27 
ROOT
HETATM    1  N   UNL     1      -5.112   4.211 -31.187  1.00  0.00    -0.054 N 
HETATM    2  H   UNL     1      -5.660   4.172 -30.318  1.00  0.00     0.281 HD
HETATM    3  C   UNL     1      -4.804   5.712 -31.297  1.00  0.00     0.231 C 
HETATM    4  C   UNL     1      -3.495   5.965 -32.102  1.00  0.00     0.055 C 
HETATM    5  C   UNL     1      -2.317   5.000 -31.863  1.00  0.00     0.065 C 
HETATM    6  C   UNL     1      -2.803   3.553 -31.894  1.00  0.00     0.066 C 
HETATM    7  C   UNL     1      -3.932   3.333 -30.905  1.00  0.00     0.239 C 
HETATM    8  C   UNL     1      -3.028   7.430 -32.075  1.00  0.00     0.010 C 
HETATM    9  C   UNL     1      -1.940   7.669 -33.125  1.00  0.00     0.001 C 
HETATM   10  C   UNL     1      -0.773   6.696 -32.986  1.00  0.00     0.003 C 
HETATM   11  C   UNL     1      -1.233   5.235 -32.937  1.00  0.00     0.038 C 
ENDROOT
BRANCH   1  12
HETATM   12  C   UNL     1      -6.130   3.678 -32.205  1.00  0.00     0.338 C 
BRANCH  12  13
HETATM   13  C   UNL     1      -6.280   2.163 -32.288  1.00  0.00     0.248 C 
HETATM   14  N   UNL     1      -5.734   1.601 -33.433  1.00  0.00    -0.319 N 
HETATM   15  H   UNL     1      -5.739   2.125 -34.298  1.00  0.00     0.169 HD
HETATM   16  O   UNL     1      -6.919   1.551 -31.434  1.00  0.00    -0.271 OA
BRANCH  14  17
HETATM   17  C   UNL     1      -5.727   0.229 -33.580  1.00  0.00     0.094 C 
HETATM   18  C   UNL     1      -6.644  -0.670 -34.093  1.00  0.00     0.080 C 
HETATM   19  C   UNL     1      -6.040  -2.001 -34.156  1.00  0.00    -0.030 C 
HETATM   20  C   UNL     1      -6.711  -3.222 -34.715  1.00  0.00     0.050 C 
HETATM   21  C   UNL     1      -4.765  -2.012 -33.599  1.00  0.00    -0.012 C 
HETATM   22  S   UNL     1      -4.324  -0.489 -32.969  1.00  0.00    -0.076 SA
HETATM   23  C   UNL     1      -3.817  -3.164 -33.469  1.00  0.00     0.057 C 
BRANCH  18  24
HETATM   24  C   UNL     1      -8.027  -0.285 -34.424  1.00  0.00     0.296 C 
HETATM   25  O   UNL     1      -8.374   0.079 -35.545  1.00  0.00    -0.259 OA
BRANCH  24  26
HETATM   26  O   UNL     1      -8.860  -0.293 -33.345  1.00  0.00    -0.322 OA
HETATM   27  C   UNL     1      -9.830   0.755 -33.313  1.00  0.00     0.213 C 
ENDBRANCH  24  26
ENDBRANCH  18  24
ENDBRANCH  14  17
ENDBRANCH  12  13
ENDBRANCH   1  12
BRANCH   3  28
HETATM   28  C   UNL     1      -5.056   6.394 -29.949  1.00  0.00     0.009 A 
HETATM   29  C   UNL     1      -6.386   6.653 -29.538  1.00  0.00     0.076 A 
HETATM   30  C   UNL     1      -6.644   7.222 -28.287  1.00  0.00     0.040 A 
HETATM   31  C   UNL     1      -5.592   7.539 -27.431  1.00  0.00     0.039 A 
HETATM   32  C   UNL     1      -4.278   7.293 -27.811  1.00  0.00     0.069 A 
HETATM   33  C   UNL     1      -4.020   6.707 -29.052  1.00  0.00     0.048 A 
BRANCH  29  34
HETATM   34  O   UNL     1      -7.377   6.254 -30.400  1.00  0.00    -0.355 OA
HETATM   35  C   UNL     1      -8.490   5.572 -29.820  1.00  0.00     0.210 C 
ENDBRANCH  29  34
BRANCH  32  36
HETATM   36  O   UNL     1      -3.336   7.624 -26.878  1.00  0.00    -0.356 OA
HETATM   37  C   UNL     1      -3.814   7.993 -25.589  1.00  0.00     0.210 C 
ENDBRANCH  32  36
ENDBRANCH   3  28
BRANCH   5  38
HETATM   38  O   UNL     1      -1.746   5.204 -30.575  1.00  0.00    -0.389 OA
HETATM   39  H   UNL     1      -0.820   5.499 -30.663  1.00  0.00     0.210 HD
ENDBRANCH   5  38
TORSDOF 9
ENDMDL
MODEL 4
REMARK VINA RESULT:      -7.9      2.102      5.094
REMARK  9 active torsions:
REMARK  status: ('A' for Active; 'I' for Inactive)
REMARK    1  A    between atoms: C_3  and  C_4 
REMARK    2  A    between atoms: C_4  and  O_5 
REMARK    3  A    between atoms: C_8  and  N_9 
REMARK       I    between atoms: N_9  and  C_10 
REMARK    4  A    between atoms: C_10  and  C_11 
REMARK    5  A    between atoms: C_11  and  N_12 
REMARK    6  A    between atoms: C_14  and  C_15 
REMARK    7  A    between atoms: C_16  and  O_17 
REMARK    8  A    between atoms: C_21  and  O_22 
REMARK    9  A    between atoms: C_26  and  O_27 
ROOT
HETATM    1  N   UNL     1      -5.298   4.770 -33.269  1.00  0.00    -0.054 N 
HETATM    2  H   UNL     1      -5.770   3.857 -33.304  1.00  0.00     0.281 HD
HETATM    3  C   UNL     1      -4.470   4.645 -31.980  1.00  0.00     0.231 C 
HETATM    4  C   UNL     1      -3.210   5.559 -32.025  1.00  0.00     0.055 C 
HETATM    5  C   UNL     1      -2.454   5.660 -33.365  1.00  0.00     0.065 C 
HETATM    6  C   UNL     1      -3.435   5.888 -34.511  1.00  0.00     0.066 C 
HETATM    7  C   UNL     1      -4.506   4.813 -34.538  1.00  0.00     0.239 C 
HETATM    8  C   UNL     1      -2.239   5.329 -30.854  1.00  0.00     0.010 C 
HETATM    9  C   UNL     1      -1.204   6.454 -30.783  1.00  0.00     0.001 C 
HETATM   10  C   UNL     1      -0.466   6.652 -32.104  1.00  0.00     0.003 C 
HETATM   11  C   UNL     1      -1.424   6.808 -33.290  1.00  0.00     0.038 C 
ENDROOT
BRANCH   1  12
HETATM   12  C   UNL     1      -6.499   5.721 -33.182  1.00  0.00     0.338 C 
BRANCH  12  13
HETATM   13  C   UNL     1      -7.880   5.075 -33.171  1.00  0.00     0.248 C 
HETATM   14  N   UNL     1      -8.084   4.153 -34.186  1.00  0.00    -0.319 N 
HETATM   15  H   UNL     1      -7.632   4.288 -35.082  1.00  0.00     0.169 HD
HETATM   16  O   UNL     1      -8.734   5.442 -32.365  1.00  0.00    -0.271 OA
BRANCH  14  17
HETATM   17  C   UNL     1      -9.261   3.435 -34.228  1.00  0.00     0.094 C 
HETATM   18  C   UNL     1      -9.602   2.157 -33.827  1.00  0.00     0.080 C 
HETATM   19  C   UNL     1     -11.048   1.974 -33.957  1.00  0.00    -0.030 C 
HETATM   20  C   UNL     1     -11.796   0.734 -33.559  1.00  0.00     0.050 C 
HETATM   21  C   UNL     1     -11.656   3.085 -34.532  1.00  0.00    -0.012 C 
HETATM   22  S   UNL     1     -10.525   4.291 -34.955  1.00  0.00    -0.076 SA
HETATM   23  C   UNL     1     -13.106   3.300 -34.835  1.00  0.00     0.057 C 
BRANCH  18  24
HETATM   24  C   UNL     1      -8.595   1.161 -33.423  1.00  0.00     0.296 C 
HETATM   25  O   UNL     1      -7.877   1.292 -32.435  1.00  0.00    -0.259 OA
BRANCH  24  26
HETATM   26  O   UNL     1      -8.483   0.123 -34.300  1.00  0.00    -0.322 OA
HETATM   27  C   UNL     1      -7.468   0.269 -35.295  1.00  0.00     0.213 C 
ENDBRANCH  24  26
ENDBRANCH  18  24
ENDBRANCH  14  17
ENDBRANCH  12  13
ENDBRANCH   1  12
BRANCH   3  28
HETATM   28  C   UNL     1      -4.375   3.175 -31.564  1.00  0.00     0.009 A 
HETATM   29  C   UNL     1      -5.113   2.718 -30.444  1.00  0.00     0.076 A 
HETATM   30  C   UNL     1      -5.087   1.369 -30.080  1.00  0.00     0.040 A 
HETATM   31  C   UNL     1      -4.334   0.458 -30.818  1.00  0.00     0.039 A 
HETATM   32  C   UNL     1      -3.603   0.880 -31.922  1.00  0.00     0.069 A 
HETATM   33  C   UNL     1      -3.643   2.225 -32.298  1.00  0.00     0.048 A 
BRANCH  29  34
HETATM   34  O   UNL     1      -5.886   3.654 -29.804  1.00  0.00    -0.355 OA
HETATM   35  C   UNL     1      -7.291   3.400 -29.763  1.00  0.00     0.210 C 
ENDBRANCH  29  34
BRANCH  32  36
HETATM   36  O   UNL     1      -2.925  -0.108 -32.577  1.00  0.00    -0.356 OA
HETATM   37  C   UNL     1      -2.902  -1.389 -31.957  1.00  0.00     0.210 C 
ENDBRANCH  32  36
ENDBRANCH   3  28
BRANCH   5  38
HETATM   38  O   UNL     1      -1.772   4.444 -33.655  1.00  0.00    -0.389 OA
HETATM   39  H   UNL     1      -0.980   4.626 -34.196  1.00  0.00     0.210 HD
ENDBRANCH   5  38
TORSDOF 9
ENDMDL
MODEL 5
REMARK VINA RESULT:      -7.8      2.862      7.728
REMARK  9 active torsions:
REMARK  status: ('A' for Active; 'I' for Inactive)
REMARK    1  A    between atoms: C_3  and  C_4 
REMARK    2  A    between atoms: C_4  and  O_5 
REMARK    3  A    between atoms: C_8  and  N_9 
REMARK       I    between atoms: N_9  and  C_10 
REMARK    4  A    between atoms: C_10  and  C_11 
REMARK    5  A    between atoms: C_11  and  N_12 
REMARK    6  A    between atoms: C_14  and  C_15 
REMARK    7  A    between atoms: C_16  and  O_17 
REMARK    8  A    between atoms: C_21  and  O_22 
REMARK    9  A    between atoms: C_26  and  O_27 
ROOT
HETATM    1  N   UNL     1     -10.445   3.299 -33.146  1.00  0.00    -0.054 N 
HETATM    2  H   UNL     1     -10.026   4.218 -33.343  1.00  0.00     0.281 HD
HETATM    3  C   UNL     1     -11.878   3.686 -32.748  1.00  0.00     0.231 C 
HETATM    4  C   UNL     1     -12.878   2.527 -33.033  1.00  0.00     0.055 C 
HETATM    5  C   UNL     1     -12.679   1.721 -34.332  1.00  0.00     0.065 C 
HETATM    6  C   UNL     1     -11.212   1.339 -34.499  1.00  0.00     0.066 C 
HETATM    7  C   UNL     1     -10.316   2.562 -34.443  1.00  0.00     0.239 C 
HETATM    8  C   UNL     1     -14.352   2.923 -32.843  1.00  0.00     0.010 C 
HETATM    9  C   UNL     1     -15.246   1.681 -32.825  1.00  0.00     0.001 C 
HETATM   10  C   UNL     1     -15.046   0.802 -34.057  1.00  0.00     0.003 C 
HETATM   11  C   UNL     1     -13.572   0.462 -34.298  1.00  0.00     0.038 C 
ENDROOT
BRANCH   1  12
HETATM   12  C   UNL     1      -9.557   2.810 -31.994  1.00  0.00     0.338 C 
BRANCH  12  13
HETATM   13  C   UNL     1      -8.251   2.126 -32.382  1.00  0.00     0.248 C 
HETATM   14  N   UNL     1      -8.197   0.779 -32.056  1.00  0.00    -0.319 N 
HETATM   15  H   UNL     1      -8.678   0.445 -31.230  1.00  0.00     0.169 HD
HETATM   16  O   UNL     1      -7.323   2.777 -32.860  1.00  0.00    -0.271 OA
BRANCH  14  17
HETATM   17  C   UNL     1      -7.103   0.030 -32.438  1.00  0.00     0.094 C 
HETATM   18  C   UNL     1      -5.864  -0.191 -31.866  1.00  0.00     0.080 C 
HETATM   19  C   UNL     1      -5.151  -1.217 -32.626  1.00  0.00    -0.030 C 
HETATM   20  C   UNL     1      -3.800  -1.766 -32.270  1.00  0.00     0.050 C 
HETATM   21  C   UNL     1      -5.865  -1.608 -33.755  1.00  0.00    -0.012 C 
HETATM   22  S   UNL     1      -7.320  -0.735 -33.929  1.00  0.00    -0.076 SA
HETATM   23  C   UNL     1      -5.490  -2.625 -34.787  1.00  0.00     0.057 C 
BRANCH  18  24
HETATM   24  C   UNL     1      -5.375   0.588 -30.714  1.00  0.00     0.296 C 
HETATM   25  O   UNL     1      -5.925   0.583 -29.616  1.00  0.00    -0.259 OA
BRANCH  24  26
HETATM   26  O   UNL     1      -4.304   1.376 -31.015  1.00  0.00    -0.322 OA
HETATM   27  C   UNL     1      -4.497   2.776 -30.805  1.00  0.00     0.213 C 
ENDBRANCH  24  26
ENDBRANCH  18  24
ENDBRANCH  14  17
ENDBRANCH  12  13
ENDBRANCH   1  12
BRANCH   3  28
HETATM   28  C   UNL     1     -12.171   5.121 -33.195  1.00  0.00     0.009 A 
HETATM   29  C   UNL     1     -12.510   6.097 -32.226  1.00  0.00     0.076 A 
HETATM   30  C   UNL     1     -12.726   7.426 -32.603  1.00  0.00     0.040 A 
HETATM   31  C   UNL     1     -12.609   7.803 -33.939  1.00  0.00     0.039 A 
HETATM   32  C   UNL     1     -12.277   6.865 -34.908  1.00  0.00     0.069 A 
HETATM   33  C   UNL     1     -12.041   5.541 -34.530  1.00  0.00     0.048 A 
BRANCH  29  34
HETATM   34  O   UNL     1     -12.541   5.672 -30.921  1.00  0.00    -0.355 OA
HETATM   35  C   UNL     1     -13.817   5.676 -30.279  1.00  0.00     0.210 C 
ENDBRANCH  29  34
BRANCH  32  36
HETATM   36  O   UNL     1     -12.169   7.360 -36.177  1.00  0.00    -0.356 OA
HETATM   37  C   UNL     1     -13.339   7.941 -36.739  1.00  0.00     0.210 C 
ENDBRANCH  32  36
ENDBRANCH   3  28
BRANCH   5  38
HETATM   38  O   UNL     1     -13.023   2.503 -35.471  1.00  0.00    -0.389 OA
HETATM   39  H   UNL     1     -12.808   2.015 -36.289  1.00  0.00     0.210 HD
ENDBRANCH   5  38
TORSDOF 9
ENDMDL
MODEL 6
REMARK VINA RESULT:      -7.7      1.643      2.217
REMARK  9 active torsions:
REMARK  status: ('A' for Active; 'I' for Inactive)
REMARK    1  A    between atoms: C_3  and  C_4 
REMARK    2  A    between atoms: C_4  and  O_5 
REMARK    3  A    between atoms: C_8  and  N_9 
REMARK       I    between atoms: N_9  and  C_10 
REMARK    4  A    between atoms: C_10  and  C_11 
REMARK    5  A    between atoms: C_11  and  N_12 
REMARK    6  A    between atoms: C_14  and  C_15 
REMARK    7  A    between atoms: C_16  and  O_17 
REMARK    8  A    between atoms: C_21  and  O_22 
REMARK    9  A    between atoms: C_26  and  O_27 
ROOT
HETATM    1  N   UNL     1      -6.298   2.460 -30.908  1.00  0.00    -0.054 N 
HETATM    2  H   UNL     1      -5.652   3.206 -30.617  1.00  0.00     0.281 HD
HETATM    3  C   UNL     1      -6.334   2.653 -32.432  1.00  0.00     0.231 C 
HETATM    4  C   UNL     1      -6.678   1.322 -33.164  1.00  0.00     0.055 C 
HETATM    5  C   UNL     1      -6.050   0.027 -32.613  1.00  0.00     0.065 C 
HETATM    6  C   UNL     1      -6.206  -0.034 -31.096  1.00  0.00     0.066 C 
HETATM    7  C   UNL     1      -5.630   1.206 -30.436  1.00  0.00     0.239 C 
HETATM    8  C   UNL     1      -6.533   1.404 -34.693  1.00  0.00     0.010 C 
HETATM    9  C   UNL     1      -7.179   0.189 -35.362  1.00  0.00     0.001 C 
HETATM   10  C   UNL     1      -6.649  -1.131 -34.809  1.00  0.00     0.003 C 
HETATM   11  C   UNL     1      -6.720  -1.194 -33.279  1.00  0.00     0.038 C 
ENDROOT
BRANCH   1  12
HETATM   12  C   UNL     1      -7.578   2.871 -30.168  1.00  0.00     0.338 C 
BRANCH  12  13
HETATM   13  C   UNL     1      -8.886   2.727 -30.939  1.00  0.00     0.248 C 
HETATM   14  N   UNL     1      -9.370   3.917 -31.463  1.00  0.00    -0.319 N 
HETATM   15  H   UNL     1      -9.205   4.784 -30.968  1.00  0.00     0.169 HD
HETATM   16  O   UNL     1      -9.468   1.645 -30.986  1.00  0.00    -0.271 OA
BRANCH  14  17
HETATM   17  C   UNL     1     -10.498   3.902 -32.257  1.00  0.00     0.094 C 
HETATM   18  C   UNL     1     -11.803   4.308 -32.050  1.00  0.00     0.080 C 
HETATM   19  C   UNL     1     -12.549   4.212 -33.305  1.00  0.00    -0.030 C 
HETATM   20  C   UNL     1     -13.981   4.625 -33.486  1.00  0.00     0.050 C 
HETATM   21  C   UNL     1     -11.777   3.653 -34.319  1.00  0.00    -0.012 C 
HETATM   22  S   UNL     1     -10.224   3.206 -33.773  1.00  0.00    -0.076 SA
HETATM   23  C   UNL     1     -12.162   3.386 -35.741  1.00  0.00     0.057 C 
BRANCH  18  24
HETATM   24  C   UNL     1     -12.311   4.686 -30.720  1.00  0.00     0.296 C 
HETATM   25  O   UNL     1     -13.158   4.035 -30.112  1.00  0.00    -0.259 OA
BRANCH  24  26
HETATM   26  O   UNL     1     -11.810   5.871 -30.271  1.00  0.00    -0.322 OA
HETATM   27  C   UNL     1     -12.433   7.041 -30.805  1.00  0.00     0.213 C 
ENDBRANCH  24  26
ENDBRANCH  18  24
ENDBRANCH  14  17
ENDBRANCH  12  13
ENDBRANCH   1  12
BRANCH   3  28
HETATM   28  C   UNL     1      -5.155   3.525 -32.873  1.00  0.00     0.009 A 
HETATM   29  C   UNL     1      -5.377   4.588 -33.783  1.00  0.00     0.076 A 
HETATM   30  C   UNL     1      -4.328   5.433 -34.156  1.00  0.00     0.040 A 
HETATM   31  C   UNL     1      -3.051   5.237 -33.635  1.00  0.00     0.039 A 
HETATM   32  C   UNL     1      -2.808   4.203 -32.739  1.00  0.00     0.069 A 
HETATM   33  C   UNL     1      -3.860   3.370 -32.351  1.00  0.00     0.048 A 
BRANCH  29  34
HETATM   34  O   UNL     1      -6.671   4.766 -34.205  1.00  0.00    -0.355 OA
HETATM   35  C   UNL     1      -7.439   5.749 -33.509  1.00  0.00     0.210 C 
ENDBRANCH  29  34
BRANCH  32  36
HETATM   36  O   UNL     1      -1.523   4.127 -32.279  1.00  0.00    -0.356 OA
HETATM   37  C   UNL     1      -0.857   5.361 -32.038  1.00  0.00     0.210 C 
ENDBRANCH  32  36
ENDBRANCH   3  28
BRANCH   5  38
HETATM   38  O   UNL     1      -4.651  -0.011 -32.875  1.00  0.00    -0.389 OA
HETATM   39  H   UNL     1      -4.351  -0.937 -32.956  1.00  0.00     0.210 HD
ENDBRANCH   5  38
TORSDOF 9
ENDMDL
MODEL 7
REMARK VINA RESULT:      -7.6      2.871      7.927
REMARK  9 active torsions:
REMARK  status: ('A' for Active; 'I' for Inactive)
REMARK    1  A    between atoms: C_3  and  C_4 
REMARK    2  A    between atoms: C_4  and  O_5 
REMARK    3  A    between atoms: C_8  and  N_9 
REMARK       I    between atoms: N_9  and  C_10 
REMARK    4  A    between atoms: C_10  and  C_11 
REMARK    5  A    between atoms: C_11  and  N_12 
REMARK    6  A    between atoms: C_14  and  C_15 
REMARK    7  A    between atoms: C_16  and  O_17 
REMARK    8  A    between atoms: C_21  and  O_22 
REMARK    9  A    between atoms: C_26  and  O_27 
ROOT
HETATM    1  N   UNL     1      -5.524   1.909 -32.477  1.00  0.00    -0.054 N 
HETATM    2  H   UNL     1      -4.729   1.261 -32.399  1.00  0.00     0.281 HD
HETATM    3  C   UNL     1      -6.359   1.246 -33.584  1.00  0.00     0.231 C 
HETATM    4  C   UNL     1      -7.867   1.615 -33.455  1.00  0.00     0.055 C 
HETATM    5  C   UNL     1      -8.463   1.674 -32.035  1.00  0.00     0.065 C 
HETATM    6  C   UNL     1      -7.544   2.461 -31.106  1.00  0.00     0.066 C 
HETATM    7  C   UNL     1      -6.138   1.889 -31.112  1.00  0.00     0.239 C 
HETATM    8  C   UNL     1      -8.779   0.825 -34.409  1.00  0.00     0.010 C 
HETATM    9  C   UNL     1     -10.176   1.449 -34.459  1.00  0.00     0.001 C 
HETATM   10  C   UNL     1     -10.796   1.600 -33.072  1.00  0.00     0.003 C 
HETATM   11  C   UNL     1      -9.865   2.320 -32.092  1.00  0.00     0.038 C 
ENDROOT
BRANCH   1  12
HETATM   12  C   UNL     1      -4.812   3.205 -32.886  1.00  0.00     0.338 C 
BRANCH  12  13
HETATM   13  C   UNL     1      -3.863   3.814 -31.859  1.00  0.00     0.248 C 
HETATM   14  N   UNL     1      -3.808   5.199 -31.888  1.00  0.00    -0.319 N 
HETATM   15  H   UNL     1      -3.929   5.686 -32.767  1.00  0.00     0.169 HD
HETATM   16  O   UNL     1      -3.162   3.092 -31.152  1.00  0.00    -0.271 OA
BRANCH  14  17
HETATM   17  C   UNL     1      -3.054   5.870 -30.947  1.00  0.00     0.094 C 
HETATM   18  C   UNL     1      -1.698   6.110 -30.821  1.00  0.00     0.080 C 
HETATM   19  C   UNL     1      -1.467   7.029 -29.706  1.00  0.00    -0.030 C 
HETATM   20  C   UNL     1      -0.125   7.569 -29.303  1.00  0.00     0.050 C 
HETATM   21  C   UNL     1      -2.647   7.324 -29.032  1.00  0.00    -0.012 C 
HETATM   22  S   UNL     1      -3.985   6.484 -29.677  1.00  0.00    -0.076 SA
HETATM   23  C   UNL     1      -2.843   8.217 -27.846  1.00  0.00     0.057 C 
BRANCH  18  24
HETATM   24  C   UNL     1      -0.695   5.438 -31.666  1.00  0.00     0.296 C 
HETATM   25  O   UNL     1       0.292   4.865 -31.212  1.00  0.00    -0.259 OA
BRANCH  24  26
HETATM   26  O   UNL     1      -0.930   5.588 -33.000  1.00  0.00    -0.322 OA
HETATM   27  C   UNL     1      -0.926   6.937 -33.474  1.00  0.00     0.213 C 
ENDBRANCH  24  26
ENDBRANCH  18  24
ENDBRANCH  14  17
ENDBRANCH  12  13
ENDBRANCH   1  12
BRANCH   3  28
HETATM   28  C   UNL     1      -5.906  -0.203 -33.779  1.00  0.00     0.009 A 
HETATM   29  C   UNL     1      -4.614  -0.593 -33.348  1.00  0.00     0.076 A 
HETATM   30  C   UNL     1      -4.199  -1.923 -33.463  1.00  0.00     0.040 A 
HETATM   31  C   UNL     1      -5.055  -2.880 -34.004  1.00  0.00     0.039 A 
HETATM   32  C   UNL     1      -6.327  -2.523 -34.433  1.00  0.00     0.069 A 
HETATM   33  C   UNL     1      -6.750  -1.199 -34.300  1.00  0.00     0.048 A 
BRANCH  29  34
HETATM   34  O   UNL     1      -3.849   0.384 -32.763  1.00  0.00    -0.355 OA
HETATM   35  C   UNL     1      -2.935  -0.042 -31.751  1.00  0.00     0.210 C 
ENDBRANCH  29  34
BRANCH  32  36
HETATM   36  O   UNL     1      -7.081  -3.553 -34.922  1.00  0.00    -0.356 OA
HETATM   37  C   UNL     1      -6.374  -4.665 -35.459  1.00  0.00     0.210 C 
ENDBRANCH  32  36
ENDBRANCH   3  28
BRANCH   5  38
HETATM   38  O   UNL     1      -8.576   0.369 -31.477  1.00  0.00    -0.389 OA
HETATM   39  H   UNL     1      -7.833   0.201 -30.867  1.00  0.00     0.210 HD
ENDBRANCH   5  38
TORSDOF 9
ENDMDL
MODEL 8
REMARK VINA RESULT:      -7.5      2.880      5.521
REMARK  9 active torsions:
REMARK  status: ('A' for Active; 'I' for Inactive)
REMARK    1  A    between atoms: C_3  and  C_4 
REMARK    2  A    between atoms: C_4  and  O_5 
REMARK    3  A    between atoms: C_8  and  N_9 
REMARK       I    between atoms: N_9  and  C_10 
REMARK    4  A    between atoms: C_10  and  C_11 
REMARK    5  A    between atoms: C_11  and  N_12 
REMARK    6  A    between atoms: C_14  and  C_15 
REMARK    7  A    between atoms: C_16  and  O_17 
REMARK    8  A    between atoms: C_21  and  O_22 
REMARK    9  A    between atoms: C_26  and  O_27 
ROOT
HETATM    1  N   UNL     1      -4.902   4.338 -32.390  1.00  0.00    -0.054 N 
HETATM    2  H   UNL     1      -5.678   3.935 -31.847  1.00  0.00     0.281 HD
HETATM    3  C   UNL     1      -4.904   5.796 -31.905  1.00  0.00     0.231 C 
HETATM    4  C   UNL     1      -3.493   6.440 -32.042  1.00  0.00     0.055 C 
HETATM    5  C   UNL     1      -2.275   5.562 -31.692  1.00  0.00     0.065 C 
HETATM    6  C   UNL     1      -2.404   4.191 -32.348  1.00  0.00     0.066 C 
HETATM    7  C   UNL     1      -3.716   3.525 -31.974  1.00  0.00     0.239 C 
HETATM    8  C   UNL     1      -3.384   7.829 -31.390  1.00  0.00     0.010 C 
HETATM    9  C   UNL     1      -2.096   8.530 -31.828  1.00  0.00     0.001 C 
HETATM   10  C   UNL     1      -0.854   7.681 -31.571  1.00  0.00     0.003 C 
HETATM   11  C   UNL     1      -0.982   6.269 -32.152  1.00  0.00     0.038 C 
ENDROOT
BRANCH   1  12
HETATM   12  C   UNL     1      -5.404   4.127 -33.825  1.00  0.00     0.338 C 
BRANCH  12  13
HETATM   13  C   UNL     1      -6.467   3.051 -34.024  1.00  0.00     0.248 C 
HETATM   14  N   UNL     1      -7.507   3.104 -33.107  1.00  0.00    -0.319 N 
HETATM   15  H   UNL     1      -7.325   3.421 -32.163  1.00  0.00     0.169 HD
HETATM   16  O   UNL     1      -6.322   2.181 -34.880  1.00  0.00    -0.271 OA
BRANCH  14  17
HETATM   17  C   UNL     1      -8.575   2.241 -33.239  1.00  0.00     0.094 C 
HETATM   18  C   UNL     1      -8.768   0.919 -32.885  1.00  0.00     0.080 C 
HETATM   19  C   UNL     1     -10.166   0.552 -33.112  1.00  0.00    -0.030 C 
HETATM   20  C   UNL     1     -10.768  -0.784 -32.786  1.00  0.00     0.050 C 
HETATM   21  C   UNL     1     -10.879   1.590 -33.706  1.00  0.00    -0.012 C 
HETATM   22  S   UNL     1      -9.892   2.943 -34.032  1.00  0.00    -0.076 SA
HETATM   23  C   UNL     1     -12.323   1.622 -34.099  1.00  0.00     0.057 C 
BRANCH  18  24
HETATM   24  C   UNL     1      -7.666   0.052 -32.433  1.00  0.00     0.296 C 
HETATM   25  O   UNL     1      -7.229  -0.883 -33.099  1.00  0.00    -0.259 OA
BRANCH  24  26
HETATM   26  O   UNL     1      -7.238   0.341 -31.172  1.00  0.00    -0.322 OA
HETATM   27  C   UNL     1      -5.832   0.557 -31.037  1.00  0.00     0.213 C 
ENDBRANCH  24  26
ENDBRANCH  18  24
ENDBRANCH  14  17
ENDBRANCH  12  13
ENDBRANCH   1  12
BRANCH   3  28
HETATM   28  C   UNL     1      -5.713   5.912 -30.611  1.00  0.00     0.009 A 
HETATM   29  C   UNL     1      -7.128   5.922 -30.672  1.00  0.00     0.076 A 
HETATM   30  C   UNL     1      -7.888   5.969 -29.499  1.00  0.00     0.040 A 
HETATM   31  C   UNL     1      -7.259   6.006 -28.257  1.00  0.00     0.039 A 
HETATM   32  C   UNL     1      -5.873   5.996 -28.171  1.00  0.00     0.069 A 
HETATM   33  C   UNL     1      -5.112   5.929 -29.340  1.00  0.00     0.048 A 
BRANCH  29  34
HETATM   34  O   UNL     1      -7.683   5.814 -31.922  1.00  0.00    -0.355 OA
HETATM   35  C   UNL     1      -9.019   6.296 -32.071  1.00  0.00     0.210 C 
ENDBRANCH  29  34
BRANCH  32  36
HETATM   36  O   UNL     1      -5.374   6.012 -26.898  1.00  0.00    -0.356 OA
HETATM   37  C   UNL     1      -4.132   6.680 -26.706  1.00  0.00     0.210 C 
ENDBRANCH  32  36
ENDBRANCH   3  28
BRANCH   5  38
HETATM   38  O   UNL     1      -2.203   5.331 -30.288  1.00  0.00    -0.389 OA
HETATM   39  H   UNL     1      -2.582   6.089 -29.805  1.00  0.00     0.210 HD
ENDBRANCH   5  38
TORSDOF 9
ENDMDL
MODEL 9
REMARK VINA RESULT:      -7.4      3.271      7.465
REMARK  9 active torsions:
REMARK  status: ('A' for Active; 'I' for Inactive)
REMARK    1  A    between atoms: C_3  and  C_4 
REMARK    2  A    between atoms: C_4  and  O_5 
REMARK    3  A    between atoms: C_8  and  N_9 
REMARK       I    between atoms: N_9  and  C_10 
REMARK    4  A    between atoms: C_10  and  C_11 
REMARK    5  A    between atoms: C_11  and  N_12 
REMARK    6  A    between atoms: C_14  and  C_15 
REMARK    7  A    between atoms: C_16  and  O_17 
REMARK    8  A    between atoms: C_21  and  O_22 
REMARK    9  A    between atoms: C_26  and  O_27 
ROOT
HETATM    1  N   UNL     1      -4.383   2.620 -32.149  1.00  0.00    -0.054 N 
HETATM    2  H   UNL     1      -3.637   1.938 -32.338  1.00  0.00     0.281 HD
HETATM    3  C   UNL     1      -5.608   1.925 -32.765  1.00  0.00     0.231 C 
HETATM    4  C   UNL     1      -6.927   2.384 -32.075  1.00  0.00     0.055 C 
HETATM    5  C   UNL     1      -6.897   2.579 -30.546  1.00  0.00     0.065 C 
HETATM    6  C   UNL     1      -5.665   3.380 -30.138  1.00  0.00     0.066 C 
HETATM    7  C   UNL     1      -4.393   2.733 -30.656  1.00  0.00     0.239 C 
HETATM    8  C   UNL     1      -8.163   1.579 -32.510  1.00  0.00     0.010 C 
HETATM    9  C   UNL     1      -9.447   2.273 -32.051  1.00  0.00     0.001 C 
HETATM   10  C   UNL     1      -9.451   2.557 -30.551  1.00  0.00     0.003 C 
HETATM   11  C   UNL     1      -8.188   3.295 -30.094  1.00  0.00     0.038 C 
ENDROOT
BRANCH   1  12
HETATM   12  C   UNL     1      -3.870   3.843 -32.921  1.00  0.00     0.338 C 
BRANCH  12  13
HETATM   13  C   UNL     1      -3.464   5.054 -32.088  1.00  0.00     0.248 C 
HETATM   14  N   UNL     1      -4.200   6.199 -32.355  1.00  0.00    -0.319 N 
HETATM   15  H   UNL     1      -4.546   6.364 -33.292  1.00  0.00     0.169 HD
HETATM   16  O   UNL     1      -2.502   4.992 -31.325  1.00  0.00    -0.271 OA
BRANCH  14  17
HETATM   17  C   UNL     1      -3.987   7.335 -31.602  1.00  0.00     0.094 C 
HETATM   18  C   UNL     1      -2.936   8.229 -31.518  1.00  0.00     0.080 C 
HETATM   19  C   UNL     1      -3.320   9.356 -30.668  1.00  0.00    -0.030 C 
HETATM   20  C   UNL     1      -2.461  10.556 -30.393  1.00  0.00     0.050 C 
HETATM   21  C   UNL     1      -4.580   9.170 -30.107  1.00  0.00    -0.012 C 
HETATM   22  S   UNL     1      -5.262   7.667 -30.542  1.00  0.00    -0.076 SA
HETATM   23  C   UNL     1      -5.333  10.080 -29.188  1.00  0.00     0.057 C 
BRANCH  18  24
HETATM   24  C   UNL     1      -1.630   7.974 -32.151  1.00  0.00     0.296 C 
HETATM   25  O   UNL     1      -0.596   7.797 -31.513  1.00  0.00    -0.259 OA
BRANCH  24  26
HETATM   26  O   UNL     1      -1.672   8.037 -33.512  1.00  0.00    -0.322 OA
HETATM   27  C   UNL     1      -1.209   6.869 -34.193  1.00  0.00     0.213 C 
ENDBRANCH  24  26
ENDBRANCH  18  24
ENDBRANCH  14  17
ENDBRANCH  12  13
ENDBRANCH   1  12
BRANCH   3  28
HETATM   28  C   UNL     1      -5.302   0.443 -32.996  1.00  0.00     0.009 A 
HETATM   29  C   UNL     1      -5.827  -0.206 -34.140  1.00  0.00     0.076 A 
HETATM   30  C   UNL     1      -5.515  -1.544 -34.402  1.00  0.00     0.040 A 
HETATM   31  C   UNL     1      -4.682  -2.251 -33.539  1.00  0.00     0.039 A 
HETATM   32  C   UNL     1      -4.153  -1.636 -32.411  1.00  0.00     0.069 A 
HETATM   33  C   UNL     1      -4.449  -0.295 -32.158  1.00  0.00     0.048 A 
BRANCH  29  34
HETATM   34  O   UNL     1      -6.584   0.568 -34.984  1.00  0.00    -0.355 OA
HETATM   35  C   UNL     1      -7.820   0.006 -35.428  1.00  0.00     0.210 C 
ENDBRANCH  29  34
BRANCH  32  36
HETATM   36  O   UNL     1      -3.332  -2.425 -31.655  1.00  0.00    -0.356 OA
HETATM   37  C   UNL     1      -3.128  -3.757 -32.111  1.00  0.00     0.210 C 
ENDBRANCH  32  36
ENDBRANCH   3  28
BRANCH   5  38
HETATM   38  O   UNL     1      -6.803   1.326 -29.877  1.00  0.00    -0.389 OA
HETATM   39  H   UNL     1      -6.013   0.842 -30.185  1.00  0.00     0.210 HD
ENDBRANCH   5  38
TORSDOF 9
ENDMDL
MODEL 10
REMARK VINA RESULT:      -7.3      2.543      7.925
REMARK  9 active torsions:
REMARK  status: ('A' for Active; 'I' for Inactive)
REMARK    1  A    between atoms: C_3  and  C_4 
REMARK    2  A    between atoms: C_4  and  O_5 
REMARK    3  A    between atoms: C_8  and  N_9 
REMARK       I    between atoms: N_9  and  C_10 
REMARK    4  A    between atoms: C_10  and  C_11 
REMARK    5  A    between atoms: C_11  and  N_12 
REMARK    6  A    between atoms: C_14  and  C_15 
REMARK    7  A    between atoms: C_16  and  O_17 
REMARK    8  A    between atoms: C_21  and  O_22 
REMARK    9  A    between atoms: C_26  and  O_27 
ROOT
HETATM    1  N   UNL     1      -7.739   2.666 -33.021  1.00  0.00    -0.054 N 
HETATM    2  H   UNL     1      -8.159   1.981 -33.663  1.00  0.00     0.281 HD
HETATM    3  C   UNL     1      -8.667   3.878 -33.204  1.00  0.00     0.231 C 
HETATM    4  C   UNL     1      -8.680   4.779 -31.934  1.00  0.00     0.055 C 
HETATM    5  C   UNL     1      -8.670   4.074 -30.563  1.00  0.00     0.065 C 
HETATM    6  C   UNL     1      -7.614   2.974 -30.540  1.00  0.00     0.066 C 
HETATM    7  C   UNL     1      -7.815   1.996 -31.684  1.00  0.00     0.239 C 
HETATM    8  C   UNL     1      -9.738   5.894 -31.980  1.00  0.00     0.010 C 
HETATM    9  C   UNL     1      -9.490   6.919 -30.871  1.00  0.00     0.001 C 
HETATM   10  C   UNL     1      -9.401   6.274 -29.490  1.00  0.00     0.003 C 
HETATM   11  C   UNL     1      -8.402   5.112 -29.452  1.00  0.00     0.038 C 
ENDROOT
BRANCH   1  12
HETATM   12  C   UNL     1      -6.338   2.821 -33.627  1.00  0.00     0.338 C 
BRANCH  12  13
HETATM   13  C   UNL     1      -5.678   4.188 -33.477  1.00  0.00     0.248 C 
HETATM   14  N   UNL     1      -5.148   4.426 -32.217  1.00  0.00    -0.319 N 
HETATM   15  H   UNL     1      -5.595   4.025 -31.403  1.00  0.00     0.169 HD
HETATM   16  O   UNL     1      -5.718   5.005 -34.395  1.00  0.00    -0.271 OA
BRANCH  14  17
HETATM   17  C   UNL     1      -4.445   5.591 -31.984  1.00  0.00     0.094 C 
HETATM   18  C   UNL     1      -3.135   5.965 -32.216  1.00  0.00     0.080 C 
HETATM   19  C   UNL     1      -2.975   7.389 -31.923  1.00  0.00    -0.030 C 
HETATM   20  C   UNL     1      -1.706   8.168 -32.115  1.00  0.00     0.050 C 
HETATM   21  C   UNL     1      -4.143   7.941 -31.405  1.00  0.00    -0.012 C 
HETATM   22  S   UNL     1      -5.378   6.778 -31.223  1.00  0.00    -0.076 SA
HETATM   23  C   UNL     1      -4.396   9.354 -30.980  1.00  0.00     0.057 C 
BRANCH  18  24
HETATM   24  C   UNL     1      -2.097   5.000 -32.617  1.00  0.00     0.296 C 
HETATM   25  O   UNL     1      -1.784   4.796 -33.788  1.00  0.00    -0.259 OA
BRANCH  24  26
HETATM   26  O   UNL     1      -1.581   4.299 -31.568  1.00  0.00    -0.322 OA
HETATM   27  C   UNL     1      -0.553   4.966 -30.833  1.00  0.00     0.213 C 
ENDBRANCH  24  26
ENDBRANCH  18  24
ENDBRANCH  14  17
ENDBRANCH  12  13
ENDBRANCH   1  12
BRANCH   3  28
HETATM   28  C   UNL     1      -9.967   3.437 -33.883  1.00  0.00     0.009 A 
HETATM   29  C   UNL     1     -10.457   4.172 -34.991  1.00  0.00     0.076 A 
HETATM   30  C   UNL     1     -11.610   3.756 -35.663  1.00  0.00     0.040 A 
HETATM   31  C   UNL     1     -12.290   2.613 -35.249  1.00  0.00     0.039 A 
HETATM   32  C   UNL     1     -11.828   1.875 -34.165  1.00  0.00     0.069 A 
HETATM   33  C   UNL     1     -10.666   2.278 -33.505  1.00  0.00     0.048 A 
BRANCH  29  34
HETATM   34  O   UNL     1      -9.702   5.247 -35.389  1.00  0.00    -0.355 OA
HETATM   35  C   UNL     1     -10.393   6.486 -35.549  1.00  0.00     0.210 C 
ENDBRANCH  29  34
BRANCH  32  36
HETATM   36  O   UNL     1     -12.565   0.762 -33.870  1.00  0.00    -0.356 OA
HETATM   37  C   UNL     1     -13.931   0.775 -34.268  1.00  0.00     0.210 C 
ENDBRANCH  32  36
ENDBRANCH   3  28
BRANCH   5  38
HETATM   38  O   UNL     1      -9.919   3.438 -30.312  1.00  0.00    -0.389 OA
HETATM   39  H   UNL     1     -10.278   3.067 -31.140  1.00  0.00     0.210 HD
ENDBRANCH   5  38
TORSDOF 9
ENDMDL
