MODEL 1
REMARK VINA RESULT:      -8.7      0.000      0.000
REMARK  5 active torsions:
REMARK  status: ('A' for Active; 'I' for Inactive)
REMARK    1  A    between atoms: C_9  and  C_10 
REMARK    2  A    between atoms: C_11  and  O_12 
REMARK    3  A    between atoms: O_12  and  C_13 
REMARK    4  A    between atoms: C_20  and  C_21 
REMARK       I    between atoms: C_21  and  N_22 
REMARK    5  A    between atoms: N_22  and  C_23 
ROOT
HETATM    1  C   UNL     1      -2.741   0.309 -31.183  1.00  0.00     0.070 C 
HETATM    2  C   UNL     1      -3.651   1.359 -31.767  1.00  0.00     0.037 A 
HETATM    3  N   UNL     1      -3.167   2.662 -31.733  1.00  0.00    -0.192 N 
HETATM    4  C   UNL     1      -3.781   3.696 -32.339  1.00  0.00     0.725 A 
HETATM    5  N   UNL     1      -4.990   3.496 -32.952  1.00  0.00    -0.084 N 
HETATM    6  N   UNL     1      -5.416   4.619 -33.571  1.00  0.00    -0.149 NA
HETATM    7  C   UNL     1      -4.431   5.466 -33.252  1.00  0.00     0.275 A 
HETATM    8  N   UNL     1      -3.416   4.943 -32.493  1.00  0.00    -0.054 NA
HETATM    9  C   UNL     1      -5.679   2.201 -33.005  1.00  0.00     0.205 A 
HETATM   10  C   UNL     1      -4.849   1.105 -32.349  1.00  0.00     0.063 A 
HETATM   11  H   UNL     1      -2.251   2.817 -31.321  1.00  0.00     0.184 HD
ENDROOT
BRANCH   9  12
HETATM   12  C   UNL     1      -7.092   2.326 -32.430  1.00  0.00     0.005 A 
HETATM   13  C   UNL     1      -8.253   2.158 -33.212  1.00  0.00     0.083 A 
HETATM   14  C   UNL     1      -9.515   2.289 -32.620  1.00  0.00     0.037 A 
HETATM   15  C   UNL     1      -9.632   2.566 -31.256  1.00  0.00     0.003 A 
HETATM   16  C   UNL     1      -8.492   2.728 -30.477  1.00  0.00     0.001 A 
HETATM   17  C   UNL     1      -7.232   2.613 -31.059  1.00  0.00     0.012 A 
BRANCH  13  18
HETATM   18  O   UNL     1      -8.065   1.929 -34.548  1.00  0.00    -0.290 OA
BRANCH  18  19
HETATM   19  C   UNL     1      -8.344   0.616 -35.007  1.00  0.00     0.505 C 
HETATM   20  F   UNL     1      -7.279   0.168 -35.717  1.00  0.00    -0.184 F 
HETATM   21  F   UNL     1      -8.431  -0.180 -33.911  1.00  0.00    -0.184 F 
ENDBRANCH  18  19
ENDBRANCH  13  18
ENDBRANCH   9  12
BRANCH  10  22
HETATM   22  C   UNL     1      -5.434  -0.252 -32.488  1.00  0.00     0.256 C 
HETATM   23  N   UNL     1      -4.966  -0.932 -33.591  1.00  0.00    -0.323 N 
HETATM   24  H   UNL     1      -4.274  -0.458 -34.159  1.00  0.00     0.169 HD
HETATM   25  O   UNL     1      -6.209  -0.649 -31.628  1.00  0.00    -0.267 OA
BRANCH  23  26
HETATM   26  C   UNL     1      -5.333  -2.223 -34.019  1.00  0.00     0.035 A 
HETATM   27  C   UNL     1      -6.592  -2.547 -34.529  1.00  0.00     0.029 A 
HETATM   28  C   UNL     1      -6.875  -3.852 -34.943  1.00  0.00     0.002 A 
HETATM   29  C   UNL     1      -5.901  -4.843 -34.856  1.00  0.00     0.000 A 
HETATM   30  C   UNL     1      -4.643  -4.531 -34.350  1.00  0.00     0.002 A 
HETATM   31  C   UNL     1      -4.362  -3.228 -33.929  1.00  0.00     0.029 A 
ENDBRANCH  23  26
ENDBRANCH  10  22
TORSDOF 5
ENDMDL
MODEL 2
REMARK VINA RESULT:      -8.6      1.726      2.332
REMARK  5 active torsions:
REMARK  status: ('A' for Active; 'I' for Inactive)
REMARK    1  A    between atoms: C_9  and  C_10 
REMARK    2  A    between atoms: C_11  and  O_12 
REMARK    3  A    between atoms: O_12  and  C_13 
REMARK    4  A    between atoms: C_20  and  C_21 
REMARK       I    between atoms: C_21  and  N_22 
REMARK    5  A    between atoms: N_22  and  C_23 
ROOT
HETATM    1  C   UNL     1      -3.170   0.704 -31.073  1.00  0.00     0.070 C 
HETATM    2  C   UNL     1      -4.051   1.578 -31.928  1.00  0.00     0.037 A 
HETATM    3  N   UNL     1      -3.690   2.919 -31.991  1.00  0.00    -0.192 N 
HETATM    4  C   UNL     1      -4.276   3.806 -32.819  1.00  0.00     0.725 A 
HETATM    5  N   UNL     1      -5.342   3.411 -33.583  1.00  0.00    -0.084 N 
HETATM    6  N   UNL     1      -5.748   4.403 -34.406  1.00  0.00    -0.149 NA
HETATM    7  C   UNL     1      -4.905   5.379 -34.050  1.00  0.00     0.275 A 
HETATM    8  N   UNL     1      -3.995   5.057 -33.077  1.00  0.00    -0.054 NA
HETATM    9  C   UNL     1      -5.901   2.054 -33.573  1.00  0.00     0.205 A 
HETATM   10  C   UNL     1      -5.108   1.135 -32.654  1.00  0.00     0.063 A 
HETATM   11  H   UNL     1      -2.873   3.216 -31.464  1.00  0.00     0.184 HD
ENDROOT
BRANCH   9  12
HETATM   12  C   UNL     1      -7.397   2.098 -33.250  1.00  0.00     0.005 A 
HETATM   13  C   UNL     1      -7.922   2.805 -32.148  1.00  0.00     0.083 A 
HETATM   14  C   UNL     1      -9.302   2.798 -31.912  1.00  0.00     0.037 A 
HETATM   15  C   UNL     1     -10.164   2.114 -32.770  1.00  0.00     0.003 A 
HETATM   16  C   UNL     1      -9.656   1.418 -33.861  1.00  0.00     0.001 A 
HETATM   17  C   UNL     1      -8.283   1.407 -34.098  1.00  0.00     0.012 A 
BRANCH  13  18
HETATM   18  O   UNL     1      -7.016   3.419 -31.327  1.00  0.00    -0.290 OA
BRANCH  18  19
HETATM   19  C   UNL     1      -6.956   2.945 -29.991  1.00  0.00     0.505 C 
HETATM   20  F   UNL     1      -6.953   1.588 -30.010  1.00  0.00    -0.184 F 
HETATM   21  F   UNL     1      -5.751   3.318 -29.489  1.00  0.00    -0.184 F 
ENDBRANCH  18  19
ENDBRANCH  13  18
ENDBRANCH   9  12
BRANCH  10  22
HETATM   22  C   UNL     1      -5.545  -0.283 -32.702  1.00  0.00     0.256 C 
HETATM   23  N   UNL     1      -5.089  -0.951 -33.817  1.00  0.00    -0.323 N 
HETATM   24  H   UNL     1      -4.500  -0.428 -34.453  1.00  0.00     0.169 HD
HETATM   25  O   UNL     1      -6.203  -0.727 -31.770  1.00  0.00    -0.267 OA
BRANCH  23  26
HETATM   26  C   UNL     1      -5.341  -2.291 -34.172  1.00  0.00     0.035 A 
HETATM   27  C   UNL     1      -6.549  -2.742 -34.710  1.00  0.00     0.029 A 
HETATM   28  C   UNL     1      -6.716  -4.089 -35.047  1.00  0.00     0.002 A 
HETATM   29  C   UNL     1      -5.677  -4.995 -34.855  1.00  0.00     0.000 A 
HETATM   30  C   UNL     1      -4.469  -4.557 -34.321  1.00  0.00     0.002 A 
HETATM   31  C   UNL     1      -4.304  -3.212 -33.977  1.00  0.00     0.029 A 
ENDBRANCH  23  26
ENDBRANCH  10  22
TORSDOF 5
ENDMDL
MODEL 3
REMARK VINA RESULT:      -8.5      2.517      4.553
REMARK  5 active torsions:
REMARK  status: ('A' for Active; 'I' for Inactive)
REMARK    1  A    between atoms: C_9  and  C_10 
REMARK    2  A    between atoms: C_11  and  O_12 
REMARK    3  A    between atoms: O_12  and  C_13 
REMARK    4  A    between atoms: C_20  and  C_21 
REMARK       I    between atoms: C_21  and  N_22 
REMARK    5  A    between atoms: N_22  and  C_23 
ROOT
HETATM    1  C   UNL     1      -9.880   1.561 -33.955  1.00  0.00     0.070 C 
HETATM    2  C   UNL     1      -8.876   2.159 -33.003  1.00  0.00     0.037 A 
HETATM    3  N   UNL     1      -9.381   3.088 -32.101  1.00  0.00    -0.192 N 
HETATM    4  C   UNL     1      -8.657   3.607 -31.090  1.00  0.00     0.725 A 
HETATM    5  N   UNL     1      -7.330   3.287 -30.978  1.00  0.00    -0.084 N 
HETATM    6  N   UNL     1      -6.787   3.833 -29.868  1.00  0.00    -0.149 NA
HETATM    7  C   UNL     1      -7.838   4.503 -29.383  1.00  0.00     0.275 A 
HETATM    8  N   UNL     1      -8.999   4.398 -30.105  1.00  0.00    -0.054 NA
HETATM    9  C   UNL     1      -6.622   2.388 -31.897  1.00  0.00     0.205 A 
HETATM   10  C   UNL     1      -7.565   1.814 -32.946  1.00  0.00     0.063 A 
HETATM   11  H   UNL     1     -10.374   3.301 -32.144  1.00  0.00     0.184 HD
ENDROOT
BRANCH   9  12
HETATM   12  C   UNL     1      -5.400   3.090 -32.493  1.00  0.00     0.005 A 
HETATM   13  C   UNL     1      -4.080   2.809 -32.081  1.00  0.00     0.083 A 
HETATM   14  C   UNL     1      -3.009   3.492 -32.668  1.00  0.00     0.037 A 
HETATM   15  C   UNL     1      -3.235   4.436 -33.672  1.00  0.00     0.003 A 
HETATM   16  C   UNL     1      -4.532   4.715 -34.088  1.00  0.00     0.001 A 
HETATM   17  C   UNL     1      -5.606   4.051 -33.501  1.00  0.00     0.012 A 
BRANCH  13  18
HETATM   18  O   UNL     1      -3.935   1.904 -31.065  1.00  0.00    -0.290 OA
BRANCH  18  19
HETATM   19  C   UNL     1      -3.555   0.590 -31.442  1.00  0.00     0.505 C 
HETATM   20  F   UNL     1      -2.426   0.254 -30.767  1.00  0.00    -0.184 F 
HETATM   21  F   UNL     1      -4.525  -0.249 -30.998  1.00  0.00    -0.184 F 
ENDBRANCH  18  19
ENDBRANCH  13  18
ENDBRANCH   9  12
BRANCH  10  22
HETATM   22  C   UNL     1      -6.936   0.795 -33.824  1.00  0.00     0.256 C 
HETATM   23  N   UNL     1      -6.845  -0.445 -33.232  1.00  0.00    -0.323 N 
HETATM   24  H   UNL     1      -7.227  -0.535 -32.299  1.00  0.00     0.169 HD
HETATM   25  O   UNL     1      -6.611   1.118 -34.959  1.00  0.00    -0.267 OA
BRANCH  23  26
HETATM   26  C   UNL     1      -6.284  -1.615 -33.783  1.00  0.00     0.035 A 
HETATM   27  C   UNL     1      -4.913  -1.882 -33.817  1.00  0.00     0.029 A 
HETATM   28  C   UNL     1      -4.436  -3.073 -34.372  1.00  0.00     0.002 A 
HETATM   29  C   UNL     1      -5.324  -4.011 -34.891  1.00  0.00     0.000 A 
HETATM   30  C   UNL     1      -6.692  -3.756 -34.862  1.00  0.00     0.002 A 
HETATM   31  C   UNL     1      -7.169  -2.562 -34.314  1.00  0.00     0.029 A 
ENDBRANCH  23  26
ENDBRANCH  10  22
TORSDOF 5
ENDMDL
MODEL 4
REMARK VINA RESULT:      -7.9      2.434      4.149
REMARK  5 active torsions:
REMARK  status: ('A' for Active; 'I' for Inactive)
REMARK    1  A    between atoms: C_9  and  C_10 
REMARK    2  A    between atoms: C_11  and  O_12 
REMARK    3  A    between atoms: O_12  and  C_13 
REMARK    4  A    between atoms: C_20  and  C_21 
REMARK       I    between atoms: C_21  and  N_22 
REMARK    5  A    between atoms: N_22  and  C_23 
ROOT
HETATM    1  C   UNL     1      -9.876   0.819 -32.431  1.00  0.00     0.070 C 
HETATM    2  C   UNL     1      -8.958   1.765 -31.700  1.00  0.00     0.037 A 
HETATM    3  N   UNL     1      -9.518   2.981 -31.328  1.00  0.00    -0.192 N 
HETATM    4  C   UNL     1      -8.888   3.878 -30.545  1.00  0.00     0.725 A 
HETATM    5  N   UNL     1      -7.597   3.642 -30.156  1.00  0.00    -0.084 N 
HETATM    6  N   UNL     1      -7.156   4.603 -29.314  1.00  0.00    -0.149 NA
HETATM    7  C   UNL     1      -8.225   5.407 -29.277  1.00  0.00     0.275 A 
HETATM    8  N   UNL     1      -9.302   5.004 -30.022  1.00  0.00    -0.054 NA
HETATM    9  C   UNL     1      -6.831   2.447 -30.531  1.00  0.00     0.205 A 
HETATM   10  C   UNL     1      -7.677   1.483 -31.353  1.00  0.00     0.063 A 
HETATM   11  H   UNL     1     -10.491   3.150 -31.571  1.00  0.00     0.184 HD
ENDROOT
BRANCH   9  12
HETATM   12  C   UNL     1      -5.522   2.847 -31.216  1.00  0.00     0.005 A 
HETATM   13  C   UNL     1      -5.464   3.781 -32.272  1.00  0.00     0.083 A 
HETATM   14  C   UNL     1      -4.231   4.097 -32.853  1.00  0.00     0.037 A 
HETATM   15  C   UNL     1      -3.055   3.510 -32.382  1.00  0.00     0.003 A 
HETATM   16  C   UNL     1      -3.101   2.593 -31.339  1.00  0.00     0.001 A 
HETATM   17  C   UNL     1      -4.325   2.261 -30.762  1.00  0.00     0.012 A 
BRANCH  13  18
HETATM   18  O   UNL     1      -6.659   4.285 -32.709  1.00  0.00    -0.290 OA
BRANCH  18  19
HETATM   19  C   UNL     1      -6.999   4.016 -34.060  1.00  0.00     0.505 C 
HETATM   20  F   UNL     1      -6.722   2.715 -34.327  1.00  0.00    -0.184 F 
HETATM   21  F   UNL     1      -8.346   4.145 -34.166  1.00  0.00    -0.184 F 
ENDBRANCH  18  19
ENDBRANCH  13  18
ENDBRANCH   9  12
BRANCH  10  22
HETATM   22  C   UNL     1      -6.999   0.197 -31.651  1.00  0.00     0.256 C 
HETATM   23  N   UNL     1      -6.852  -0.035 -33.001  1.00  0.00    -0.323 N 
HETATM   24  H   UNL     1      -7.189   0.686 -33.628  1.00  0.00     0.169 HD
HETATM   25  O   UNL     1      -6.607  -0.491 -30.718  1.00  0.00    -0.267 OA
BRANCH  23  26
HETATM   26  C   UNL     1      -6.275  -1.164 -33.616  1.00  0.00     0.035 A 
HETATM   27  C   UNL     1      -4.900  -1.399 -33.682  1.00  0.00     0.029 A 
HETATM   28  C   UNL     1      -4.406  -2.552 -34.301  1.00  0.00     0.002 A 
HETATM   29  C   UNL     1      -5.282  -3.482 -34.854  1.00  0.00     0.000 A 
HETATM   30  C   UNL     1      -6.654  -3.259 -34.793  1.00  0.00     0.002 A 
HETATM   31  C   UNL     1      -7.148  -2.103 -34.180  1.00  0.00     0.029 A 
ENDBRANCH  23  26
ENDBRANCH  10  22
TORSDOF 5
ENDMDL
MODEL 5
REMARK VINA RESULT:      -7.8     14.666     16.203
REMARK  5 active torsions:
REMARK  status: ('A' for Active; 'I' for Inactive)
REMARK    1  A    between atoms: C_9  and  C_10 
REMARK    2  A    between atoms: C_11  and  O_12 
REMARK    3  A    between atoms: O_12  and  C_13 
REMARK    4  A    between atoms: C_20  and  C_21 
REMARK       I    between atoms: C_21  and  N_22 
REMARK    5  A    between atoms: N_22  and  C_23 
ROOT
HETATM    1  C   UNL     1      -2.318 -13.662 -37.017  1.00  0.00     0.070 C 
HETATM    2  C   UNL     1      -3.758 -13.652 -36.573  1.00  0.00     0.037 A 
HETATM    3  N   UNL     1      -3.967 -13.775 -35.204  1.00  0.00    -0.192 N 
HETATM    4  C   UNL     1      -5.176 -13.638 -34.625  1.00  0.00     0.725 A 
HETATM    5  N   UNL     1      -6.282 -13.456 -35.411  1.00  0.00    -0.084 N 
HETATM    6  N   UNL     1      -7.389 -13.260 -34.660  1.00  0.00    -0.149 NA
HETATM    7  C   UNL     1      -6.876 -13.380 -33.430  1.00  0.00     0.275 A 
HETATM    8  N   UNL     1      -5.528 -13.620 -33.365  1.00  0.00    -0.054 NA
HETATM    9  C   UNL     1      -6.246 -13.388 -36.876  1.00  0.00     0.205 A 
HETATM   10  C   UNL     1      -4.819 -13.483 -37.400  1.00  0.00     0.063 A 
HETATM   11  H   UNL     1      -3.151 -13.865 -34.605  1.00  0.00     0.184 HD
ENDROOT
BRANCH   9  12
HETATM   12  C   UNL     1      -7.190 -14.430 -37.481  1.00  0.00     0.005 A 
HETATM   13  C   UNL     1      -8.184 -14.104 -38.427  1.00  0.00     0.083 A 
HETATM   14  C   UNL     1      -9.015 -15.109 -38.937  1.00  0.00     0.037 A 
HETATM   15  C   UNL     1      -8.854 -16.435 -38.530  1.00  0.00     0.003 A 
HETATM   16  C   UNL     1      -7.874 -16.766 -37.602  1.00  0.00     0.001 A 
HETATM   17  C   UNL     1      -7.051 -15.772 -37.078  1.00  0.00     0.012 A 
BRANCH  13  18
HETATM   18  O   UNL     1      -8.313 -12.781 -38.749  1.00  0.00    -0.290 OA
BRANCH  18  19
HETATM   19  C   UNL     1      -8.645 -12.490 -40.098  1.00  0.00     0.505 C 
HETATM   20  F   UNL     1      -9.588 -11.514 -40.113  1.00  0.00    -0.184 F 
HETATM   21  F   UNL     1      -7.539 -11.956 -40.675  1.00  0.00    -0.184 F 
ENDBRANCH  18  19
ENDBRANCH  13  18
ENDBRANCH   9  12
BRANCH  10  22
HETATM   22  C   UNL     1      -4.706 -13.288 -38.867  1.00  0.00     0.256 C 
HETATM   23  N   UNL     1      -4.589 -14.472 -39.562  1.00  0.00    -0.323 N 
HETATM   24  H   UNL     1      -4.617 -15.325 -39.017  1.00  0.00     0.169 HD
HETATM   25  O   UNL     1      -4.770 -12.151 -39.316  1.00  0.00    -0.267 OA
BRANCH  23  26
HETATM   26  C   UNL     1      -4.443 -14.635 -40.954  1.00  0.00     0.035 A 
HETATM   27  C   UNL     1      -5.474 -14.438 -41.875  1.00  0.00     0.029 A 
HETATM   28  C   UNL     1      -5.244 -14.610 -43.244  1.00  0.00     0.002 A 
HETATM   29  C   UNL     1      -3.981 -14.973 -43.704  1.00  0.00     0.000 A 
HETATM   30  C   UNL     1      -2.946 -15.171 -42.795  1.00  0.00     0.002 A 
HETATM   31  C   UNL     1      -3.177 -15.007 -41.426  1.00  0.00     0.029 A 
ENDBRANCH  23  26
ENDBRANCH  10  22
TORSDOF 5
ENDMDL
MODEL 6
REMARK VINA RESULT:      -7.7      3.598      5.413
REMARK  5 active torsions:
REMARK  status: ('A' for Active; 'I' for Inactive)
REMARK    1  A    between atoms: C_9  and  C_10 
REMARK    2  A    between atoms: C_11  and  O_12 
REMARK    3  A    between atoms: O_12  and  C_13 
REMARK    4  A    between atoms: C_20  and  C_21 
REMARK       I    between atoms: C_21  and  N_22 
REMARK    5  A    between atoms: N_22  and  C_23 
ROOT
HETATM    1  C   UNL     1      -8.048   2.525 -30.780  1.00  0.00     0.070 C 
HETATM    2  C   UNL     1      -6.934   3.541 -30.810  1.00  0.00     0.037 A 
HETATM    3  N   UNL     1      -7.270   4.814 -30.365  1.00  0.00    -0.192 N 
HETATM    4  C   UNL     1      -6.367   5.798 -30.187  1.00  0.00     0.725 A 
HETATM    5  N   UNL     1      -5.061   5.584 -30.538  1.00  0.00    -0.084 N 
HETATM    6  N   UNL     1      -4.288   6.646 -30.217  1.00  0.00    -0.149 NA
HETATM    7  C   UNL     1      -5.208   7.477 -29.714  1.00  0.00     0.275 A 
HETATM    8  N   UNL     1      -6.492   7.000 -29.685  1.00  0.00    -0.054 NA
HETATM    9  C   UNL     1      -4.557   4.326 -31.101  1.00  0.00     0.205 A 
HETATM   10  C   UNL     1      -5.658   3.276 -31.184  1.00  0.00     0.063 A 
HETATM   11  H   UNL     1      -8.226   4.974 -30.058  1.00  0.00     0.184 HD
ENDROOT
BRANCH   9  12
HETATM   12  C   UNL     1      -3.856   4.583 -32.437  1.00  0.00     0.005 A 
HETATM   13  C   UNL     1      -2.462   4.455 -32.607  1.00  0.00     0.083 A 
HETATM   14  C   UNL     1      -1.888   4.708 -33.858  1.00  0.00     0.037 A 
HETATM   15  C   UNL     1      -2.687   5.069 -34.944  1.00  0.00     0.003 A 
HETATM   16  C   UNL     1      -4.063   5.193 -34.788  1.00  0.00     0.001 A 
HETATM   17  C   UNL     1      -4.643   4.956 -33.544  1.00  0.00     0.012 A 
BRANCH  13  18
HETATM   18  O   UNL     1      -1.736   4.138 -31.491  1.00  0.00    -0.290 OA
BRANCH  18  19
HETATM   19  C   UNL     1      -0.862   5.144 -31.003  1.00  0.00     0.505 C 
HETATM   20  F   UNL     1       0.363   4.963 -31.560  1.00  0.00    -0.184 F 
HETATM   21  F   UNL     1      -1.318   6.332 -31.474  1.00  0.00    -0.184 F 
ENDBRANCH  18  19
ENDBRANCH  13  18
ENDBRANCH   9  12
BRANCH  10  22
HETATM   22  C   UNL     1      -5.180   1.941 -31.622  1.00  0.00     0.256 C 
HETATM   23  N   UNL     1      -5.888   1.439 -32.691  1.00  0.00    -0.323 N 
HETATM   24  H   UNL     1      -6.621   2.027 -33.070  1.00  0.00     0.169 HD
HETATM   25  O   UNL     1      -4.216   1.446 -31.054  1.00  0.00    -0.267 OA
BRANCH  23  26
HETATM   26  C   UNL     1      -5.704   0.196 -33.330  1.00  0.00     0.035 A 
HETATM   27  C   UNL     1      -4.586  -0.619 -33.142  1.00  0.00     0.029 A 
HETATM   28  C   UNL     1      -4.484  -1.846 -33.807  1.00  0.00     0.002 A 
HETATM   29  C   UNL     1      -5.500  -2.270 -34.659  1.00  0.00     0.000 A 
HETATM   30  C   UNL     1      -6.619  -1.466 -34.852  1.00  0.00     0.002 A 
HETATM   31  C   UNL     1      -6.718  -0.237 -34.194  1.00  0.00     0.029 A 
ENDBRANCH  23  26
ENDBRANCH  10  22
TORSDOF 5
ENDMDL
MODEL 7
REMARK VINA RESULT:      -7.6      2.580      5.351
REMARK  5 active torsions:
REMARK  status: ('A' for Active; 'I' for Inactive)
REMARK    1  A    between atoms: C_9  and  C_10 
REMARK    2  A    between atoms: C_11  and  O_12 
REMARK    3  A    between atoms: O_12  and  C_13 
REMARK    4  A    between atoms: C_20  and  C_21 
REMARK       I    between atoms: C_21  and  N_22 
REMARK    5  A    between atoms: N_22  and  C_23 
ROOT
HETATM    1  C   UNL     1      -7.166  -2.282 -34.421  1.00  0.00     0.070 C 
HETATM    2  C   UNL     1      -6.153  -1.416 -33.718  1.00  0.00     0.037 A 
HETATM    3  N   UNL     1      -5.133  -2.095 -33.061  1.00  0.00    -0.192 N 
HETATM    4  C   UNL     1      -4.069  -1.479 -32.509  1.00  0.00     0.725 A 
HETATM    5  N   UNL     1      -4.011  -0.111 -32.504  1.00  0.00    -0.084 N 
HETATM    6  N   UNL     1      -2.843   0.327 -31.984  1.00  0.00    -0.149 NA
HETATM    7  C   UNL     1      -2.267  -0.835 -31.659  1.00  0.00     0.275 A 
HETATM    8  N   UNL     1      -2.987  -1.963 -31.955  1.00  0.00    -0.054 NA
HETATM    9  C   UNL     1      -5.045   0.757 -33.080  1.00  0.00     0.205 A 
HETATM   10  C   UNL     1      -6.152  -0.060 -33.733  1.00  0.00     0.063 A 
HETATM   11  H   UNL     1      -5.139  -3.110 -33.096  1.00  0.00     0.184 HD
ENDROOT
BRANCH   9  12
HETATM   12  C   UNL     1      -5.554   1.747 -32.030  1.00  0.00     0.005 A 
HETATM   13  C   UNL     1      -5.377   3.142 -32.144  1.00  0.00     0.083 A 
HETATM   14  C   UNL     1      -5.867   3.989 -31.144  1.00  0.00     0.037 A 
HETATM   15  C   UNL     1      -6.547   3.465 -30.042  1.00  0.00     0.003 A 
HETATM   16  C   UNL     1      -6.730   2.092 -29.923  1.00  0.00     0.001 A 
HETATM   17  C   UNL     1      -6.235   1.239 -30.907  1.00  0.00     0.012 A 
BRANCH  13  18
HETATM   18  O   UNL     1      -4.667   3.582 -33.228  1.00  0.00    -0.290 OA
BRANCH  18  19
HETATM   19  C   UNL     1      -5.287   4.580 -34.024  1.00  0.00     0.505 C 
HETATM   20  F   UNL     1      -4.520   4.799 -35.121  1.00  0.00    -0.184 F 
HETATM   21  F   UNL     1      -6.456   4.059 -34.478  1.00  0.00    -0.184 F 
ENDBRANCH  18  19
ENDBRANCH  13  18
ENDBRANCH   9  12
BRANCH  10  22
HETATM   22  C   UNL     1      -7.160   0.763 -34.448  1.00  0.00     0.256 C 
HETATM   23  N   UNL     1      -8.267   1.049 -33.679  1.00  0.00    -0.323 N 
HETATM   24  H   UNL     1      -8.264   0.701 -32.728  1.00  0.00     0.169 HD
HETATM   25  O   UNL     1      -6.914   1.136 -35.587  1.00  0.00    -0.267 OA
BRANCH  23  26
HETATM   26  C   UNL     1      -9.406   1.785 -34.062  1.00  0.00     0.035 A 
HETATM   27  C   UNL     1      -9.437   3.177 -34.168  1.00  0.00     0.029 A 
HETATM   28  C   UNL     1     -10.607   3.832 -34.566  1.00  0.00     0.002 A 
HETATM   29  C   UNL     1     -11.753   3.101 -34.867  1.00  0.00     0.000 A 
HETATM   30  C   UNL     1     -11.733   1.714 -34.765  1.00  0.00     0.002 A 
HETATM   31  C   UNL     1     -10.567   1.059 -34.361  1.00  0.00     0.029 A 
ENDBRANCH  23  26
ENDBRANCH  10  22
TORSDOF 5
ENDMDL
MODEL 8
REMARK VINA RESULT:      -7.6     15.031     16.828
REMARK  5 active torsions:
REMARK  status: ('A' for Active; 'I' for Inactive)
REMARK    1  A    between atoms: C_9  and  C_10 
REMARK    2  A    between atoms: C_11  and  O_12 
REMARK    3  A    between atoms: O_12  and  C_13 
REMARK    4  A    between atoms: C_20  and  C_21 
REMARK       I    between atoms: C_21  and  N_22 
REMARK    5  A    between atoms: N_22  and  C_23 
ROOT
HETATM    1  C   UNL     1      -3.795 -12.245 -37.947  1.00  0.00     0.070 C 
HETATM    2  C   UNL     1      -4.625 -12.934 -38.999  1.00  0.00     0.037 A 
HETATM    3  N   UNL     1      -4.104 -12.911 -40.288  1.00  0.00    -0.192 N 
HETATM    4  C   UNL     1      -4.639 -13.600 -41.314  1.00  0.00     0.725 A 
HETATM    5  N   UNL     1      -5.805 -14.293 -41.125  1.00  0.00    -0.084 N 
HETATM    6  N   UNL     1      -6.148 -14.984 -42.235  1.00  0.00    -0.149 NA
HETATM    7  C   UNL     1      -5.163 -14.623 -43.065  1.00  0.00     0.275 A 
HETATM    8  N   UNL     1      -4.224 -13.771 -42.544  1.00  0.00    -0.054 NA
HETATM    9  C   UNL     1      -6.528 -14.351 -39.850  1.00  0.00     0.205 A 
HETATM   10  C   UNL     1      -5.785 -13.595 -38.757  1.00  0.00     0.063 A 
HETATM   11  H   UNL     1      -3.216 -12.438 -40.432  1.00  0.00     0.184 HD
ENDROOT
BRANCH   9  12
HETATM   12  C   UNL     1      -7.975 -13.888 -40.037  1.00  0.00     0.005 A 
HETATM   13  C   UNL     1      -9.067 -14.781 -40.058  1.00  0.00     0.083 A 
HETATM   14  C   UNL     1     -10.365 -14.287 -40.237  1.00  0.00     0.037 A 
HETATM   15  C   UNL     1     -10.588 -12.916 -40.375  1.00  0.00     0.003 A 
HETATM   16  C   UNL     1      -9.519 -12.029 -40.352  1.00  0.00     0.001 A 
HETATM   17  C   UNL     1      -8.222 -12.510 -40.188  1.00  0.00     0.012 A 
BRANCH  13  18
HETATM   18  O   UNL     1      -8.771 -16.113 -39.957  1.00  0.00    -0.290 OA
BRANCH  18  19
HETATM   19  C   UNL     1      -8.893 -16.689 -38.666  1.00  0.00     0.505 C 
HETATM   20  F   UNL     1      -8.922 -15.692 -37.746  1.00  0.00    -0.184 F 
HETATM   21  F   UNL     1     -10.109 -17.289 -38.611  1.00  0.00    -0.184 F 
ENDBRANCH  18  19
ENDBRANCH  13  18
ENDBRANCH   9  12
BRANCH  10  22
HETATM   22  C   UNL     1      -6.400 -13.727 -37.413  1.00  0.00     0.256 C 
HETATM   23  N   UNL     1      -5.942 -14.822 -36.715  1.00  0.00    -0.323 N 
HETATM   24  H   UNL     1      -5.237 -15.390 -37.168  1.00  0.00     0.169 HD
HETATM   25  O   UNL     1      -7.188 -12.868 -37.040  1.00  0.00    -0.267 OA
BRANCH  23  26
HETATM   26  C   UNL     1      -6.338 -15.243 -35.429  1.00  0.00     0.035 A 
HETATM   27  C   UNL     1      -7.088 -16.394 -35.181  1.00  0.00     0.029 A 
HETATM   28  C   UNL     1      -7.431 -16.749 -33.873  1.00  0.00     0.002 A 
HETATM   29  C   UNL     1      -7.023 -15.960 -32.801  1.00  0.00     0.000 A 
HETATM   30  C   UNL     1      -6.274 -14.811 -33.037  1.00  0.00     0.002 A 
HETATM   31  C   UNL     1      -5.937 -14.452 -34.345  1.00  0.00     0.029 A 
ENDBRANCH  23  26
ENDBRANCH  10  22
TORSDOF 5
ENDMDL
MODEL 9
REMARK VINA RESULT:      -7.4      2.597      6.411
REMARK  5 active torsions:
REMARK  status: ('A' for Active; 'I' for Inactive)
REMARK    1  A    between atoms: C_9  and  C_10 
REMARK    2  A    between atoms: C_11  and  O_12 
REMARK    3  A    between atoms: O_12  and  C_13 
REMARK    4  A    between atoms: C_20  and  C_21 
REMARK       I    between atoms: C_21  and  N_22 
REMARK    5  A    between atoms: N_22  and  C_23 
ROOT
HETATM    1  C   UNL     1      -8.440   5.881 -33.477  1.00  0.00     0.070 C 
HETATM    2  C   UNL     1      -8.470   4.379 -33.360  1.00  0.00     0.037 A 
HETATM    3  N   UNL     1      -9.728   3.813 -33.188  1.00  0.00    -0.192 N 
HETATM    4  C   UNL     1      -9.952   2.485 -33.212  1.00  0.00     0.725 A 
HETATM    5  N   UNL     1      -8.891   1.626 -33.322  1.00  0.00    -0.084 N 
HETATM    6  N   UNL     1      -9.308   0.343 -33.410  1.00  0.00    -0.149 NA
HETATM    7  C   UNL     1     -10.632   0.506 -33.303  1.00  0.00     0.275 A 
HETATM    8  N   UNL     1     -11.066   1.800 -33.173  1.00  0.00    -0.054 NA
HETATM    9  C   UNL     1      -7.493   2.057 -33.428  1.00  0.00     0.205 A 
HETATM   10  C   UNL     1      -7.382   3.575 -33.462  1.00  0.00     0.063 A 
HETATM   11  H   UNL     1     -10.529   4.438 -33.150  1.00  0.00     0.184 HD
ENDROOT
BRANCH   9  12
HETATM   12  C   UNL     1      -6.650   1.407 -32.327  1.00  0.00     0.005 A 
HETATM   13  C   UNL     1      -5.628   0.473 -32.597  1.00  0.00     0.083 A 
HETATM   14  C   UNL     1      -4.899  -0.084 -31.540  1.00  0.00     0.037 A 
HETATM   15  C   UNL     1      -5.164   0.293 -30.222  1.00  0.00     0.003 A 
HETATM   16  C   UNL     1      -6.166   1.215 -29.946  1.00  0.00     0.001 A 
HETATM   17  C   UNL     1      -6.907   1.766 -30.990  1.00  0.00     0.012 A 
BRANCH  13  18
HETATM   18  O   UNL     1      -5.451   0.120 -33.907  1.00  0.00    -0.290 OA
BRANCH  18  19
HETATM   19  C   UNL     1      -5.994  -1.130 -34.301  1.00  0.00     0.505 C 
HETATM   20  F   UNL     1      -6.790  -1.592 -33.303  1.00  0.00    -0.184 F 
HETATM   21  F   UNL     1      -6.812  -0.895 -35.358  1.00  0.00    -0.184 F 
ENDBRANCH  18  19
ENDBRANCH  13  18
ENDBRANCH   9  12
BRANCH  10  22
HETATM   22  C   UNL     1      -6.003   4.070 -33.700  1.00  0.00     0.256 C 
HETATM   23  N   UNL     1      -5.348   4.423 -32.541  1.00  0.00    -0.323 N 
HETATM   24  H   UNL     1      -5.852   4.288 -31.672  1.00  0.00     0.169 HD
HETATM   25  O   UNL     1      -5.571   4.078 -34.845  1.00  0.00    -0.267 OA
BRANCH  23  26
HETATM   26  C   UNL     1      -4.045   4.946 -32.421  1.00  0.00     0.035 A 
HETATM   27  C   UNL     1      -2.920   4.175 -32.119  1.00  0.00     0.029 A 
HETATM   28  C   UNL     1      -1.657   4.770 -32.028  1.00  0.00     0.002 A 
HETATM   29  C   UNL     1      -1.507   6.136 -32.244  1.00  0.00     0.000 A 
HETATM   30  C   UNL     1      -2.622   6.914 -32.546  1.00  0.00     0.002 A 
HETATM   31  C   UNL     1      -3.885   6.322 -32.629  1.00  0.00     0.029 A 
ENDBRANCH  23  26
ENDBRANCH  10  22
TORSDOF 5
ENDMDL
MODEL 10
REMARK VINA RESULT:      -7.3      3.145      5.006
REMARK  5 active torsions:
REMARK  status: ('A' for Active; 'I' for Inactive)
REMARK    1  A    between atoms: C_9  and  C_10 
REMARK    2  A    between atoms: C_11  and  O_12 
REMARK    3  A    between atoms: O_12  and  C_13 
REMARK    4  A    between atoms: C_20  and  C_21 
REMARK       I    between atoms: C_21  and  N_22 
REMARK    5  A    between atoms: N_22  and  C_23 
ROOT
HETATM    1  C   UNL     1     -10.485   0.853 -33.621  1.00  0.00     0.070 C 
HETATM    2  C   UNL     1      -9.810   2.060 -33.022  1.00  0.00     0.037 A 
HETATM    3  N   UNL     1     -10.559   3.231 -33.023  1.00  0.00    -0.192 N 
HETATM    4  C   UNL     1     -10.170   4.359 -32.399  1.00  0.00     0.725 A 
HETATM    5  N   UNL     1      -8.939   4.408 -31.802  1.00  0.00    -0.084 N 
HETATM    6  N   UNL     1      -8.752   5.583 -31.161  1.00  0.00    -0.149 NA
HETATM    7  C   UNL     1      -9.898   6.208 -31.453  1.00  0.00     0.275 A 
HETATM    8  N   UNL     1     -10.789   5.497 -32.214  1.00  0.00    -0.054 NA
HETATM    9  C   UNL     1      -7.991   3.288 -31.783  1.00  0.00     0.205 A 
HETATM   10  C   UNL     1      -8.578   2.054 -32.456  1.00  0.00     0.063 A 
HETATM   11  H   UNL     1     -11.493   3.196 -33.423  1.00  0.00     0.184 HD
ENDROOT
BRANCH   9  12
HETATM   12  C   UNL     1      -6.644   3.721 -32.368  1.00  0.00     0.005 A 
HETATM   13  C   UNL     1      -5.459   3.769 -31.604  1.00  0.00     0.083 A 
HETATM   14  C   UNL     1      -4.262   4.178 -32.204  1.00  0.00     0.037 A 
HETATM   15  C   UNL     1      -4.229   4.519 -33.558  1.00  0.00     0.003 A 
HETATM   16  C   UNL     1      -5.391   4.470 -34.319  1.00  0.00     0.001 A 
HETATM   17  C   UNL     1      -6.590   4.077 -33.729  1.00  0.00     0.012 A 
BRANCH  13  18
HETATM   18  O   UNL     1      -5.573   3.461 -30.276  1.00  0.00    -0.290 OA
BRANCH  18  19
HETATM   19  C   UNL     1      -5.708   4.557 -29.385  1.00  0.00     0.505 C 
HETATM   20  F   UNL     1      -5.736   5.705 -30.109  1.00  0.00    -0.184 F 
HETATM   21  F   UNL     1      -6.928   4.449 -28.801  1.00  0.00    -0.184 F 
ENDBRANCH  18  19
ENDBRANCH  13  18
ENDBRANCH   9  12
BRANCH  10  22
HETATM   22  C   UNL     1      -7.717   0.849 -32.353  1.00  0.00     0.256 C 
HETATM   23  N   UNL     1      -7.169   0.472 -33.559  1.00  0.00    -0.323 N 
HETATM   24  H   UNL     1      -7.385   1.053 -34.360  1.00  0.00     0.169 HD
HETATM   25  O   UNL     1      -7.539   0.346 -31.251  1.00  0.00    -0.267 OA
BRANCH  23  26
HETATM   26  C   UNL     1      -6.330  -0.633 -33.808  1.00  0.00     0.035 A 
HETATM   27  C   UNL     1      -4.992  -0.700 -33.415  1.00  0.00     0.029 A 
HETATM   28  C   UNL     1      -4.228  -1.839 -33.691  1.00  0.00     0.002 A 
HETATM   29  C   UNL     1      -4.797  -2.921 -34.356  1.00  0.00     0.000 A 
HETATM   30  C   UNL     1      -6.130  -2.865 -34.751  1.00  0.00     0.002 A 
HETATM   31  C   UNL     1      -6.891  -1.725 -34.482  1.00  0.00     0.029 A 
ENDBRANCH  23  26
ENDBRANCH  10  22
TORSDOF 5
ENDMDL
