MODEL 1
REMARK VINA RESULT:     -10.7      0.000      0.000
REMARK  4 active torsions:
REMARK  status: ('A' for Active; 'I' for Inactive)
REMARK    1  A    between atoms: C_2  and  C_3 
REMARK    2  A    between atoms: N_16  and  C_17 
REMARK    3  A    between atoms: C_17  and  C_18 
REMARK       I    between atoms: C_18  and  N_19 
REMARK    4  A    between atoms: N_19  and  C_20 
ROOT
HETATM    1  C   UNL     1      -5.499   1.910 -31.316  1.00  0.00     0.054 C 
HETATM    2  C   UNL     1      -6.421   1.811 -32.535  1.00  0.00     0.140 A 
HETATM    3  N   UNL     1      -6.110   2.894 -33.445  1.00  0.00    -0.321 N 
HETATM    4  C   UNL     1      -7.108   3.834 -33.523  1.00  0.00     0.326 A 
HETATM    5  O   UNL     1      -7.029   4.848 -34.191  1.00  0.00    -0.247 OA
HETATM    6  N   UNL     1      -8.138   3.440 -32.732  1.00  0.00    -0.259 N 
HETATM    7  C   UNL     1      -7.854   2.244 -32.138  1.00  0.00     0.261 A 
HETATM    8  O   UNL     1      -8.632   1.633 -31.413  1.00  0.00    -0.270 OA
HETATM    9  H   UNL     1      -5.234   3.022 -33.932  1.00  0.00     0.165 HD
ENDROOT
BRANCH   6  10
HETATM   10  C   UNL     1      -9.370   4.183 -32.567  1.00  0.00     0.240 C 
BRANCH  10  11
HETATM   11  C   UNL     1     -10.501   3.546 -33.375  1.00  0.00     0.240 C 
HETATM   12  N   UNL     1     -11.374   2.791 -32.604  1.00  0.00    -0.325 N 
HETATM   13  H   UNL     1     -11.245   2.850 -31.598  1.00  0.00     0.169 HD
HETATM   14  O   UNL     1     -10.643   3.814 -34.565  1.00  0.00    -0.271 OA
BRANCH  12  15
HETATM   15  C   UNL     1     -12.480   2.025 -33.058  1.00  0.00     0.047 A 
HETATM   16  C   UNL     1     -13.811   2.420 -32.714  1.00  0.00     0.019 A 
HETATM   17  C   UNL     1     -14.903   1.629 -33.151  1.00  0.00     0.069 A 
HETATM   18  C   UNL     1     -14.154   3.578 -31.972  1.00  0.00     0.017 A 
HETATM   19  N   UNL     1     -16.188   1.929 -32.891  1.00  0.00    -0.260 NA
HETATM   20  C   UNL     1     -14.658   0.487 -33.894  1.00  0.00     0.032 A 
HETATM   21  C   UNL     1     -16.456   3.042 -32.183  1.00  0.00     0.117 A 
HETATM   22  C   UNL     1     -15.484   3.892 -31.706  1.00  0.00     0.020 A 
HETATM   23  C   UNL     1     -13.366   0.095 -34.228  1.00  0.00     0.005 A 
HETATM   24  C   UNL     1     -12.283   0.862 -33.812  1.00  0.00     0.030 A 
ENDBRANCH  12  15
ENDBRANCH  10  11
ENDBRANCH   6  10
BRANCH   2  25
HETATM   25  C   UNL     1      -6.397   0.438 -33.196  1.00  0.00    -0.020 A 
HETATM   26  C   UNL     1      -5.304  -0.441 -33.070  1.00  0.00     0.022 A 
HETATM   27  C   UNL     1      -5.300  -1.715 -33.670  1.00  0.00    -0.025 A 
HETATM   28  C   UNL     1      -6.417  -2.126 -34.429  1.00  0.00    -0.026 A 
HETATM   29  C   UNL     1      -4.210  -2.591 -33.530  1.00  0.00     0.012 A 
HETATM   30  C   UNL     1      -7.499  -1.251 -34.576  1.00  0.00     0.013 A 
HETATM   31  C   UNL     1      -6.418  -3.398 -35.023  1.00  0.00     0.012 A 
HETATM   32  C   UNL     1      -7.487   0.011 -33.973  1.00  0.00     0.011 A 
HETATM   33  C   UNL     1      -5.329  -4.257 -34.871  1.00  0.00     0.001 A 
HETATM   34  C   UNL     1      -4.225  -3.853 -34.126  1.00  0.00     0.001 A 
ENDBRANCH   2  25
TORSDOF 4
ENDMDL
MODEL 2
REMARK VINA RESULT:     -10.5      4.435      8.126
REMARK  4 active torsions:
REMARK  status: ('A' for Active; 'I' for Inactive)
REMARK    1  A    between atoms: C_2  and  C_3 
REMARK    2  A    between atoms: N_16  and  C_17 
REMARK    3  A    between atoms: C_17  and  C_18 
REMARK       I    between atoms: C_18  and  N_19 
REMARK    4  A    between atoms: N_19  and  C_20 
ROOT
HETATM    1  C   UNL     1      -6.708   1.982 -34.624  1.00  0.00     0.054 C 
HETATM    2  C   UNL     1      -6.566   1.089 -33.388  1.00  0.00     0.140 A 
HETATM    3  N   UNL     1      -7.754   1.232 -32.570  1.00  0.00    -0.321 N 
HETATM    4  C   UNL     1      -7.515   1.881 -31.384  1.00  0.00     0.326 A 
HETATM    5  O   UNL     1      -8.384   2.147 -30.574  1.00  0.00    -0.247 OA
HETATM    6  N   UNL     1      -6.192   2.171 -31.307  1.00  0.00    -0.259 N 
HETATM    7  C   UNL     1      -5.537   1.713 -32.413  1.00  0.00     0.261 A 
HETATM    8  O   UNL     1      -4.324   1.794 -32.579  1.00  0.00    -0.270 OA
HETATM    9  H   UNL     1      -8.691   0.965 -32.839  1.00  0.00     0.165 HD
ENDROOT
BRANCH   6  10
HETATM   10  C   UNL     1      -5.570   2.852 -30.190  1.00  0.00     0.240 C 
BRANCH  10  11
HETATM   11  C   UNL     1      -5.182   4.281 -30.571  1.00  0.00     0.240 C 
HETATM   12  N   UNL     1      -3.817   4.455 -30.750  1.00  0.00    -0.325 N 
HETATM   13  H   UNL     1      -3.255   3.608 -30.737  1.00  0.00     0.169 HD
HETATM   14  O   UNL     1      -6.049   5.120 -30.802  1.00  0.00    -0.271 OA
BRANCH  12  15
HETATM   15  C   UNL     1      -3.135   5.665 -31.039  1.00  0.00     0.047 A 
HETATM   16  C   UNL     1      -2.440   5.812 -32.282  1.00  0.00     0.019 A 
HETATM   17  C   UNL     1      -1.740   7.016 -32.545  1.00  0.00     0.069 A 
HETATM   18  C   UNL     1      -2.404   4.846 -33.317  1.00  0.00     0.017 A 
HETATM   19  N   UNL     1      -1.073   7.253 -33.689  1.00  0.00    -0.260 NA
HETATM   20  C   UNL     1      -1.736   8.020 -31.592  1.00  0.00     0.032 A 
HETATM   21  C   UNL     1      -1.073   6.299 -34.640  1.00  0.00     0.117 A 
HETATM   22  C   UNL     1      -1.718   5.090 -34.504  1.00  0.00     0.020 A 
HETATM   23  C   UNL     1      -2.405   7.881 -30.381  1.00  0.00     0.005 A 
HETATM   24  C   UNL     1      -3.102   6.709 -30.108  1.00  0.00     0.030 A 
ENDBRANCH  12  15
ENDBRANCH  10  11
ENDBRANCH   6  10
BRANCH   2  25
HETATM   25  C   UNL     1      -6.235  -0.359 -33.727  1.00  0.00    -0.020 A 
HETATM   26  C   UNL     1      -5.112  -1.020 -33.193  1.00  0.00     0.022 A 
HETATM   27  C   UNL     1      -4.826  -2.365 -33.499  1.00  0.00    -0.025 A 
HETATM   28  C   UNL     1      -5.678  -3.073 -34.372  1.00  0.00    -0.026 A 
HETATM   29  C   UNL     1      -3.709  -3.021 -32.953  1.00  0.00     0.012 A 
HETATM   30  C   UNL     1      -6.785  -2.417 -34.923  1.00  0.00     0.013 A 
HETATM   31  C   UNL     1      -5.399  -4.415 -34.674  1.00  0.00     0.012 A 
HETATM   32  C   UNL     1      -7.056  -1.081 -34.608  1.00  0.00     0.011 A 
HETATM   33  C   UNL     1      -4.288  -5.053 -34.120  1.00  0.00     0.001 A 
HETATM   34  C   UNL     1      -3.443  -4.356 -33.261  1.00  0.00     0.001 A 
ENDBRANCH   2  25
TORSDOF 4
ENDMDL
MODEL 3
REMARK VINA RESULT:     -10.5      2.776      4.013
REMARK  4 active torsions:
REMARK  status: ('A' for Active; 'I' for Inactive)
REMARK    1  A    between atoms: C_2  and  C_3 
REMARK    2  A    between atoms: N_16  and  C_17 
REMARK    3  A    between atoms: C_17  and  C_18 
REMARK       I    between atoms: C_18  and  N_19 
REMARK    4  A    between atoms: N_19  and  C_20 
ROOT
HETATM    1  C   UNL     1      -2.691  -0.055 -31.182  1.00  0.00     0.054 C 
HETATM    2  C   UNL     1      -3.903   0.520 -31.921  1.00  0.00     0.140 A 
HETATM    3  N   UNL     1      -3.481   1.682 -32.676  1.00  0.00    -0.321 N 
HETATM    4  C   UNL     1      -3.987   2.858 -32.179  1.00  0.00     0.326 A 
HETATM    5  O   UNL     1      -3.719   3.955 -32.634  1.00  0.00    -0.247 OA
HETATM    6  N   UNL     1      -4.788   2.573 -31.121  1.00  0.00    -0.259 N 
HETATM    7  C   UNL     1      -4.840   1.226 -30.911  1.00  0.00     0.261 A 
HETATM    8  O   UNL     1      -5.531   0.689 -30.051  1.00  0.00    -0.270 OA
HETATM    9  H   UNL     1      -2.826   1.681 -33.445  1.00  0.00     0.165 HD
ENDROOT
BRANCH   6  10
HETATM   10  C   UNL     1      -5.500   3.568 -30.346  1.00  0.00     0.240 C 
BRANCH  10  11
HETATM   11  C   UNL     1      -6.921   3.758 -30.878  1.00  0.00     0.240 C 
HETATM   12  N   UNL     1      -7.010   3.666 -32.260  1.00  0.00    -0.325 N 
HETATM   13  H   UNL     1      -6.169   3.360 -32.741  1.00  0.00     0.169 HD
HETATM   14  O   UNL     1      -7.868   3.857 -30.102  1.00  0.00    -0.271 OA
BRANCH  12  15
HETATM   15  C   UNL     1      -8.166   3.860 -33.062  1.00  0.00     0.047 A 
HETATM   16  C   UNL     1      -9.091   2.784 -33.250  1.00  0.00     0.019 A 
HETATM   17  C   UNL     1     -10.225   2.984 -34.075  1.00  0.00     0.069 A 
HETATM   18  C   UNL     1      -8.990   1.505 -32.650  1.00  0.00     0.017 A 
HETATM   19  N   UNL     1     -11.157   2.040 -34.299  1.00  0.00    -0.260 NA
HETATM   20  C   UNL     1     -10.410   4.211 -34.689  1.00  0.00     0.032 A 
HETATM   21  C   UNL     1     -11.011   0.841 -33.702  1.00  0.00     0.117 A 
HETATM   22  C   UNL     1      -9.955   0.527 -32.876  1.00  0.00     0.020 A 
HETATM   23  C   UNL     1      -9.511   5.258 -34.514  1.00  0.00     0.005 A 
HETATM   24  C   UNL     1      -8.396   5.082 -33.703  1.00  0.00     0.030 A 
ENDBRANCH  12  15
ENDBRANCH  10  11
ENDBRANCH   6  10
BRANCH   2  25
HETATM   25  C   UNL     1      -4.639  -0.515 -32.764  1.00  0.00    -0.020 A 
HETATM   26  C   UNL     1      -4.114  -1.798 -33.010  1.00  0.00     0.022 A 
HETATM   27  C   UNL     1      -4.812  -2.753 -33.775  1.00  0.00    -0.025 A 
HETATM   28  C   UNL     1      -6.069  -2.418 -34.321  1.00  0.00    -0.026 A 
HETATM   29  C   UNL     1      -4.286  -4.036 -34.006  1.00  0.00     0.012 A 
HETATM   30  C   UNL     1      -6.589  -1.138 -34.098  1.00  0.00     0.013 A 
HETATM   31  C   UNL     1      -6.769  -3.371 -35.078  1.00  0.00     0.012 A 
HETATM   32  C   UNL     1      -5.883  -0.201 -33.335  1.00  0.00     0.011 A 
HETATM   33  C   UNL     1      -6.235  -4.641 -35.295  1.00  0.00     0.001 A 
HETATM   34  C   UNL     1      -4.993  -4.973 -34.761  1.00  0.00     0.001 A 
ENDBRANCH   2  25
TORSDOF 4
ENDMDL
MODEL 4
REMARK VINA RESULT:     -10.3      3.528      7.743
REMARK  4 active torsions:
REMARK  status: ('A' for Active; 'I' for Inactive)
REMARK    1  A    between atoms: C_2  and  C_3 
REMARK    2  A    between atoms: N_16  and  C_17 
REMARK    3  A    between atoms: C_17  and  C_18 
REMARK       I    between atoms: C_18  and  N_19 
REMARK    4  A    between atoms: N_19  and  C_20 
ROOT
HETATM    1  C   UNL     1      -9.274   0.883 -34.229  1.00  0.00     0.054 C 
HETATM    2  C   UNL     1      -8.108   1.018 -33.246  1.00  0.00     0.140 A 
HETATM    3  N   UNL     1      -8.640   1.143 -31.904  1.00  0.00    -0.321 N 
HETATM    4  C   UNL     1      -8.450   2.391 -31.365  1.00  0.00     0.326 A 
HETATM    5  O   UNL     1      -8.863   2.722 -30.268  1.00  0.00    -0.247 OA
HETATM    6  N   UNL     1      -7.765   3.150 -32.257  1.00  0.00    -0.259 N 
HETATM    7  C   UNL     1      -7.479   2.427 -33.378  1.00  0.00     0.261 A 
HETATM    8  O   UNL     1      -6.822   2.853 -34.323  1.00  0.00    -0.270 OA
HETATM    9  H   UNL     1      -9.168   0.436 -31.412  1.00  0.00     0.165 HD
ENDROOT
BRANCH   6  10
HETATM   10  C   UNL     1      -7.379   4.527 -32.028  1.00  0.00     0.240 C 
BRANCH  10  11
HETATM   11  C   UNL     1      -5.858   4.679 -32.064  1.00  0.00     0.240 C 
HETATM   12  N   UNL     1      -5.403   5.436 -33.136  1.00  0.00    -0.325 N 
HETATM   13  H   UNL     1      -6.118   5.902 -33.687  1.00  0.00     0.169 HD
HETATM   14  O   UNL     1      -5.168   4.255 -31.141  1.00  0.00    -0.271 OA
BRANCH  12  15
HETATM   15  C   UNL     1      -4.054   5.704 -33.486  1.00  0.00     0.047 A 
HETATM   16  C   UNL     1      -3.338   6.749 -32.820  1.00  0.00     0.019 A 
HETATM   17  C   UNL     1      -2.002   7.025 -33.200  1.00  0.00     0.069 A 
HETATM   18  C   UNL     1      -3.849   7.545 -31.765  1.00  0.00     0.017 A 
HETATM   19  N   UNL     1      -1.245   7.975 -32.622  1.00  0.00    -0.260 NA
HETATM   20  C   UNL     1      -1.419   6.284 -34.214  1.00  0.00     0.032 A 
HETATM   21  C   UNL     1      -1.782   8.701 -31.622  1.00  0.00     0.117 A 
HETATM   22  C   UNL     1      -3.067   8.526 -31.161  1.00  0.00     0.020 A 
HETATM   23  C   UNL     1      -2.110   5.270 -34.869  1.00  0.00     0.005 A 
HETATM   24  C   UNL     1      -3.421   4.982 -34.505  1.00  0.00     0.030 A 
ENDBRANCH  12  15
ENDBRANCH  10  11
ENDBRANCH   6  10
BRANCH   2  25
HETATM   25  C   UNL     1      -7.072  -0.090 -33.386  1.00  0.00    -0.020 A 
HETATM   26  C   UNL     1      -7.361  -1.318 -34.012  1.00  0.00     0.022 A 
HETATM   27  C   UNL     1      -6.391  -2.328 -34.153  1.00  0.00    -0.025 A 
HETATM   28  C   UNL     1      -5.091  -2.115 -33.647  1.00  0.00    -0.026 A 
HETATM   29  C   UNL     1      -6.685  -3.547 -34.788  1.00  0.00     0.012 A 
HETATM   30  C   UNL     1      -4.800  -0.905 -33.006  1.00  0.00     0.013 A 
HETATM   31  C   UNL     1      -4.119  -3.119 -33.792  1.00  0.00     0.012 A 
HETATM   32  C   UNL     1      -5.775   0.088 -32.875  1.00  0.00     0.011 A 
HETATM   33  C   UNL     1      -4.427  -4.321 -34.429  1.00  0.00     0.001 A 
HETATM   34  C   UNL     1      -5.709  -4.536 -34.926  1.00  0.00     0.001 A 
ENDBRANCH   2  25
TORSDOF 4
ENDMDL
MODEL 5
REMARK VINA RESULT:     -10.3      2.973      6.817
REMARK  4 active torsions:
REMARK  status: ('A' for Active; 'I' for Inactive)
REMARK    1  A    between atoms: C_2  and  C_3 
REMARK    2  A    between atoms: N_16  and  C_17 
REMARK    3  A    between atoms: C_17  and  C_18 
REMARK       I    between atoms: C_18  and  N_19 
REMARK    4  A    between atoms: N_19  and  C_20 
ROOT
HETATM    1  C   UNL     1     -10.476  -0.109 -32.799  1.00  0.00     0.054 C 
HETATM    2  C   UNL     1      -9.207   0.711 -32.544  1.00  0.00     0.140 A 
HETATM    3  N   UNL     1      -9.265   1.255 -31.203  1.00  0.00    -0.321 N 
HETATM    4  C   UNL     1      -9.424   2.619 -31.183  1.00  0.00     0.326 A 
HETATM    5  O   UNL     1      -9.545   3.269 -30.161  1.00  0.00    -0.247 OA
HETATM    6  N   UNL     1      -9.441   3.073 -32.462  1.00  0.00    -0.259 N 
HETATM    7  C   UNL     1      -9.280   2.038 -33.338  1.00  0.00     0.261 A 
HETATM    8  O   UNL     1      -9.205   2.172 -34.555  1.00  0.00    -0.270 OA
HETATM    9  H   UNL     1      -9.269   0.717 -30.348  1.00  0.00     0.165 HD
ENDROOT
BRANCH   6  10
HETATM   10  C   UNL     1      -9.588   4.465 -32.831  1.00  0.00     0.240 C 
BRANCH  10  11
HETATM   11  C   UNL     1      -8.221   5.126 -33.015  1.00  0.00     0.240 C 
HETATM   12  N   UNL     1      -7.511   5.267 -31.830  1.00  0.00    -0.325 N 
HETATM   13  H   UNL     1      -7.910   4.809 -31.015  1.00  0.00     0.169 HD
HETATM   14  O   UNL     1      -7.796   5.375 -34.140  1.00  0.00    -0.271 OA
BRANCH  12  15
HETATM   15  C   UNL     1      -6.251   5.895 -31.652  1.00  0.00     0.047 A 
HETATM   16  C   UNL     1      -5.055   5.110 -31.665  1.00  0.00     0.019 A 
HETATM   17  C   UNL     1      -3.806   5.746 -31.458  1.00  0.00     0.069 A 
HETATM   18  C   UNL     1      -4.997   3.713 -31.895  1.00  0.00     0.017 A 
HETATM   19  N   UNL     1      -2.629   5.096 -31.469  1.00  0.00    -0.260 NA
HETATM   20  C   UNL     1      -3.770   7.113 -31.240  1.00  0.00     0.032 A 
HETATM   21  C   UNL     1      -2.633   3.768 -31.694  1.00  0.00     0.117 A 
HETATM   22  C   UNL     1      -3.779   3.037 -31.912  1.00  0.00     0.020 A 
HETATM   23  C   UNL     1      -4.930   7.882 -31.222  1.00  0.00     0.005 A 
HETATM   24  C   UNL     1      -6.163   7.274 -31.429  1.00  0.00     0.030 A 
ENDBRANCH  12  15
ENDBRANCH  10  11
ENDBRANCH   6  10
BRANCH   2  25
HETATM   25  C   UNL     1      -7.926  -0.062 -32.830  1.00  0.00    -0.020 A 
HETATM   26  C   UNL     1      -7.899  -1.200 -33.659  1.00  0.00     0.022 A 
HETATM   27  C   UNL     1      -6.705  -1.895 -33.930  1.00  0.00    -0.025 A 
HETATM   28  C   UNL     1      -5.498  -1.450 -33.351  1.00  0.00    -0.026 A 
HETATM   29  C   UNL     1      -6.686  -3.024 -34.768  1.00  0.00     0.012 A 
HETATM   30  C   UNL     1      -5.518  -0.332 -32.510  1.00  0.00     0.013 A 
HETATM   31  C   UNL     1      -4.305  -2.138 -33.626  1.00  0.00     0.012 A 
HETATM   32  C   UNL     1      -6.713   0.348 -32.251  1.00  0.00     0.011 A 
HETATM   33  C   UNL     1      -4.303  -3.254 -34.463  1.00  0.00     0.001 A 
HETATM   34  C   UNL     1      -5.493  -3.697 -35.033  1.00  0.00     0.001 A 
ENDBRANCH   2  25
TORSDOF 4
ENDMDL
MODEL 6
REMARK VINA RESULT:     -10.2      2.810      8.903
REMARK  4 active torsions:
REMARK  status: ('A' for Active; 'I' for Inactive)
REMARK    1  A    between atoms: C_2  and  C_3 
REMARK    2  A    between atoms: N_16  and  C_17 
REMARK    3  A    between atoms: C_17  and  C_18 
REMARK       I    between atoms: C_18  and  N_19 
REMARK    4  A    between atoms: N_19  and  C_20 
ROOT
HETATM    1  C   UNL     1     -10.799   0.385 -33.307  1.00  0.00     0.054 C 
HETATM    2  C   UNL     1      -9.941   1.519 -33.877  1.00  0.00     0.140 A 
HETATM    3  N   UNL     1      -9.163   1.005 -34.985  1.00  0.00    -0.321 N 
HETATM    4  C   UNL     1      -7.819   0.938 -34.713  1.00  0.00     0.326 A 
HETATM    5  O   UNL     1      -6.995   0.490 -35.489  1.00  0.00    -0.247 OA
HETATM    6  N   UNL     1      -7.605   1.424 -33.464  1.00  0.00    -0.259 N 
HETATM    7  C   UNL     1      -8.780   1.831 -32.901  1.00  0.00     0.261 A 
HETATM    8  O   UNL     1      -8.869   2.358 -31.798  1.00  0.00    -0.270 OA
HETATM    9  H   UNL     1      -9.537   0.651 -35.855  1.00  0.00     0.165 HD
ENDROOT
BRANCH   6  10
HETATM   10  C   UNL     1      -6.302   1.514 -32.837  1.00  0.00     0.240 C 
BRANCH  10  11
HETATM   11  C   UNL     1      -5.841   0.143 -32.340  1.00  0.00     0.240 C 
HETATM   12  N   UNL     1      -4.975  -0.499 -33.214  1.00  0.00    -0.325 N 
HETATM   13  H   UNL     1      -4.648   0.053 -34.003  1.00  0.00     0.169 HD
HETATM   14  O   UNL     1      -6.143  -0.245 -31.214  1.00  0.00    -0.271 OA
BRANCH  12  15
HETATM   15  C   UNL     1      -4.424  -1.800 -33.078  1.00  0.00     0.047 A 
HETATM   16  C   UNL     1      -4.950  -2.881 -33.854  1.00  0.00     0.019 A 
HETATM   17  C   UNL     1      -4.410  -4.181 -33.686  1.00  0.00     0.069 A 
HETATM   18  C   UNL     1      -5.978  -2.768 -34.822  1.00  0.00     0.017 A 
HETATM   19  N   UNL     1      -4.827  -5.254 -34.381  1.00  0.00    -0.260 NA
HETATM   20  C   UNL     1      -3.391  -4.378 -32.770  1.00  0.00     0.032 A 
HETATM   21  C   UNL     1      -5.807  -5.088 -35.290  1.00  0.00     0.117 A 
HETATM   22  C   UNL     1      -6.408  -3.877 -35.546  1.00  0.00     0.020 A 
HETATM   23  C   UNL     1      -2.879  -3.332 -32.009  1.00  0.00     0.005 A 
HETATM   24  C   UNL     1      -3.393  -2.049 -32.165  1.00  0.00     0.030 A 
ENDBRANCH  12  15
ENDBRANCH  10  11
ENDBRANCH   6  10
BRANCH   2  25
HETATM   25  C   UNL     1     -10.748   2.763 -34.228  1.00  0.00    -0.020 A 
HETATM   26  C   UNL     1     -10.143   3.950 -34.684  1.00  0.00     0.022 A 
HETATM   27  C   UNL     1     -10.900   5.088 -35.024  1.00  0.00    -0.025 A 
HETATM   28  C   UNL     1     -12.305   5.048 -34.897  1.00  0.00    -0.026 A 
HETATM   29  C   UNL     1     -10.289   6.265 -35.489  1.00  0.00     0.012 A 
HETATM   30  C   UNL     1     -12.913   3.879 -34.426  1.00  0.00     0.013 A 
HETATM   31  C   UNL     1     -13.062   6.179 -35.242  1.00  0.00     0.012 A 
HETATM   32  C   UNL     1     -12.146   2.757 -34.093  1.00  0.00     0.011 A 
HETATM   33  C   UNL     1     -12.440   7.339 -35.706  1.00  0.00     0.001 A 
HETATM   34  C   UNL     1     -11.054   7.382 -35.828  1.00  0.00     0.001 A 
ENDBRANCH   2  25
TORSDOF 4
ENDMDL
MODEL 7
REMARK VINA RESULT:     -10.2      2.200      2.624
REMARK  4 active torsions:
REMARK  status: ('A' for Active; 'I' for Inactive)
REMARK    1  A    between atoms: C_2  and  C_3 
REMARK    2  A    between atoms: N_16  and  C_17 
REMARK    3  A    between atoms: C_17  and  C_18 
REMARK       I    between atoms: C_18  and  N_19 
REMARK    4  A    between atoms: N_19  and  C_20 
ROOT
HETATM    1  C   UNL     1      -3.651   1.126 -31.822  1.00  0.00     0.054 C 
HETATM    2  C   UNL     1      -5.064   1.074 -32.411  1.00  0.00     0.140 A 
HETATM    3  N   UNL     1      -5.268   2.247 -33.237  1.00  0.00    -0.321 N 
HETATM    4  C   UNL     1      -6.175   3.129 -32.703  1.00  0.00     0.326 A 
HETATM    5  O   UNL     1      -6.456   4.199 -33.212  1.00  0.00    -0.247 OA
HETATM    6  N   UNL     1      -6.656   2.609 -31.545  1.00  0.00    -0.259 N 
HETATM    7  C   UNL     1      -6.099   1.386 -31.303  1.00  0.00     0.261 A 
HETATM    8  O   UNL     1      -6.395   0.671 -30.351  1.00  0.00    -0.270 OA
HETATM    9  H   UNL     1      -4.762   2.468 -34.084  1.00  0.00     0.165 HD
ENDROOT
BRANCH   6  10
HETATM   10  C   UNL     1      -7.640   3.260 -30.706  1.00  0.00     0.240 C 
BRANCH  10  11
HETATM   11  C   UNL     1      -9.058   2.916 -31.162  1.00  0.00     0.240 C 
HETATM   12  N   UNL     1      -9.121   2.445 -32.466  1.00  0.00    -0.325 N 
HETATM   13  H   UNL     1      -8.228   2.262 -32.916  1.00  0.00     0.169 HD
HETATM   14  O   UNL     1      -9.994   2.956 -30.367  1.00  0.00    -0.271 OA
BRANCH  12  15
HETATM   15  C   UNL     1     -10.286   2.105 -33.202  1.00  0.00     0.047 A 
HETATM   16  C   UNL     1     -10.913   3.084 -34.037  1.00  0.00     0.019 A 
HETATM   17  C   UNL     1     -12.091   2.738 -34.744  1.00  0.00     0.069 A 
HETATM   18  C   UNL     1     -10.438   4.402 -34.249  1.00  0.00     0.017 A 
HETATM   19  N   UNL     1     -12.741   3.583 -35.564  1.00  0.00    -0.260 NA
HETATM   20  C   UNL     1     -12.616   1.464 -34.606  1.00  0.00     0.032 A 
HETATM   21  C   UNL     1     -12.244   4.824 -35.729  1.00  0.00     0.117 A 
HETATM   22  C   UNL     1     -11.106   5.277 -35.101  1.00  0.00     0.020 A 
HETATM   23  C   UNL     1     -12.014   0.510 -33.792  1.00  0.00     0.005 A 
HETATM   24  C   UNL     1     -10.853   0.830 -33.095  1.00  0.00     0.030 A 
ENDBRANCH  12  15
ENDBRANCH  10  11
ENDBRANCH   6  10
BRANCH   2  25
HETATM   25  C   UNL     1      -5.367  -0.234 -33.131  1.00  0.00    -0.020 A 
HETATM   26  C   UNL     1      -4.529  -1.362 -33.031  1.00  0.00     0.022 A 
HETATM   27  C   UNL     1      -4.829  -2.571 -33.685  1.00  0.00    -0.025 A 
HETATM   28  C   UNL     1      -5.996  -2.662 -34.474  1.00  0.00    -0.026 A 
HETATM   29  C   UNL     1      -3.994  -3.696 -33.571  1.00  0.00     0.012 A 
HETATM   30  C   UNL     1      -6.824  -1.539 -34.595  1.00  0.00     0.013 A 
HETATM   31  C   UNL     1      -6.301  -3.869 -35.122  1.00  0.00     0.012 A 
HETATM   32  C   UNL     1      -6.512  -0.345 -33.938  1.00  0.00     0.011 A 
HETATM   33  C   UNL     1      -5.463  -4.977 -34.995  1.00  0.00     0.001 A 
HETATM   34  C   UNL     1      -4.309  -4.890 -34.221  1.00  0.00     0.001 A 
ENDBRANCH   2  25
TORSDOF 4
ENDMDL
MODEL 8
REMARK VINA RESULT:     -10.1      5.313      9.428
REMARK  4 active torsions:
REMARK  status: ('A' for Active; 'I' for Inactive)
REMARK    1  A    between atoms: C_2  and  C_3 
REMARK    2  A    between atoms: N_16  and  C_17 
REMARK    3  A    between atoms: C_17  and  C_18 
REMARK       I    between atoms: C_18  and  N_19 
REMARK    4  A    between atoms: N_19  and  C_20 
ROOT
HETATM    1  C   UNL     1      -6.019   4.189 -31.674  1.00  0.00     0.054 C 
HETATM    2  C   UNL     1      -4.987   3.481 -32.557  1.00  0.00     0.140 A 
HETATM    3  N   UNL     1      -3.767   3.302 -31.797  1.00  0.00    -0.321 N 
HETATM    4  C   UNL     1      -2.731   4.079 -32.251  1.00  0.00     0.326 A 
HETATM    5  O   UNL     1      -1.633   4.117 -31.725  1.00  0.00    -0.247 OA
HETATM    6  N   UNL     1      -3.155   4.778 -33.335  1.00  0.00    -0.259 N 
HETATM    7  C   UNL     1      -4.453   4.469 -33.624  1.00  0.00     0.261 A 
HETATM    8  O   UNL     1      -5.070   4.917 -34.584  1.00  0.00    -0.270 OA
HETATM    9  H   UNL     1      -3.667   2.733 -30.967  1.00  0.00     0.165 HD
ENDROOT
BRANCH   6  10
HETATM   10  C   UNL     1      -2.329   5.701 -34.085  1.00  0.00     0.240 C 
BRANCH  10  11
HETATM   11  C   UNL     1      -2.182   7.028 -33.340  1.00  0.00     0.240 C 
HETATM   12  N   UNL     1      -2.509   6.946 -31.993  1.00  0.00    -0.325 N 
HETATM   13  H   UNL     1      -2.678   6.011 -31.633  1.00  0.00     0.169 HD
HETATM   14  O   UNL     1      -1.700   8.008 -33.903  1.00  0.00    -0.271 OA
BRANCH  12  15
HETATM   15  C   UNL     1      -2.541   8.006 -31.050  1.00  0.00     0.047 A 
HETATM   16  C   UNL     1      -1.529   8.095 -30.043  1.00  0.00     0.019 A 
HETATM   17  C   UNL     1      -1.589   9.142 -29.090  1.00  0.00     0.069 A 
HETATM   18  C   UNL     1      -0.422   7.219 -29.917  1.00  0.00     0.017 A 
HETATM   19  N   UNL     1      -0.676   9.317 -28.118  1.00  0.00    -0.260 NA
HETATM   20  C   UNL     1      -2.631  10.053 -29.149  1.00  0.00     0.032 A 
HETATM   21  C   UNL     1       0.356   8.454 -28.047  1.00  0.00     0.117 A 
HETATM   22  C   UNL     1       0.527   7.400 -28.914  1.00  0.00     0.020 A 
HETATM   23  C   UNL     1      -3.620   9.969 -30.124  1.00  0.00     0.005 A 
HETATM   24  C   UNL     1      -3.573   8.951 -31.069  1.00  0.00     0.030 A 
ENDBRANCH  12  15
ENDBRANCH  10  11
ENDBRANCH   6  10
BRANCH   2  25
HETATM   25  C   UNL     1      -5.510   2.192 -33.177  1.00  0.00    -0.020 A 
HETATM   26  C   UNL     1      -4.799   0.978 -33.106  1.00  0.00     0.022 A 
HETATM   27  C   UNL     1      -5.301  -0.212 -33.667  1.00  0.00    -0.025 A 
HETATM   28  C   UNL     1      -6.547  -0.194 -34.328  1.00  0.00    -0.026 A 
HETATM   29  C   UNL     1      -4.591  -1.422 -33.582  1.00  0.00     0.012 A 
HETATM   30  C   UNL     1      -7.251   1.012 -34.421  1.00  0.00     0.013 A 
HETATM   31  C   UNL     1      -7.053  -1.381 -34.882  1.00  0.00     0.012 A 
HETATM   32  C   UNL     1      -6.739   2.185 -33.858  1.00  0.00     0.011 A 
HETATM   33  C   UNL     1      -6.337  -2.574 -34.785  1.00  0.00     0.001 A 
HETATM   34  C   UNL     1      -5.105  -2.594 -34.137  1.00  0.00     0.001 A 
ENDBRANCH   2  25
TORSDOF 4
ENDMDL
MODEL 9
REMARK VINA RESULT:      -9.8      3.807      7.730
REMARK  4 active torsions:
REMARK  status: ('A' for Active; 'I' for Inactive)
REMARK    1  A    between atoms: C_2  and  C_3 
REMARK    2  A    between atoms: N_16  and  C_17 
REMARK    3  A    between atoms: C_17  and  C_18 
REMARK       I    between atoms: C_18  and  N_19 
REMARK    4  A    between atoms: N_19  and  C_20 
ROOT
HETATM    1  C   UNL     1      -8.641   0.529 -34.996  1.00  0.00     0.054 C 
HETATM    2  C   UNL     1      -7.715   0.512 -33.775  1.00  0.00     0.140 A 
HETATM    3  N   UNL     1      -8.524   0.555 -32.575  1.00  0.00    -0.321 N 
HETATM    4  C   UNL     1      -8.408   1.740 -31.891  1.00  0.00     0.326 A 
HETATM    5  O   UNL     1      -9.039   2.002 -30.883  1.00  0.00    -0.247 OA
HETATM    6  N   UNL     1      -7.514   2.529 -32.539  1.00  0.00    -0.259 N 
HETATM    7  C   UNL     1      -7.017   1.887 -33.635  1.00  0.00     0.261 A 
HETATM    8  O   UNL     1      -6.152   2.350 -34.372  1.00  0.00    -0.270 OA
HETATM    9  H   UNL     1      -9.176  -0.157 -32.276  1.00  0.00     0.165 HD
ENDROOT
BRANCH   6  10
HETATM   10  C   UNL     1      -7.132   3.856 -32.103  1.00  0.00     0.240 C 
BRANCH  10  11
HETATM   11  C   UNL     1      -5.621   4.055 -32.222  1.00  0.00     0.240 C 
HETATM   12  N   UNL     1      -5.264   5.089 -33.076  1.00  0.00    -0.325 N 
HETATM   13  H   UNL     1      -6.027   5.669 -33.416  1.00  0.00     0.169 HD
HETATM   14  O   UNL     1      -4.851   3.413 -31.512  1.00  0.00    -0.271 OA
BRANCH  12  15
HETATM   15  C   UNL     1      -3.952   5.482 -33.450  1.00  0.00     0.047 A 
HETATM   16  C   UNL     1      -3.333   6.600 -32.807  1.00  0.00     0.019 A 
HETATM   17  C   UNL     1      -2.034   6.998 -33.210  1.00  0.00     0.069 A 
HETATM   18  C   UNL     1      -3.904   7.357 -31.754  1.00  0.00     0.017 A 
HETATM   19  N   UNL     1      -1.365   8.024 -32.654  1.00  0.00    -0.260 NA
HETATM   20  C   UNL     1      -1.396   6.303 -34.223  1.00  0.00     0.032 A 
HETATM   21  C   UNL     1      -1.956   8.708 -31.656  1.00  0.00     0.117 A 
HETATM   22  C   UNL     1      -3.211   8.416 -31.173  1.00  0.00     0.020 A 
HETATM   23  C   UNL     1      -1.995   5.219 -34.856  1.00  0.00     0.005 A 
HETATM   24  C   UNL     1      -3.267   4.811 -34.469  1.00  0.00     0.030 A 
ENDBRANCH  12  15
ENDBRANCH  10  11
ENDBRANCH   6  10
BRANCH   2  25
HETATM   25  C   UNL     1      -6.719  -0.641 -33.794  1.00  0.00    -0.020 A 
HETATM   26  C   UNL     1      -5.711  -0.782 -32.821  1.00  0.00     0.022 A 
HETATM   27  C   UNL     1      -4.808  -1.862 -32.837  1.00  0.00    -0.025 A 
HETATM   28  C   UNL     1      -4.903  -2.830 -33.860  1.00  0.00    -0.026 A 
HETATM   29  C   UNL     1      -3.811  -2.002 -31.856  1.00  0.00     0.012 A 
HETATM   30  C   UNL     1      -5.890  -2.686 -34.843  1.00  0.00     0.013 A 
HETATM   31  C   UNL     1      -4.008  -3.911 -33.875  1.00  0.00     0.012 A 
HETATM   32  C   UNL     1      -6.780  -1.608 -34.811  1.00  0.00     0.011 A 
HETATM   33  C   UNL     1      -3.027  -4.037 -32.890  1.00  0.00     0.001 A 
HETATM   34  C   UNL     1      -2.928  -3.082 -31.882  1.00  0.00     0.001 A 
ENDBRANCH   2  25
TORSDOF 4
ENDMDL
MODEL 10
REMARK VINA RESULT:      -9.7      1.777      8.441
REMARK  4 active torsions:
REMARK  status: ('A' for Active; 'I' for Inactive)
REMARK    1  A    between atoms: C_2  and  C_3 
REMARK    2  A    between atoms: N_16  and  C_17 
REMARK    3  A    between atoms: C_17  and  C_18 
REMARK       I    between atoms: C_18  and  N_19 
REMARK    4  A    between atoms: N_19  and  C_20 
ROOT
HETATM    1  C   UNL     1      -9.551   0.734 -34.482  1.00  0.00     0.054 C 
HETATM    2  C   UNL     1     -10.025   1.966 -33.705  1.00  0.00     0.140 A 
HETATM    3  N   UNL     1      -9.577   3.156 -34.399  1.00  0.00    -0.321 N 
HETATM    4  C   UNL     1      -8.607   3.845 -33.713  1.00  0.00     0.326 A 
HETATM    5  O   UNL     1      -8.060   4.845 -34.139  1.00  0.00    -0.247 OA
HETATM    6  N   UNL     1      -8.376   3.212 -32.535  1.00  0.00    -0.259 N 
HETATM    7  C   UNL     1      -9.186   2.120 -32.413  1.00  0.00     0.261 A 
HETATM    8  O   UNL     1      -9.223   1.396 -31.423  1.00  0.00    -0.270 OA
HETATM    9  H   UNL     1      -9.864   3.444 -35.324  1.00  0.00     0.165 HD
ENDROOT
BRANCH   6  10
HETATM   10  C   UNL     1      -7.418   3.656 -31.544  1.00  0.00     0.240 C 
BRANCH  10  11
HETATM   11  C   UNL     1      -6.480   2.517 -31.144  1.00  0.00     0.240 C 
HETATM   12  N   UNL     1      -5.705   2.044 -32.195  1.00  0.00    -0.325 N 
HETATM   13  H   UNL     1      -5.751   2.580 -33.058  1.00  0.00     0.169 HD
HETATM   14  O   UNL     1      -6.377   2.178 -29.968  1.00  0.00    -0.271 OA
BRANCH  12  15
HETATM   15  C   UNL     1      -4.791   0.958 -32.169  1.00  0.00     0.047 A 
HETATM   16  C   UNL     1      -5.038  -0.201 -32.971  1.00  0.00     0.019 A 
HETATM   17  C   UNL     1      -4.132  -1.289 -32.913  1.00  0.00     0.069 A 
HETATM   18  C   UNL     1      -6.125  -0.359 -33.866  1.00  0.00     0.017 A 
HETATM   19  N   UNL     1      -4.270  -2.411 -33.642  1.00  0.00    -0.260 NA
HETATM   20  C   UNL     1      -3.032  -1.211 -32.075  1.00  0.00     0.032 A 
HETATM   21  C   UNL     1      -5.323  -2.507 -34.476  1.00  0.00     0.117 A 
HETATM   22  C   UNL     1      -6.269  -1.518 -34.624  1.00  0.00     0.020 A 
HETATM   23  C   UNL     1      -2.790  -0.089 -31.289  1.00  0.00     0.005 A 
HETATM   24  C   UNL     1      -3.666   0.990 -31.338  1.00  0.00     0.030 A 
ENDBRANCH  12  15
ENDBRANCH  10  11
ENDBRANCH   6  10
BRANCH   2  25
HETATM   25  C   UNL     1     -11.522   1.958 -33.423  1.00  0.00    -0.020 A 
HETATM   26  C   UNL     1     -12.193   3.069 -32.876  1.00  0.00     0.022 A 
HETATM   27  C   UNL     1     -13.580   3.057 -32.637  1.00  0.00    -0.025 A 
HETATM   28  C   UNL     1     -14.326   1.898 -32.941  1.00  0.00    -0.026 A 
HETATM   29  C   UNL     1     -14.244   4.174 -32.102  1.00  0.00     0.012 A 
HETATM   30  C   UNL     1     -13.664   0.781 -33.465  1.00  0.00     0.013 A 
HETATM   31  C   UNL     1     -15.710   1.885 -32.709  1.00  0.00     0.012 A 
HETATM   32  C   UNL     1     -12.285   0.811 -33.698  1.00  0.00     0.011 A 
HETATM   33  C   UNL     1     -16.354   3.005 -32.181  1.00  0.00     0.001 A 
HETATM   34  C   UNL     1     -15.621   4.148 -31.877  1.00  0.00     0.001 A 
ENDBRANCH   2  25
TORSDOF 4
ENDMDL
