MODEL 1
REMARK VINA RESULT:      -9.5      0.000      0.000
REMARK  8 active torsions:
REMARK  status: ('A' for Active; 'I' for Inactive)
REMARK    1  A    between atoms: C_2  and  N_3 
REMARK    2  A    between atoms: N_3  and  N_4 
REMARK       I    between atoms: N_4  and  C_5 
REMARK    3  A    between atoms: C_5  and  C_6 
REMARK    4  A    between atoms: C_6  and  O_7 
REMARK    5  A    between atoms: O_7  and  C_8 
REMARK    6  A    between atoms: C_19  and  C_20 
REMARK       I    between atoms: C_20  and  N_21 
REMARK    7  A    between atoms: N_21  and  C_22 
REMARK    8  A    between atoms: C_25  and  C_26 
REMARK       I    between atoms: C_26  and  N_27 
ROOT
HETATM    1  C   UNL     1      -6.418   1.826 -29.679  1.00  0.00     0.070 C 
HETATM    2  C   UNL     1      -6.123   3.212 -30.216  1.00  0.00     0.027 C 
HETATM    3  C   UNL     1      -7.035   3.924 -30.910  1.00  0.00     0.100 C 
ENDROOT
BRANCH   2   4
HETATM    4  N   UNL     1      -4.836   3.666 -29.935  1.00  0.00    -0.302 N 
HETATM    5  H   UNL     1      -4.807   4.280 -29.111  1.00  0.00     0.186 HD
BRANCH   4   6
HETATM    6  N   UNL     1      -3.921   4.035 -30.926  1.00  0.00    -0.268 N 
HETATM    7  C   UNL     1      -3.403   3.109 -31.811  1.00  0.00     0.260 C 
HETATM    8  O   UNL     1      -2.905   3.491 -32.872  1.00  0.00    -0.269 OA
HETATM    9  H   UNL     1      -4.011   4.985 -31.275  1.00  0.00     0.190 HD
BRANCH   7  10
HETATM   10  C   UNL     1      -3.373   1.644 -31.380  1.00  0.00     0.280 C 
BRANCH  10  11
HETATM   11  O   UNL     1      -3.090   0.785 -32.481  1.00  0.00    -0.342 OA
BRANCH  11  12
HETATM   12  C   UNL     1      -4.153   0.037 -32.916  1.00  0.00     0.070 A 
HETATM   13  C   UNL     1      -3.837  -1.231 -33.409  1.00  0.00     0.049 A 
HETATM   14  C   UNL     1      -4.838  -2.092 -33.890  1.00  0.00    -0.023 A 
HETATM   15  C   UNL     1      -6.183  -1.657 -33.888  1.00  0.00    -0.026 A 
HETATM   16  C   UNL     1      -4.536  -3.377 -34.370  1.00  0.00     0.012 A 
HETATM   17  C   UNL     1      -6.484  -0.370 -33.419  1.00  0.00     0.015 A 
HETATM   18  C   UNL     1      -7.188  -2.517 -34.360  1.00  0.00     0.012 A 
HETATM   19  C   UNL     1      -5.476   0.473 -32.943  1.00  0.00     0.037 A 
HETATM   20  C   UNL     1      -6.870  -3.792 -34.829  1.00  0.00     0.001 A 
HETATM   21  C   UNL     1      -5.546  -4.221 -34.836  1.00  0.00     0.001 A 
ENDBRANCH  11  12
ENDBRANCH  10  11
ENDBRANCH   7  10
ENDBRANCH   4   6
ENDBRANCH   2   4
BRANCH   3  22
HETATM   22  C   UNL     1      -8.460   3.516 -31.057  1.00  0.00     0.247 C 
HETATM   23  N   UNL     1      -8.691   2.862 -32.250  1.00  0.00    -0.324 N 
HETATM   24  H   UNL     1      -7.899   2.725 -32.865  1.00  0.00     0.169 HD
HETATM   25  O   UNL     1      -9.287   3.801 -30.201  1.00  0.00    -0.268 OA
BRANCH  23  26
HETATM   26  C   UNL     1      -9.923   2.343 -32.705  1.00  0.00     0.035 A 
HETATM   27  C   UNL     1     -11.058   3.123 -32.942  1.00  0.00     0.030 A 
HETATM   28  C   UNL     1     -12.254   2.537 -33.379  1.00  0.00     0.019 A 
HETATM   29  C   UNL     1     -12.328   1.157 -33.579  1.00  0.00     0.032 A 
HETATM   30  C   UNL     1     -11.189   0.373 -33.364  1.00  0.00     0.019 A 
HETATM   31  C   UNL     1      -9.998   0.963 -32.925  1.00  0.00     0.030 A 
BRANCH  29  32
HETATM   32  C   UNL     1     -13.575   0.486 -34.033  1.00  0.00     0.249 C 
HETATM   33  N   UNL     1     -13.865  -0.738 -33.499  1.00  0.00    -0.366 N 
HETATM   34  H   UNL     1     -13.195  -1.287 -32.981  1.00  0.00     0.159 HD
HETATM   35  H   UNL     1     -14.662  -1.221 -33.894  1.00  0.00     0.159 HD
HETATM   36  O   UNL     1     -14.300   0.988 -34.882  1.00  0.00    -0.268 OA
ENDBRANCH  29  32
ENDBRANCH  23  26
ENDBRANCH   3  22
TORSDOF 8
ENDMDL
MODEL 2
REMARK VINA RESULT:      -9.2      4.989      9.693
REMARK  8 active torsions:
REMARK  status: ('A' for Active; 'I' for Inactive)
REMARK    1  A    between atoms: C_2  and  N_3 
REMARK    2  A    between atoms: N_3  and  N_4 
REMARK       I    between atoms: N_4  and  C_5 
REMARK    3  A    between atoms: C_5  and  C_6 
REMARK    4  A    between atoms: C_6  and  O_7 
REMARK    5  A    between atoms: O_7  and  C_8 
REMARK    6  A    between atoms: C_19  and  C_20 
REMARK       I    between atoms: C_20  and  N_21 
REMARK    7  A    between atoms: N_21  and  C_22 
REMARK    8  A    between atoms: C_25  and  C_26 
REMARK       I    between atoms: C_26  and  N_27 
ROOT
HETATM    1  C   UNL     1      -1.054   6.059 -33.223  1.00  0.00     0.070 C 
HETATM    2  C   UNL     1      -1.817   4.941 -32.542  1.00  0.00     0.027 C 
HETATM    3  C   UNL     1      -1.446   4.442 -31.345  1.00  0.00     0.100 C 
ENDROOT
BRANCH   2   4
HETATM    4  N   UNL     1      -2.915   4.482 -33.267  1.00  0.00    -0.302 N 
HETATM    5  H   UNL     1      -2.690   4.314 -34.257  1.00  0.00     0.186 HD
BRANCH   4   6
HETATM    6  N   UNL     1      -4.213   4.962 -33.074  1.00  0.00    -0.268 N 
HETATM    7  C   UNL     1      -5.156   4.234 -32.372  1.00  0.00     0.260 C 
HETATM    8  O   UNL     1      -6.145   4.804 -31.907  1.00  0.00    -0.269 OA
HETATM    9  H   UNL     1      -4.306   5.973 -33.029  1.00  0.00     0.190 HD
BRANCH   7  10
HETATM   10  C   UNL     1      -4.980   2.718 -32.298  1.00  0.00     0.280 C 
BRANCH  10  11
HETATM   11  O   UNL     1      -6.199   2.072 -31.942  1.00  0.00    -0.342 OA
BRANCH  11  12
HETATM   12  C   UNL     1      -6.438   0.892 -32.597  1.00  0.00     0.070 A 
HETATM   13  C   UNL     1      -5.308   0.123 -32.884  1.00  0.00     0.049 A 
HETATM   14  C   UNL     1      -5.420  -1.105 -33.558  1.00  0.00    -0.023 A 
HETATM   15  C   UNL     1      -6.696  -1.556 -33.966  1.00  0.00    -0.026 A 
HETATM   16  C   UNL     1      -4.295  -1.899 -33.836  1.00  0.00     0.012 A 
HETATM   17  C   UNL     1      -7.819  -0.760 -33.699  1.00  0.00     0.015 A 
HETATM   18  C   UNL     1      -6.814  -2.787 -34.632  1.00  0.00     0.012 A 
HETATM   19  C   UNL     1      -7.690   0.459 -33.026  1.00  0.00     0.037 A 
HETATM   20  C   UNL     1      -5.686  -3.564 -34.895  1.00  0.00     0.001 A 
HETATM   21  C   UNL     1      -4.427  -3.120 -34.499  1.00  0.00     0.001 A 
ENDBRANCH  11  12
ENDBRANCH  10  11
ENDBRANCH   7  10
ENDBRANCH   4   6
ENDBRANCH   2   4
BRANCH   3  22
HETATM   22  C   UNL     1      -0.385   5.047 -30.493  1.00  0.00     0.247 C 
HETATM   23  N   UNL     1      -0.896   5.978 -29.611  1.00  0.00    -0.324 N 
HETATM   24  H   UNL     1      -1.896   6.134 -29.629  1.00  0.00     0.169 HD
HETATM   25  O   UNL     1       0.791   4.743 -30.642  1.00  0.00    -0.268 OA
BRANCH  23  26
HETATM   26  C   UNL     1      -0.170   6.734 -28.665  1.00  0.00     0.035 A 
HETATM   27  C   UNL     1       0.672   7.798 -28.997  1.00  0.00     0.030 A 
HETATM   28  C   UNL     1       1.374   8.496 -28.005  1.00  0.00     0.019 A 
HETATM   29  C   UNL     1       1.245   8.129 -26.664  1.00  0.00     0.032 A 
HETATM   30  C   UNL     1       0.388   7.078 -26.322  1.00  0.00     0.019 A 
HETATM   31  C   UNL     1      -0.310   6.382 -27.317  1.00  0.00     0.030 A 
BRANCH  29  32
HETATM   32  C   UNL     1       1.976   8.830 -25.575  1.00  0.00     0.249 C 
HETATM   33  N   UNL     1       2.695   8.065 -24.700  1.00  0.00    -0.366 N 
HETATM   34  H   UNL     1       2.597   7.063 -24.634  1.00  0.00     0.159 HD
HETATM   35  H   UNL     1       3.101   8.550 -23.910  1.00  0.00     0.159 HD
HETATM   36  O   UNL     1       1.909  10.045 -25.437  1.00  0.00    -0.268 OA
ENDBRANCH  29  32
ENDBRANCH  23  26
ENDBRANCH   3  22
TORSDOF 8
ENDMDL
MODEL 3
REMARK VINA RESULT:      -9.1      4.352      9.175
REMARK  8 active torsions:
REMARK  status: ('A' for Active; 'I' for Inactive)
REMARK    1  A    between atoms: C_2  and  N_3 
REMARK    2  A    between atoms: N_3  and  N_4 
REMARK       I    between atoms: N_4  and  C_5 
REMARK    3  A    between atoms: C_5  and  C_6 
REMARK    4  A    between atoms: C_6  and  O_7 
REMARK    5  A    between atoms: O_7  and  C_8 
REMARK    6  A    between atoms: C_19  and  C_20 
REMARK       I    between atoms: C_20  and  N_21 
REMARK    7  A    between atoms: N_21  and  C_22 
REMARK    8  A    between atoms: C_25  and  C_26 
REMARK       I    between atoms: C_26  and  N_27 
ROOT
HETATM    1  C   UNL     1      -3.360   6.074 -33.112  1.00  0.00     0.070 C 
HETATM    2  C   UNL     1      -3.326   4.621 -32.684  1.00  0.00     0.027 C 
HETATM    3  C   UNL     1      -2.320   4.112 -31.943  1.00  0.00     0.100 C 
ENDROOT
BRANCH   2   4
HETATM    4  N   UNL     1      -4.414   3.874 -33.131  1.00  0.00    -0.302 N 
HETATM    5  H   UNL     1      -4.298   3.552 -34.101  1.00  0.00     0.186 HD
BRANCH   4   6
HETATM    6  N   UNL     1      -5.738   4.187 -32.812  1.00  0.00    -0.268 N 
HETATM    7  C   UNL     1      -6.527   3.324 -32.075  1.00  0.00     0.260 C 
HETATM    8  O   UNL     1      -7.533   3.752 -31.506  1.00  0.00    -0.269 OA
HETATM    9  H   UNL     1      -5.944   5.177 -32.711  1.00  0.00     0.190 HD
BRANCH   7  10
HETATM   10  C   UNL     1      -6.171   1.839 -32.090  1.00  0.00     0.280 C 
BRANCH  10  11
HETATM   11  O   UNL     1      -6.109   1.333 -33.420  1.00  0.00    -0.342 OA
BRANCH  11  12
HETATM   12  C   UNL     1      -5.558   0.083 -33.536  1.00  0.00     0.070 A 
HETATM   13  C   UNL     1      -6.396  -0.898 -34.071  1.00  0.00     0.049 A 
HETATM   14  C   UNL     1      -5.950  -2.221 -34.235  1.00  0.00    -0.023 A 
HETATM   15  C   UNL     1      -4.638  -2.562 -33.835  1.00  0.00    -0.026 A 
HETATM   16  C   UNL     1      -6.775  -3.213 -34.789  1.00  0.00     0.012 A 
HETATM   17  C   UNL     1      -3.817  -1.575 -33.271  1.00  0.00     0.015 A 
HETATM   18  C   UNL     1      -4.185  -3.880 -34.004  1.00  0.00     0.012 A 
HETATM   19  C   UNL     1      -4.276  -0.263 -33.116  1.00  0.00     0.037 A 
HETATM   20  C   UNL     1      -5.016  -4.852 -34.562  1.00  0.00     0.001 A 
HETATM   21  C   UNL     1      -6.310  -4.520 -34.952  1.00  0.00     0.001 A 
ENDBRANCH  11  12
ENDBRANCH  10  11
ENDBRANCH   7  10
ENDBRANCH   4   6
ENDBRANCH   2   4
BRANCH   3  22
HETATM   22  C   UNL     1      -1.253   4.945 -31.319  1.00  0.00     0.247 C 
HETATM   23  N   UNL     1      -1.706   5.613 -30.200  1.00  0.00    -0.324 N 
HETATM   24  H   UNL     1      -2.669   5.463 -29.928  1.00  0.00     0.169 HD
HETATM   25  O   UNL     1      -0.139   5.017 -31.820  1.00  0.00    -0.268 OA
BRANCH  23  26
HETATM   26  C   UNL     1      -0.959   6.481 -29.374  1.00  0.00     0.035 A 
HETATM   27  C   UNL     1      -1.170   7.861 -29.299  1.00  0.00     0.030 A 
HETATM   28  C   UNL     1      -0.379   8.665 -28.468  1.00  0.00     0.019 A 
HETATM   29  C   UNL     1       0.640   8.095 -27.703  1.00  0.00     0.032 A 
HETATM   30  C   UNL     1       0.844   6.712 -27.757  1.00  0.00     0.019 A 
HETATM   31  C   UNL     1       0.053   5.913 -28.591  1.00  0.00     0.030 A 
BRANCH  29  32
HETATM   32  C   UNL     1       1.513   8.905 -26.812  1.00  0.00     0.249 C 
HETATM   33  N   UNL     1       1.339  10.261 -26.818  1.00  0.00    -0.366 N 
HETATM   34  H   UNL     1       0.804  10.745 -27.524  1.00  0.00     0.159 HD
HETATM   35  H   UNL     1       2.008  10.800 -26.284  1.00  0.00     0.159 HD
HETATM   36  O   UNL     1       2.385   8.388 -26.125  1.00  0.00    -0.268 OA
ENDBRANCH  29  32
ENDBRANCH  23  26
ENDBRANCH   3  22
TORSDOF 8
ENDMDL
MODEL 4
REMARK VINA RESULT:      -9.1      5.133      9.206
REMARK  8 active torsions:
REMARK  status: ('A' for Active; 'I' for Inactive)
REMARK    1  A    between atoms: C_2  and  N_3 
REMARK    2  A    between atoms: N_3  and  N_4 
REMARK       I    between atoms: N_4  and  C_5 
REMARK    3  A    between atoms: C_5  and  C_6 
REMARK    4  A    between atoms: C_6  and  O_7 
REMARK    5  A    between atoms: O_7  and  C_8 
REMARK    6  A    between atoms: C_19  and  C_20 
REMARK       I    between atoms: C_20  and  N_21 
REMARK    7  A    between atoms: N_21  and  C_22 
REMARK    8  A    between atoms: C_25  and  C_26 
REMARK       I    between atoms: C_26  and  N_27 
ROOT
HETATM    1  C   UNL     1      -3.006   3.187 -32.793  1.00  0.00     0.070 C 
HETATM    2  C   UNL     1      -4.379   3.822 -32.714  1.00  0.00     0.027 C 
HETATM    3  C   UNL     1      -5.512   3.088 -32.702  1.00  0.00     0.100 C 
ENDROOT
BRANCH   2   4
HETATM    4  N   UNL     1      -4.357   5.214 -32.664  1.00  0.00    -0.302 N 
HETATM    5  H   UNL     1      -5.271   5.614 -32.411  1.00  0.00     0.186 HD
BRANCH   4   6
HETATM    6  N   UNL     1      -3.651   6.001 -33.579  1.00  0.00    -0.268 N 
HETATM    7  C   UNL     1      -2.776   6.986 -33.161  1.00  0.00     0.260 C 
HETATM    8  O   UNL     1      -1.914   7.406 -33.935  1.00  0.00    -0.269 OA
HETATM    9  H   UNL     1      -3.429   5.553 -34.464  1.00  0.00     0.190 HD
BRANCH   7  10
HETATM   10  C   UNL     1      -2.991   7.593 -31.776  1.00  0.00     0.280 C 
BRANCH  10  11
HETATM   11  O   UNL     1      -2.599   6.689 -30.746  1.00  0.00    -0.342 OA
BRANCH  11  12
HETATM   12  C   UNL     1      -1.521   7.095 -30.004  1.00  0.00     0.070 A 
HETATM   13  C   UNL     1      -1.729   8.222 -29.205  1.00  0.00     0.049 A 
HETATM   14  C   UNL     1      -0.699   8.740 -28.402  1.00  0.00    -0.023 A 
HETATM   15  C   UNL     1       0.570   8.119 -28.418  1.00  0.00    -0.026 A 
HETATM   16  C   UNL     1      -0.900   9.861 -27.579  1.00  0.00     0.012 A 
HETATM   17  C   UNL     1       0.775   7.006 -29.247  1.00  0.00     0.015 A 
HETATM   18  C   UNL     1       1.600   8.628 -27.610  1.00  0.00     0.012 A 
HETATM   19  C   UNL     1      -0.261   6.503 -30.040  1.00  0.00     0.037 A 
HETATM   20  C   UNL     1       1.381   9.739 -26.796  1.00  0.00     0.001 A 
HETATM   21  C   UNL     1       0.133  10.356 -26.781  1.00  0.00     0.001 A 
ENDBRANCH  11  12
ENDBRANCH  10  11
ENDBRANCH   7  10
ENDBRANCH   4   6
ENDBRANCH   2   4
BRANCH   3  22
HETATM   22  C   UNL     1      -5.531   1.604 -32.576  1.00  0.00     0.247 C 
HETATM   23  N   UNL     1      -5.588   0.981 -33.806  1.00  0.00    -0.324 N 
HETATM   24  H   UNL     1      -5.599   1.573 -34.626  1.00  0.00     0.169 HD
HETATM   25  O   UNL     1      -5.539   1.066 -31.477  1.00  0.00    -0.268 OA
BRANCH  23  26
HETATM   26  C   UNL     1      -5.619  -0.409 -34.049  1.00  0.00     0.035 A 
HETATM   27  C   UNL     1      -6.757  -1.104 -34.466  1.00  0.00     0.030 A 
HETATM   28  C   UNL     1      -6.718  -2.490 -34.673  1.00  0.00     0.019 A 
HETATM   29  C   UNL     1      -5.534  -3.199 -34.458  1.00  0.00     0.032 A 
HETATM   30  C   UNL     1      -4.386  -2.507 -34.060  1.00  0.00     0.019 A 
HETATM   31  C   UNL     1      -4.430  -1.123 -33.851  1.00  0.00     0.030 A 
BRANCH  29  32
HETATM   32  C   UNL     1      -5.443  -4.670 -34.654  1.00  0.00     0.249 C 
HETATM   33  N   UNL     1      -4.397  -5.324 -34.066  1.00  0.00    -0.366 N 
HETATM   34  H   UNL     1      -3.593  -4.847 -33.686  1.00  0.00     0.159 HD
HETATM   35  H   UNL     1      -4.296  -6.304 -34.294  1.00  0.00     0.159 HD
HETATM   36  O   UNL     1      -6.251  -5.276 -35.348  1.00  0.00    -0.268 OA
ENDBRANCH  29  32
ENDBRANCH  23  26
ENDBRANCH   3  22
TORSDOF 8
ENDMDL
MODEL 5
REMARK VINA RESULT:      -9.1      4.988      9.715
REMARK  8 active torsions:
REMARK  status: ('A' for Active; 'I' for Inactive)
REMARK    1  A    between atoms: C_2  and  N_3 
REMARK    2  A    between atoms: N_3  and  N_4 
REMARK       I    between atoms: N_4  and  C_5 
REMARK    3  A    between atoms: C_5  and  C_6 
REMARK    4  A    between atoms: C_6  and  O_7 
REMARK    5  A    between atoms: O_7  and  C_8 
REMARK    6  A    between atoms: C_19  and  C_20 
REMARK       I    between atoms: C_20  and  N_21 
REMARK    7  A    between atoms: N_21  and  C_22 
REMARK    8  A    between atoms: C_25  and  C_26 
REMARK       I    between atoms: C_26  and  N_27 
ROOT
HETATM    1  C   UNL     1      -2.422   6.753 -32.587  1.00  0.00     0.070 C 
HETATM    2  C   UNL     1      -2.525   5.314 -32.123  1.00  0.00     0.027 C 
HETATM    3  C   UNL     1      -1.613   4.757 -31.300  1.00  0.00     0.100 C 
ENDROOT
BRANCH   2   4
HETATM    4  N   UNL     1      -3.631   4.635 -32.629  1.00  0.00    -0.302 N 
HETATM    5  H   UNL     1      -3.697   4.698 -33.653  1.00  0.00     0.186 HD
BRANCH   4   6
HETATM    6  N   UNL     1      -4.879   4.629 -31.999  1.00  0.00    -0.268 N 
HETATM    7  C   UNL     1      -5.726   3.541 -32.083  1.00  0.00     0.260 C 
HETATM    8  O   UNL     1      -6.627   3.403 -31.253  1.00  0.00    -0.269 OA
HETATM    9  H   UNL     1      -4.944   5.182 -31.148  1.00  0.00     0.190 HD
BRANCH   7  10
HETATM   10  C   UNL     1      -5.572   2.604 -33.279  1.00  0.00     0.280 C 
BRANCH  10  11
HETATM   11  O   UNL     1      -4.862   1.420 -32.924  1.00  0.00    -0.342 OA
BRANCH  11  12
HETATM   12  C   UNL     1      -5.389   0.260 -33.427  1.00  0.00     0.070 A 
HETATM   13  C   UNL     1      -4.544  -0.852 -33.389  1.00  0.00     0.049 A 
HETATM   14  C   UNL     1      -4.966  -2.099 -33.880  1.00  0.00    -0.023 A 
HETATM   15  C   UNL     1      -6.259  -2.222 -34.437  1.00  0.00    -0.026 A 
HETATM   16  C   UNL     1      -4.134  -3.230 -33.830  1.00  0.00     0.012 A 
HETATM   17  C   UNL     1      -7.086  -1.091 -34.498  1.00  0.00     0.015 A 
HETATM   18  C   UNL     1      -6.688  -3.468 -34.922  1.00  0.00     0.012 A 
HETATM   19  C   UNL     1      -6.652   0.143 -34.003  1.00  0.00     0.037 A 
HETATM   20  C   UNL     1      -5.850  -4.582 -34.859  1.00  0.00     0.001 A 
HETATM   21  C   UNL     1      -4.574  -4.463 -34.316  1.00  0.00     0.001 A 
ENDBRANCH  11  12
ENDBRANCH  10  11
ENDBRANCH   7  10
ENDBRANCH   4   6
ENDBRANCH   2   4
BRANCH   3  22
HETATM   22  C   UNL     1      -0.535   5.528 -30.621  1.00  0.00     0.247 C 
HETATM   23  N   UNL     1      -0.933   5.999 -29.387  1.00  0.00    -0.324 N 
HETATM   24  H   UNL     1      -1.870   5.769 -29.082  1.00  0.00     0.169 HD
HETATM   25  O   UNL     1       0.541   5.723 -31.172  1.00  0.00    -0.268 OA
BRANCH  23  26
HETATM   26  C   UNL     1      -0.160   6.762 -28.484  1.00  0.00     0.035 A 
HETATM   27  C   UNL     1       0.663   7.825 -28.865  1.00  0.00     0.030 A 
HETATM   28  C   UNL     1       1.414   8.529 -27.915  1.00  0.00     0.019 A 
HETATM   29  C   UNL     1       1.354   8.172 -26.567  1.00  0.00     0.032 A 
HETATM   30  C   UNL     1       0.516   7.122 -26.175  1.00  0.00     0.019 A 
HETATM   31  C   UNL     1      -0.230   6.419 -27.128  1.00  0.00     0.030 A 
BRANCH  29  32
HETATM   32  C   UNL     1       2.138   8.881 -25.521  1.00  0.00     0.249 C 
HETATM   33  N   UNL     1       2.265  10.237 -25.635  1.00  0.00    -0.366 N 
HETATM   34  H   UNL     1       2.032  10.744 -26.476  1.00  0.00     0.159 HD
HETATM   35  H   UNL     1       2.884  10.686 -24.973  1.00  0.00     0.159 HD
HETATM   36  O   UNL     1       2.687   8.274 -24.609  1.00  0.00    -0.268 OA
ENDBRANCH  29  32
ENDBRANCH  23  26
ENDBRANCH   3  22
TORSDOF 8
ENDMDL
MODEL 6
REMARK VINA RESULT:      -9.1      2.867      3.971
REMARK  8 active torsions:
REMARK  status: ('A' for Active; 'I' for Inactive)
REMARK    1  A    between atoms: C_2  and  N_3 
REMARK    2  A    between atoms: N_3  and  N_4 
REMARK       I    between atoms: N_4  and  C_5 
REMARK    3  A    between atoms: C_5  and  C_6 
REMARK    4  A    between atoms: C_6  and  O_7 
REMARK    5  A    between atoms: O_7  and  C_8 
REMARK    6  A    between atoms: C_19  and  C_20 
REMARK       I    between atoms: C_20  and  N_21 
REMARK    7  A    between atoms: N_21  and  C_22 
REMARK    8  A    between atoms: C_25  and  C_26 
REMARK       I    between atoms: C_26  and  N_27 
ROOT
HETATM    1  C   UNL     1     -10.020   0.725 -32.722  1.00  0.00     0.070 C 
HETATM    2  C   UNL     1      -9.453   2.112 -32.498  1.00  0.00     0.027 C 
HETATM    3  C   UNL     1     -10.152   3.230 -32.784  1.00  0.00     0.100 C 
ENDROOT
BRANCH   2   4
HETATM    4  N   UNL     1      -8.158   2.118 -31.984  1.00  0.00    -0.302 N 
HETATM    5  H   UNL     1      -7.453   2.350 -32.697  1.00  0.00     0.186 HD
BRANCH   4   6
HETATM    6  N   UNL     1      -7.703   1.186 -31.047  1.00  0.00    -0.268 N 
HETATM    7  C   UNL     1      -6.368   1.103 -30.699  1.00  0.00     0.260 C 
HETATM    8  O   UNL     1      -6.045   0.554 -29.644  1.00  0.00    -0.269 OA
HETATM    9  H   UNL     1      -8.370   0.927 -30.325  1.00  0.00     0.190 HD
BRANCH   7  10
HETATM   10  C   UNL     1      -5.333   1.608 -31.703  1.00  0.00     0.280 C 
BRANCH  10  11
HETATM   11  O   UNL     1      -5.618   1.143 -33.019  1.00  0.00    -0.342 OA
BRANCH  11  12
HETATM   12  C   UNL     1      -5.229  -0.147 -33.271  1.00  0.00     0.070 A 
HETATM   13  C   UNL     1      -6.176  -0.948 -33.913  1.00  0.00     0.049 A 
HETATM   14  C   UNL     1      -5.900  -2.291 -34.221  1.00  0.00    -0.023 A 
HETATM   15  C   UNL     1      -4.650  -2.841 -33.857  1.00  0.00    -0.026 A 
HETATM   16  C   UNL     1      -6.836  -3.102 -34.885  1.00  0.00     0.012 A 
HETATM   17  C   UNL     1      -3.719  -2.035 -33.185  1.00  0.00     0.015 A 
HETATM   18  C   UNL     1      -4.366  -4.180 -34.170  1.00  0.00     0.012 A 
HETATM   19  C   UNL     1      -4.010  -0.700 -32.887  1.00  0.00     0.037 A 
HETATM   20  C   UNL     1      -5.305  -4.970 -34.834  1.00  0.00     0.001 A 
HETATM   21  C   UNL     1      -6.539  -4.432 -35.190  1.00  0.00     0.001 A 
ENDBRANCH  11  12
ENDBRANCH  10  11
ENDBRANCH   7  10
ENDBRANCH   4   6
ENDBRANCH   2   4
BRANCH   3  22
HETATM   22  C   UNL     1     -11.592   3.227 -33.164  1.00  0.00     0.247 C 
HETATM   23  N   UNL     1     -12.417   3.389 -32.070  1.00  0.00    -0.324 N 
HETATM   24  H   UNL     1     -11.974   3.501 -31.167  1.00  0.00     0.169 HD
HETATM   25  O   UNL     1     -11.935   3.049 -34.325  1.00  0.00    -0.268 OA
BRANCH  23  26
HETATM   26  C   UNL     1     -13.828   3.434 -32.075  1.00  0.00     0.035 A 
HETATM   27  C   UNL     1     -14.573   4.601 -31.889  1.00  0.00     0.030 A 
HETATM   28  C   UNL     1     -15.974   4.568 -31.890  1.00  0.00     0.019 A 
HETATM   29  C   UNL     1     -16.648   3.359 -32.073  1.00  0.00     0.032 A 
HETATM   30  C   UNL     1     -15.908   2.189 -32.280  1.00  0.00     0.019 A 
HETATM   31  C   UNL     1     -14.509   2.227 -32.275  1.00  0.00     0.030 A 
BRANCH  29  32
HETATM   32  C   UNL     1     -18.132   3.269 -32.073  1.00  0.00     0.249 C 
HETATM   33  N   UNL     1     -18.823   4.197 -31.346  1.00  0.00    -0.366 N 
HETATM   34  H   UNL     1     -18.386   4.800 -30.664  1.00  0.00     0.159 HD
HETATM   35  H   UNL     1     -19.823   4.058 -31.277  1.00  0.00     0.159 HD
HETATM   36  O   UNL     1     -18.720   2.375 -32.669  1.00  0.00    -0.268 OA
ENDBRANCH  29  32
ENDBRANCH  23  26
ENDBRANCH   3  22
TORSDOF 8
ENDMDL
MODEL 7
REMARK VINA RESULT:      -9.0      4.242      8.316
REMARK  8 active torsions:
REMARK  status: ('A' for Active; 'I' for Inactive)
REMARK    1  A    between atoms: C_2  and  N_3 
REMARK    2  A    between atoms: N_3  and  N_4 
REMARK       I    between atoms: N_4  and  C_5 
REMARK    3  A    between atoms: C_5  and  C_6 
REMARK    4  A    between atoms: C_6  and  O_7 
REMARK    5  A    between atoms: O_7  and  C_8 
REMARK    6  A    between atoms: C_19  and  C_20 
REMARK       I    between atoms: C_20  and  N_21 
REMARK    7  A    between atoms: N_21  and  C_22 
REMARK    8  A    between atoms: C_25  and  C_26 
REMARK       I    between atoms: C_26  and  N_27 
ROOT
HETATM    1  C   UNL     1      -6.779   3.496 -32.463  1.00  0.00     0.070 C 
HETATM    2  C   UNL     1      -5.336   3.663 -32.030  1.00  0.00     0.027 C 
HETATM    3  C   UNL     1      -4.575   2.617 -31.646  1.00  0.00     0.100 C 
ENDROOT
BRANCH   2   4
HETATM    4  N   UNL     1      -4.886   4.981 -32.058  1.00  0.00    -0.302 N 
HETATM    5  H   UNL     1      -5.290   5.551 -31.304  1.00  0.00     0.186 HD
BRANCH   4   6
HETATM    6  N   UNL     1      -4.692   5.697 -33.243  1.00  0.00    -0.268 N 
HETATM    7  C   UNL     1      -3.529   5.576 -33.978  1.00  0.00     0.260 C 
HETATM    8  O   UNL     1      -3.518   5.912 -35.164  1.00  0.00    -0.269 OA
HETATM    9  H   UNL     1      -5.535   5.908 -33.771  1.00  0.00     0.190 HD
BRANCH   7  10
HETATM   10  C   UNL     1      -2.263   5.128 -33.249  1.00  0.00     0.280 C 
BRANCH  10  11
HETATM   11  O   UNL     1      -1.410   6.233 -32.963  1.00  0.00    -0.342 OA
BRANCH  11  12
HETATM   12  C   UNL     1      -0.824   6.201 -31.724  1.00  0.00     0.070 A 
HETATM   13  C   UNL     1      -1.042   7.326 -30.926  1.00  0.00     0.049 A 
HETATM   14  C   UNL     1      -0.489   7.418 -29.637  1.00  0.00    -0.023 A 
HETATM   15  C   UNL     1       0.313   6.360 -29.152  1.00  0.00    -0.026 A 
HETATM   16  C   UNL     1      -0.717   8.534 -28.815  1.00  0.00     0.012 A 
HETATM   17  C   UNL     1       0.550   5.250 -29.975  1.00  0.00     0.015 A 
HETATM   18  C   UNL     1       0.861   6.443 -27.862  1.00  0.00     0.012 A 
HETATM   19  C   UNL     1      -0.008   5.174 -31.255  1.00  0.00     0.037 A 
HETATM   20  C   UNL     1       0.621   7.558 -27.057  1.00  0.00     0.001 A 
HETATM   21  C   UNL     1      -0.166   8.603 -27.534  1.00  0.00     0.001 A 
ENDBRANCH  11  12
ENDBRANCH  10  11
ENDBRANCH   7  10
ENDBRANCH   4   6
ENDBRANCH   2   4
BRANCH   3  22
HETATM   22  C   UNL     1      -4.998   1.195 -31.783  1.00  0.00     0.247 C 
HETATM   23  N   UNL     1      -4.899   0.748 -33.084  1.00  0.00    -0.324 N 
HETATM   24  H   UNL     1      -4.552   1.402 -33.775  1.00  0.00     0.169 HD
HETATM   25  O   UNL     1      -5.419   0.569 -30.819  1.00  0.00    -0.268 OA
BRANCH  23  26
HETATM   26  C   UNL     1      -5.216  -0.542 -33.562  1.00  0.00     0.035 A 
HETATM   27  C   UNL     1      -6.495  -0.930 -33.971  1.00  0.00     0.030 A 
HETATM   28  C   UNL     1      -6.741  -2.235 -34.420  1.00  0.00     0.019 A 
HETATM   29  C   UNL     1      -5.706  -3.171 -34.459  1.00  0.00     0.032 A 
HETATM   30  C   UNL     1      -4.419  -2.784 -34.071  1.00  0.00     0.019 A 
HETATM   31  C   UNL     1      -4.178  -1.480 -33.620  1.00  0.00     0.030 A 
BRANCH  29  32
HETATM   32  C   UNL     1      -5.917  -4.570 -34.918  1.00  0.00     0.249 C 
HETATM   33  N   UNL     1      -7.057  -4.840 -35.622  1.00  0.00    -0.366 N 
HETATM   34  H   UNL     1      -7.838  -4.204 -35.671  1.00  0.00     0.159 HD
HETATM   35  H   UNL     1      -7.230  -5.814 -35.836  1.00  0.00     0.159 HD
HETATM   36  O   UNL     1      -5.121  -5.461 -34.646  1.00  0.00    -0.268 OA
ENDBRANCH  29  32
ENDBRANCH  23  26
ENDBRANCH   3  22
TORSDOF 8
ENDMDL
MODEL 8
REMARK VINA RESULT:      -9.0      3.503      5.334
REMARK  8 active torsions:
REMARK  status: ('A' for Active; 'I' for Inactive)
REMARK    1  A    between atoms: C_2  and  N_3 
REMARK    2  A    between atoms: N_3  and  N_4 
REMARK       I    between atoms: N_4  and  C_5 
REMARK    3  A    between atoms: C_5  and  C_6 
REMARK    4  A    between atoms: C_6  and  O_7 
REMARK    5  A    between atoms: O_7  and  C_8 
REMARK    6  A    between atoms: C_19  and  C_20 
REMARK       I    between atoms: C_20  and  N_21 
REMARK    7  A    between atoms: N_21  and  C_22 
REMARK    8  A    between atoms: C_25  and  C_26 
REMARK       I    between atoms: C_26  and  N_27 
ROOT
HETATM    1  C   UNL     1     -10.940   2.929 -34.211  1.00  0.00     0.070 C 
HETATM    2  C   UNL     1     -11.019   1.447 -33.903  1.00  0.00     0.027 C 
HETATM    3  C   UNL     1     -12.181   0.839 -33.587  1.00  0.00     0.100 C 
ENDROOT
BRANCH   2   4
HETATM    4  N   UNL     1      -9.792   0.790 -33.968  1.00  0.00    -0.302 N 
HETATM    5  H   UNL     1      -9.699   0.215 -34.816  1.00  0.00     0.186 HD
BRANCH   4   6
HETATM    6  N   UNL     1      -9.166   0.226 -32.853  1.00  0.00    -0.268 N 
HETATM    7  C   UNL     1      -8.014   0.769 -32.319  1.00  0.00     0.260 C 
HETATM    8  O   UNL     1      -7.689   0.498 -31.162  1.00  0.00    -0.269 OA
HETATM    9  H   UNL     1      -9.781  -0.250 -32.198  1.00  0.00     0.190 HD
BRANCH   7  10
HETATM   10  C   UNL     1      -7.126   1.608 -33.237  1.00  0.00     0.280 C 
BRANCH  10  11
HETATM   11  O   UNL     1      -6.789   0.897 -34.425  1.00  0.00    -0.342 OA
BRANCH  11  12
HETATM   12  C   UNL     1      -6.028  -0.225 -34.228  1.00  0.00     0.070 A 
HETATM   13  C   UNL     1      -6.576  -1.417 -34.707  1.00  0.00     0.049 A 
HETATM   14  C   UNL     1      -5.895  -2.638 -34.561  1.00  0.00    -0.023 A 
HETATM   15  C   UNL     1      -4.644  -2.657 -33.903  1.00  0.00    -0.026 A 
HETATM   16  C   UNL     1      -6.426  -3.841 -35.054  1.00  0.00     0.012 A 
HETATM   17  C   UNL     1      -4.119  -1.459 -33.399  1.00  0.00     0.015 A 
HETATM   18  C   UNL     1      -3.956  -3.873 -33.761  1.00  0.00     0.012 A 
HETATM   19  C   UNL     1      -4.809  -0.252 -33.554  1.00  0.00     0.037 A 
HETATM   20  C   UNL     1      -4.496  -5.058 -34.262  1.00  0.00     0.001 A 
HETATM   21  C   UNL     1      -5.730  -5.043 -34.907  1.00  0.00     0.001 A 
ENDBRANCH  11  12
ENDBRANCH  10  11
ENDBRANCH   7  10
ENDBRANCH   4   6
ENDBRANCH   2   4
BRANCH   3  22
HETATM   22  C   UNL     1     -13.511   1.501 -33.688  1.00  0.00     0.247 C 
HETATM   23  N   UNL     1     -13.914   2.042 -32.485  1.00  0.00    -0.324 N 
HETATM   24  H   UNL     1     -13.284   1.947 -31.699  1.00  0.00     0.169 HD
HETATM   25  O   UNL     1     -14.141   1.487 -34.738  1.00  0.00    -0.268 OA
BRANCH  23  26
HETATM   26  C   UNL     1     -15.117   2.738 -32.231  1.00  0.00     0.035 A 
HETATM   27  C   UNL     1     -16.381   2.142 -32.246  1.00  0.00     0.030 A 
HETATM   28  C   UNL     1     -17.535   2.898 -32.000  1.00  0.00     0.019 A 
HETATM   29  C   UNL     1     -17.435   4.267 -31.740  1.00  0.00     0.032 A 
HETATM   30  C   UNL     1     -16.172   4.865 -31.703  1.00  0.00     0.019 A 
HETATM   31  C   UNL     1     -15.022   4.106 -31.952  1.00  0.00     0.030 A 
BRANCH  29  32
HETATM   32  C   UNL     1     -18.629   5.114 -31.482  1.00  0.00     0.249 C 
HETATM   33  N   UNL     1     -18.987   6.015 -32.446  1.00  0.00    -0.366 N 
HETATM   34  H   UNL     1     -18.384   6.270 -33.214  1.00  0.00     0.159 HD
HETATM   35  H   UNL     1     -19.739   6.649 -32.209  1.00  0.00     0.159 HD
HETATM   36  O   UNL     1     -19.252   5.042 -30.429  1.00  0.00    -0.268 OA
ENDBRANCH  29  32
ENDBRANCH  23  26
ENDBRANCH   3  22
TORSDOF 8
ENDMDL
MODEL 9
REMARK VINA RESULT:      -9.0      1.654      2.382
REMARK  8 active torsions:
REMARK  status: ('A' for Active; 'I' for Inactive)
REMARK    1  A    between atoms: C_2  and  N_3 
REMARK    2  A    between atoms: N_3  and  N_4 
REMARK       I    between atoms: N_4  and  C_5 
REMARK    3  A    between atoms: C_5  and  C_6 
REMARK    4  A    between atoms: C_6  and  O_7 
REMARK    5  A    between atoms: O_7  and  C_8 
REMARK    6  A    between atoms: C_19  and  C_20 
REMARK       I    between atoms: C_20  and  N_21 
REMARK    7  A    between atoms: N_21  and  C_22 
REMARK    8  A    between atoms: C_25  and  C_26 
REMARK       I    between atoms: C_26  and  N_27 
ROOT
HETATM    1  C   UNL     1      -7.224   4.183 -31.996  1.00  0.00     0.070 C 
HETATM    2  C   UNL     1      -6.540   3.018 -32.682  1.00  0.00     0.027 C 
HETATM    3  C   UNL     1      -7.143   1.821 -32.838  1.00  0.00     0.100 C 
ENDROOT
BRANCH   2   4
HETATM    4  N   UNL     1      -5.248   3.298 -33.119  1.00  0.00    -0.302 N 
HETATM    5  H   UNL     1      -4.868   2.558 -33.724  1.00  0.00     0.186 HD
BRANCH   4   6
HETATM    6  N   UNL     1      -4.278   3.893 -32.307  1.00  0.00    -0.268 N 
HETATM    7  C   UNL     1      -3.245   3.158 -31.758  1.00  0.00     0.260 C 
HETATM    8  O   UNL     1      -2.228   3.732 -31.365  1.00  0.00    -0.269 OA
HETATM    9  H   UNL     1      -4.074   4.868 -32.510  1.00  0.00     0.190 HD
BRANCH   7  10
HETATM   10  C   UNL     1      -3.459   1.658 -31.561  1.00  0.00     0.280 C 
BRANCH  10  11
HETATM   11  O   UNL     1      -3.819   1.020 -32.784  1.00  0.00    -0.342 OA
BRANCH  11  12
HETATM   12  C   UNL     1      -3.714  -0.346 -32.773  1.00  0.00     0.070 A 
HETATM   13  C   UNL     1      -4.503  -1.019 -33.708  1.00  0.00     0.049 A 
HETATM   14  C   UNL     1      -4.488  -2.422 -33.793  1.00  0.00    -0.023 A 
HETATM   15  C   UNL     1      -3.673  -3.159 -32.905  1.00  0.00    -0.026 A 
HETATM   16  C   UNL     1      -5.262  -3.110 -34.742  1.00  0.00     0.012 A 
HETATM   17  C   UNL     1      -2.909  -2.474 -31.950  1.00  0.00     0.015 A 
HETATM   18  C   UNL     1      -3.649  -4.561 -32.992  1.00  0.00     0.012 A 
HETATM   19  C   UNL     1      -2.934  -1.077 -31.880  1.00  0.00     0.037 A 
HETATM   20  C   UNL     1      -4.420  -5.228 -33.944  1.00  0.00     0.001 A 
HETATM   21  C   UNL     1      -5.227  -4.504 -34.817  1.00  0.00     0.001 A 
ENDBRANCH  11  12
ENDBRANCH  10  11
ENDBRANCH   7  10
ENDBRANCH   4   6
ENDBRANCH   2   4
BRANCH   3  22
HETATM   22  C   UNL     1      -8.580   1.575 -32.532  1.00  0.00     0.247 C 
HETATM   23  N   UNL     1      -9.367   1.624 -33.663  1.00  0.00    -0.324 N 
HETATM   24  H   UNL     1      -8.903   1.802 -34.544  1.00  0.00     0.169 HD
HETATM   25  O   UNL     1      -8.956   1.402 -31.380  1.00  0.00    -0.268 OA
BRANCH  23  26
HETATM   26  C   UNL     1     -10.765   1.435 -33.730  1.00  0.00     0.035 A 
HETATM   27  C   UNL     1     -11.407   0.239 -33.399  1.00  0.00     0.030 A 
HETATM   28  C   UNL     1     -12.800   0.118 -33.503  1.00  0.00     0.019 A 
HETATM   29  C   UNL     1     -13.567   1.197 -33.948  1.00  0.00     0.032 A 
HETATM   30  C   UNL     1     -12.932   2.404 -34.262  1.00  0.00     0.019 A 
HETATM   31  C   UNL     1     -11.541   2.519 -34.158  1.00  0.00     0.030 A 
BRANCH  29  32
HETATM   32  C   UNL     1     -15.045   1.117 -34.086  1.00  0.00     0.249 C 
HETATM   33  N   UNL     1     -15.804   1.807 -33.182  1.00  0.00    -0.366 N 
HETATM   34  H   UNL     1     -15.429   2.192 -32.328  1.00  0.00     0.159 HD
HETATM   35  H   UNL     1     -16.803   1.658 -33.230  1.00  0.00     0.159 HD
HETATM   36  O   UNL     1     -15.572   0.429 -34.951  1.00  0.00    -0.268 OA
ENDBRANCH  29  32
ENDBRANCH  23  26
ENDBRANCH   3  22
TORSDOF 8
ENDMDL
MODEL 10
REMARK VINA RESULT:      -8.9      1.679      2.414
REMARK  8 active torsions:
REMARK  status: ('A' for Active; 'I' for Inactive)
REMARK    1  A    between atoms: C_2  and  N_3 
REMARK    2  A    between atoms: N_3  and  N_4 
REMARK       I    between atoms: N_4  and  C_5 
REMARK    3  A    between atoms: C_5  and  C_6 
REMARK    4  A    between atoms: C_6  and  O_7 
REMARK    5  A    between atoms: O_7  and  C_8 
REMARK    6  A    between atoms: C_19  and  C_20 
REMARK       I    between atoms: C_20  and  N_21 
REMARK    7  A    between atoms: N_21  and  C_22 
REMARK    8  A    between atoms: C_25  and  C_26 
REMARK       I    between atoms: C_26  and  N_27 
ROOT
HETATM    1  C   UNL     1      -6.727   4.425 -31.413  1.00  0.00     0.070 C 
HETATM    2  C   UNL     1      -6.378   4.945 -32.793  1.00  0.00     0.027 C 
HETATM    3  C   UNL     1      -7.249   4.894 -33.822  1.00  0.00     0.100 C 
ENDROOT
BRANCH   2   4
HETATM    4  N   UNL     1      -5.089   5.462 -32.894  1.00  0.00    -0.302 N 
HETATM    5  H   UNL     1      -4.593   5.125 -33.730  1.00  0.00     0.186 HD
BRANCH   4   6
HETATM    6  N   UNL     1      -4.247   5.637 -31.792  1.00  0.00    -0.268 N 
HETATM    7  C   UNL     1      -3.086   4.902 -31.645  1.00  0.00     0.260 C 
HETATM    8  O   UNL     1      -2.197   5.307 -30.893  1.00  0.00    -0.269 OA
HETATM    9  H   UNL     1      -4.238   6.571 -31.389  1.00  0.00     0.190 HD
BRANCH   7  10
HETATM   10  C   UNL     1      -3.002   3.548 -32.348  1.00  0.00     0.280 C 
BRANCH  10  11
HETATM   11  O   UNL     1      -3.273   2.478 -31.446  1.00  0.00    -0.342 OA
BRANCH  11  12
HETATM   12  C   UNL     1      -3.804   1.356 -32.027  1.00  0.00     0.070 A 
HETATM   13  C   UNL     1      -4.926   1.568 -32.831  1.00  0.00     0.049 A 
HETATM   14  C   UNL     1      -5.567   0.497 -33.478  1.00  0.00    -0.023 A 
HETATM   15  C   UNL     1      -5.075  -0.815 -33.295  1.00  0.00    -0.026 A 
HETATM   16  C   UNL     1      -6.684   0.699 -34.306  1.00  0.00     0.012 A 
HETATM   17  C   UNL     1      -3.967  -1.018 -32.460  1.00  0.00     0.015 A 
HETATM   18  C   UNL     1      -5.706  -1.887 -33.946  1.00  0.00     0.012 A 
HETATM   19  C   UNL     1      -3.340   0.059 -31.825  1.00  0.00     0.037 A 
HETATM   20  C   UNL     1      -6.812  -1.668 -34.768  1.00  0.00     0.001 A 
HETATM   21  C   UNL     1      -7.302  -0.377 -34.947  1.00  0.00     0.001 A 
ENDBRANCH  11  12
ENDBRANCH  10  11
ENDBRANCH   7  10
ENDBRANCH   4   6
ENDBRANCH   2   4
BRANCH   3  22
HETATM   22  C   UNL     1      -8.680   4.506 -33.673  1.00  0.00     0.247 C 
HETATM   23  N   UNL     1      -8.945   3.278 -34.242  1.00  0.00    -0.324 N 
HETATM   24  H   UNL     1      -8.171   2.787 -34.670  1.00  0.00     0.169 HD
HETATM   25  O   UNL     1      -9.483   5.258 -33.137  1.00  0.00    -0.268 OA
BRANCH  23  26
HETATM   26  C   UNL     1     -10.191   2.614 -34.278  1.00  0.00     0.035 A 
HETATM   27  C   UNL     1     -11.287   3.051 -35.027  1.00  0.00     0.030 A 
HETATM   28  C   UNL     1     -12.500   2.350 -35.003  1.00  0.00     0.019 A 
HETATM   29  C   UNL     1     -12.632   1.201 -34.221  1.00  0.00     0.032 A 
HETATM   30  C   UNL     1     -11.533   0.746 -33.484  1.00  0.00     0.019 A 
HETATM   31  C   UNL     1     -10.324   1.452 -33.509  1.00  0.00     0.030 A 
BRANCH  29  32
HETATM   32  C   UNL     1     -13.900   0.427 -34.153  1.00  0.00     0.249 C 
HETATM   33  N   UNL     1     -13.893  -0.739 -33.441  1.00  0.00    -0.366 N 
HETATM   34  H   UNL     1     -13.045  -1.193 -33.135  1.00  0.00     0.159 HD
HETATM   35  H   UNL     1     -14.734  -1.299 -33.491  1.00  0.00     0.159 HD
HETATM   36  O   UNL     1     -14.907   0.795 -34.745  1.00  0.00    -0.268 OA
ENDBRANCH  29  32
ENDBRANCH  23  26
ENDBRANCH   3  22
TORSDOF 8
ENDMDL
