MODEL 1
REMARK VINA RESULT:      -9.1      0.000      0.000
REMARK  4 active torsions:
REMARK  status: ('A' for Active; 'I' for Inactive)
REMARK    1  A    between atoms: C_8  and  C_9 
REMARK    2  A    between atoms: C_9  and  C_10 
REMARK       I    between atoms: C_10  and  N_11 
REMARK    3  A    between atoms: N_11  and  C_12 
REMARK    4  A    between atoms: C_14  and  C_15 
ROOT
HETATM    1  C   UNL     1      -8.251   0.105 -34.213  1.00  0.00     0.226 C 
HETATM    2  N   UNL     1      -8.915   1.233 -34.672  1.00  0.00    -0.327 N 
HETATM    3  O   UNL     1      -8.411  -0.443 -33.124  1.00  0.00    -0.273 OA
HETATM    4  H   UNL     1      -8.700   1.524 -35.618  1.00  0.00     0.169 HD
ENDROOT
BRANCH   2   5
HETATM    5  C   UNL     1      -9.878   2.004 -33.984  1.00  0.00     0.035 A 
HETATM    6  C   UNL     1     -11.217   1.583 -34.063  1.00  0.00     0.042 A 
HETATM    7  C   UNL     1     -12.249   2.299 -33.431  1.00  0.00    -0.021 A 
HETATM    8  C   UNL     1     -11.914   3.444 -32.701  1.00  0.00     0.012 A 
HETATM    9  C   UNL     1     -10.588   3.868 -32.612  1.00  0.00     0.003 A 
HETATM   10  C   UNL     1      -9.576   3.152 -33.253  1.00  0.00     0.029 A 
BRANCH   7  11
HETATM   11  C   UNL     1     -13.642   1.885 -33.536  1.00  0.00     0.010 A 
HETATM   12  C   UNL     1     -14.260   0.924 -34.376  1.00  0.00     0.152 A 
HETATM   13  N   UNL     1     -15.576   0.825 -34.179  1.00  0.00    -0.187 NA
HETATM   14  N   UNL     1     -15.815   1.724 -33.212  1.00  0.00    -0.289 N 
HETATM   15  H   UNL     1     -16.769   1.836 -32.886  1.00  0.00     0.188 HD
HETATM   16  C   UNL     1     -14.694   2.383 -32.794  1.00  0.00     0.123 A 
ENDBRANCH   7  11
ENDBRANCH   2   5
BRANCH   1  17
HETATM   17  C   UNL     1      -7.214  -0.414 -35.199  1.00  0.00     0.144 C 
BRANCH  17  18
HETATM   18  C   UNL     1      -6.066  -1.085 -34.516  1.00  0.00    -0.021 A 
HETATM   19  C   UNL     1      -5.740  -2.480 -34.536  1.00  0.00    -0.001 A 
HETATM   20  C   UNL     1      -6.321  -3.620 -35.131  1.00  0.00     0.014 A 
HETATM   21  C   UNL     1      -4.572  -2.646 -33.790  1.00  0.00     0.042 A 
HETATM   22  C   UNL     1      -5.720  -4.873 -34.958  1.00  0.00     0.001 A 
HETATM   23  C   UNL     1      -4.555  -5.003 -34.207  1.00  0.00     0.002 A 
HETATM   24  C   UNL     1      -3.958  -3.892 -33.607  1.00  0.00     0.030 A 
HETATM   25  N   UNL     1      -4.202  -1.405 -33.331  1.00  0.00    -0.365 N 
HETATM   26  H   UNL     1      -3.385  -1.221 -32.766  1.00  0.00     0.165 HD
HETATM   27  C   UNL     1      -5.088  -0.459 -33.766  1.00  0.00     0.097 A 
ENDBRANCH  17  18
ENDBRANCH   1  17
TORSDOF 4
ENDMDL
MODEL 2
REMARK VINA RESULT:      -9.1      1.660      8.835
REMARK  4 active torsions:
REMARK  status: ('A' for Active; 'I' for Inactive)
REMARK    1  A    between atoms: C_8  and  C_9 
REMARK    2  A    between atoms: C_9  and  C_10 
REMARK       I    between atoms: C_10  and  N_11 
REMARK    3  A    between atoms: N_11  and  C_12 
REMARK    4  A    between atoms: C_14  and  C_15 
ROOT
HETATM    1  C   UNL     1     -10.091   1.319 -34.024  1.00  0.00     0.226 C 
HETATM    2  N   UNL     1      -9.016   1.001 -34.841  1.00  0.00    -0.327 N 
HETATM    3  O   UNL     1     -10.113   1.270 -32.796  1.00  0.00    -0.273 OA
HETATM    4  H   UNL     1      -9.151   1.149 -35.834  1.00  0.00     0.169 HD
ENDROOT
BRANCH   2   5
HETATM    5  C   UNL     1      -7.747   0.524 -34.446  1.00  0.00     0.035 A 
HETATM    6  C   UNL     1      -7.462  -0.830 -34.690  1.00  0.00     0.042 A 
HETATM    7  C   UNL     1      -6.234  -1.401 -34.312  1.00  0.00    -0.021 A 
HETATM    8  C   UNL     1      -5.282  -0.583 -33.693  1.00  0.00     0.012 A 
HETATM    9  C   UNL     1      -5.553   0.765 -33.451  1.00  0.00     0.003 A 
HETATM   10  C   UNL     1      -6.781   1.313 -33.824  1.00  0.00     0.029 A 
BRANCH   7  11
HETATM   11  C   UNL     1      -5.946  -2.812 -34.533  1.00  0.00     0.010 A 
HETATM   12  C   UNL     1      -6.785  -3.869 -34.969  1.00  0.00     0.152 A 
HETATM   13  N   UNL     1      -6.151  -5.041 -35.050  1.00  0.00    -0.187 NA
HETATM   14  N   UNL     1      -4.900  -4.746 -34.664  1.00  0.00    -0.289 N 
HETATM   15  H   UNL     1      -4.216  -5.495 -34.642  1.00  0.00     0.188 HD
HETATM   16  C   UNL     1      -4.726  -3.430 -34.345  1.00  0.00     0.123 A 
ENDBRANCH   7  11
ENDBRANCH   2   5
BRANCH   1  17
HETATM   17  C   UNL     1     -11.332   1.721 -34.807  1.00  0.00     0.144 C 
BRANCH  17  18
HETATM   18  C   UNL     1     -12.595   1.406 -34.072  1.00  0.00    -0.021 A 
HETATM   19  C   UNL     1     -13.451   2.328 -33.385  1.00  0.00    -0.001 A 
HETATM   20  C   UNL     1     -13.422   3.719 -33.159  1.00  0.00     0.014 A 
HETATM   21  C   UNL     1     -14.525   1.597 -32.874  1.00  0.00     0.042 A 
HETATM   22  C   UNL     1     -14.457   4.325 -32.436  1.00  0.00     0.001 A 
HETATM   23  C   UNL     1     -15.514   3.566 -31.940  1.00  0.00     0.002 A 
HETATM   24  C   UNL     1     -15.569   2.186 -32.149  1.00  0.00     0.030 A 
HETATM   25  N   UNL     1     -14.332   0.284 -33.232  1.00  0.00    -0.365 N 
HETATM   26  H   UNL     1     -14.961  -0.473 -33.002  1.00  0.00     0.165 HD
HETATM   27  C   UNL     1     -13.180   0.159 -33.957  1.00  0.00     0.097 A 
ENDBRANCH  17  18
ENDBRANCH   1  17
TORSDOF 4
ENDMDL
MODEL 3
REMARK VINA RESULT:      -8.7      5.074      8.717
REMARK  4 active torsions:
REMARK  status: ('A' for Active; 'I' for Inactive)
REMARK    1  A    between atoms: C_8  and  C_9 
REMARK    2  A    between atoms: C_9  and  C_10 
REMARK       I    between atoms: C_10  and  N_11 
REMARK    3  A    between atoms: N_11  and  C_12 
REMARK    4  A    between atoms: C_14  and  C_15 
ROOT
HETATM    1  C   UNL     1      -4.528   1.987 -31.654  1.00  0.00     0.226 C 
HETATM    2  N   UNL     1      -4.306   1.205 -32.778  1.00  0.00    -0.327 N 
HETATM    3  O   UNL     1      -5.598   2.133 -31.068  1.00  0.00    -0.273 OA
HETATM    4  H   UNL     1      -3.348   1.154 -33.105  1.00  0.00     0.169 HD
ENDROOT
BRANCH   2   5
HETATM    5  C   UNL     1      -5.254   0.447 -33.501  1.00  0.00     0.035 A 
HETATM    6  C   UNL     1      -5.000  -0.926 -33.654  1.00  0.00     0.042 A 
HETATM    7  C   UNL     1      -5.875  -1.757 -34.377  1.00  0.00    -0.021 A 
HETATM    8  C   UNL     1      -7.024  -1.188 -34.935  1.00  0.00     0.012 A 
HETATM    9  C   UNL     1      -7.288   0.174 -34.784  1.00  0.00     0.003 A 
HETATM   10  C   UNL     1      -6.405   0.987 -34.073  1.00  0.00     0.029 A 
BRANCH   7  11
HETATM   11  C   UNL     1      -5.600  -3.176 -34.566  1.00  0.00     0.010 A 
HETATM   12  C   UNL     1      -6.386  -4.199 -35.154  1.00  0.00     0.152 A 
HETATM   13  N   UNL     1      -5.786  -5.392 -35.143  1.00  0.00    -0.187 NA
HETATM   14  N   UNL     1      -4.611  -5.144 -34.545  1.00  0.00    -0.289 N 
HETATM   15  H   UNL     1      -3.966  -5.916 -34.416  1.00  0.00     0.188 HD
HETATM   16  C   UNL     1      -4.451  -3.837 -34.181  1.00  0.00     0.123 A 
ENDBRANCH   7  11
ENDBRANCH   2   5
BRANCH   1  17
HETATM   17  C   UNL     1      -3.282   2.731 -31.195  1.00  0.00     0.144 C 
BRANCH  17  18
HETATM   18  C   UNL     1      -3.041   3.977 -31.984  1.00  0.00    -0.021 A 
HETATM   19  C   UNL     1      -1.961   4.906 -31.829  1.00  0.00    -0.001 A 
HETATM   20  C   UNL     1      -0.851   4.992 -30.963  1.00  0.00     0.014 A 
HETATM   21  C   UNL     1      -2.122   5.898 -32.798  1.00  0.00     0.042 A 
HETATM   22  C   UNL     1       0.049   6.057 -31.095  1.00  0.00     0.001 A 
HETATM   23  C   UNL     1      -0.142   7.030 -32.073  1.00  0.00     0.002 A 
HETATM   24  C   UNL     1      -1.233   6.970 -32.943  1.00  0.00     0.030 A 
HETATM   25  N   UNL     1      -3.255   5.589 -33.513  1.00  0.00    -0.365 N 
HETATM   26  H   UNL     1      -3.613   6.132 -34.286  1.00  0.00     0.165 HD
HETATM   27  C   UNL     1      -3.811   4.434 -33.037  1.00  0.00     0.097 A 
ENDBRANCH  17  18
ENDBRANCH   1  17
TORSDOF 4
ENDMDL
MODEL 4
REMARK VINA RESULT:      -8.6      4.362      7.003
REMARK  4 active torsions:
REMARK  status: ('A' for Active; 'I' for Inactive)
REMARK    1  A    between atoms: C_8  and  C_9 
REMARK    2  A    between atoms: C_9  and  C_10 
REMARK       I    between atoms: C_10  and  N_11 
REMARK    3  A    between atoms: N_11  and  C_12 
REMARK    4  A    between atoms: C_14  and  C_15 
ROOT
HETATM    1  C   UNL     1      -6.865   1.455 -33.375  1.00  0.00     0.226 C 
HETATM    2  N   UNL     1      -6.543   2.583 -34.116  1.00  0.00    -0.327 N 
HETATM    3  O   UNL     1      -6.997   1.398 -32.154  1.00  0.00    -0.273 OA
HETATM    4  H   UNL     1      -6.526   2.466 -35.122  1.00  0.00     0.169 HD
ENDROOT
BRANCH   2   5
HETATM    5  C   UNL     1      -6.267   3.881 -33.632  1.00  0.00     0.035 A 
HETATM    6  C   UNL     1      -4.970   4.382 -33.835  1.00  0.00     0.042 A 
HETATM    7  C   UNL     1      -4.594   5.655 -33.369  1.00  0.00    -0.021 A 
HETATM    8  C   UNL     1      -5.551   6.428 -32.702  1.00  0.00     0.012 A 
HETATM    9  C   UNL     1      -6.843   5.941 -32.499  1.00  0.00     0.003 A 
HETATM   10  C   UNL     1      -7.197   4.672 -32.959  1.00  0.00     0.029 A 
BRANCH   7  11
HETATM   11  C   UNL     1      -3.242   6.167 -33.549  1.00  0.00     0.010 A 
HETATM   12  C   UNL     1      -2.220   5.779 -34.453  1.00  0.00     0.152 A 
HETATM   13  N   UNL     1      -1.101   6.493 -34.313  1.00  0.00    -0.187 NA
HETATM   14  N   UNL     1      -1.394   7.343 -33.318  1.00  0.00    -0.289 N 
HETATM   15  H   UNL     1      -0.681   8.001 -33.023  1.00  0.00     0.188 HD
HETATM   16  C   UNL     1      -2.659   7.189 -32.827  1.00  0.00     0.123 A 
ENDBRANCH   7  11
ENDBRANCH   2   5
BRANCH   1  17
HETATM   17  C   UNL     1      -7.013   0.206 -34.231  1.00  0.00     0.144 C 
BRANCH  17  18
HETATM   18  C   UNL     1      -5.890  -0.760 -34.025  1.00  0.00    -0.021 A 
HETATM   19  C   UNL     1      -5.900  -2.169 -34.286  1.00  0.00    -0.001 A 
HETATM   20  C   UNL     1      -6.866  -3.075 -34.770  1.00  0.00     0.014 A 
HETATM   21  C   UNL     1      -4.630  -2.658 -33.978  1.00  0.00     0.042 A 
HETATM   22  C   UNL     1      -6.532  -4.426 -34.924  1.00  0.00     0.001 A 
HETATM   23  C   UNL     1      -5.255  -4.882 -34.606  1.00  0.00     0.002 A 
HETATM   24  C   UNL     1      -4.278  -4.006 -34.125  1.00  0.00     0.030 A 
HETATM   25  N   UNL     1      -3.877  -1.593 -33.544  1.00  0.00    -0.365 N 
HETATM   26  H   UNL     1      -2.909  -1.652 -33.257  1.00  0.00     0.165 HD
HETATM   27  C   UNL     1      -4.621  -0.447 -33.574  1.00  0.00     0.097 A 
ENDBRANCH  17  18
ENDBRANCH   1  17
TORSDOF 4
ENDMDL
MODEL 5
REMARK VINA RESULT:      -8.4      5.770      9.121
REMARK  4 active torsions:
REMARK  status: ('A' for Active; 'I' for Inactive)
REMARK    1  A    between atoms: C_8  and  C_9 
REMARK    2  A    between atoms: C_9  and  C_10 
REMARK       I    between atoms: C_10  and  N_11 
REMARK    3  A    between atoms: N_11  and  C_12 
REMARK    4  A    between atoms: C_14  and  C_15 
ROOT
HETATM    1  C   UNL     1      -3.729   1.198 -31.077  1.00  0.00     0.226 C 
HETATM    2  N   UNL     1      -4.026   2.509 -31.419  1.00  0.00    -0.327 N 
HETATM    3  O   UNL     1      -2.634   0.649 -31.175  1.00  0.00    -0.273 OA
HETATM    4  H   UNL     1      -4.971   2.818 -31.224  1.00  0.00     0.169 HD
ENDROOT
BRANCH   2   5
HETATM    5  C   UNL     1      -3.155   3.471 -31.977  1.00  0.00     0.035 A 
HETATM    6  C   UNL     1      -2.493   4.335 -31.088  1.00  0.00     0.042 A 
HETATM    7  C   UNL     1      -1.625   5.339 -31.551  1.00  0.00    -0.021 A 
HETATM    8  C   UNL     1      -1.418   5.456 -32.930  1.00  0.00     0.012 A 
HETATM    9  C   UNL     1      -2.067   4.600 -33.821  1.00  0.00     0.003 A 
HETATM   10  C   UNL     1      -2.933   3.615 -33.346  1.00  0.00     0.029 A 
BRANCH   7  11
HETATM   11  C   UNL     1      -0.961   6.258 -30.635  1.00  0.00     0.010 A 
HETATM   12  C   UNL     1      -1.488   7.079 -29.607  1.00  0.00     0.152 A 
HETATM   13  N   UNL     1      -0.552   7.793 -28.976  1.00  0.00    -0.187 NA
HETATM   14  N   UNL     1       0.583   7.436 -29.597  1.00  0.00    -0.289 N 
HETATM   15  H   UNL     1       1.452   7.858 -29.287  1.00  0.00     0.188 HD
HETATM   16  C   UNL     1       0.393   6.523 -30.594  1.00  0.00     0.123 A 
ENDBRANCH   7  11
ENDBRANCH   2   5
BRANCH   1  17
HETATM   17  C   UNL     1      -4.943   0.426 -30.580  1.00  0.00     0.144 C 
BRANCH  17  18
HETATM   18  C   UNL     1      -5.850   0.015 -31.694  1.00  0.00    -0.021 A 
HETATM   19  C   UNL     1      -5.577  -0.941 -32.727  1.00  0.00    -0.001 A 
HETATM   20  C   UNL     1      -4.469  -1.751 -33.052  1.00  0.00     0.014 A 
HETATM   21  C   UNL     1      -6.718  -1.028 -33.527  1.00  0.00     0.042 A 
HETATM   22  C   UNL     1      -4.541  -2.611 -34.155  1.00  0.00     0.001 A 
HETATM   23  C   UNL     1      -5.695  -2.673 -34.932  1.00  0.00     0.002 A 
HETATM   24  C   UNL     1      -6.806  -1.881 -34.633  1.00  0.00     0.030 A 
HETATM   25  N   UNL     1      -7.648  -0.161 -33.005  1.00  0.00    -0.365 N 
HETATM   26  H   UNL     1      -8.576  -0.020 -33.380  1.00  0.00     0.165 HD
HETATM   27  C   UNL     1      -7.140   0.466 -31.901  1.00  0.00     0.097 A 
ENDBRANCH  17  18
ENDBRANCH   1  17
TORSDOF 4
ENDMDL
MODEL 6
REMARK VINA RESULT:      -8.3      2.113      3.257
REMARK  4 active torsions:
REMARK  status: ('A' for Active; 'I' for Inactive)
REMARK    1  A    between atoms: C_8  and  C_9 
REMARK    2  A    between atoms: C_9  and  C_10 
REMARK       I    between atoms: C_10  and  N_11 
REMARK    3  A    between atoms: N_11  and  C_12 
REMARK    4  A    between atoms: C_14  and  C_15 
ROOT
HETATM    1  C   UNL     1      -8.315   0.186 -34.224  1.00  0.00     0.226 C 
HETATM    2  N   UNL     1      -9.199   1.112 -34.758  1.00  0.00    -0.327 N 
HETATM    3  O   UNL     1      -8.340  -0.272 -33.084  1.00  0.00    -0.273 OA
HETATM    4  H   UNL     1      -9.067   1.345 -35.735  1.00  0.00     0.169 HD
ENDROOT
BRANCH   2   5
HETATM    5  C   UNL     1     -10.281   1.745 -34.105  1.00  0.00     0.035 A 
HETATM    6  C   UNL     1      -9.973   2.758 -33.181  1.00  0.00     0.042 A 
HETATM    7  C   UNL     1     -10.981   3.429 -32.466  1.00  0.00    -0.021 A 
HETATM    8  C   UNL     1     -12.314   3.075 -32.704  1.00  0.00     0.012 A 
HETATM    9  C   UNL     1     -12.630   2.074 -33.623  1.00  0.00     0.003 A 
HETATM   10  C   UNL     1     -11.617   1.411 -34.317  1.00  0.00     0.029 A 
BRANCH   7  11
HETATM   11  C   UNL     1     -10.665   4.458 -31.483  1.00  0.00     0.010 A 
HETATM   12  C   UNL     1     -11.111   5.799 -31.375  1.00  0.00     0.152 A 
HETATM   13  N   UNL     1     -10.592   6.440 -30.325  1.00  0.00    -0.187 NA
HETATM   14  N   UNL     1      -9.807   5.515 -29.752  1.00  0.00    -0.289 N 
HETATM   15  H   UNL     1      -9.293   5.772 -28.916  1.00  0.00     0.188 HD
HETATM   16  C   UNL     1      -9.815   4.315 -30.405  1.00  0.00     0.123 A 
ENDBRANCH   7  11
ENDBRANCH   2   5
BRANCH   1  17
HETATM   17  C   UNL     1      -7.219  -0.216 -35.200  1.00  0.00     0.144 C 
BRANCH  17  18
HETATM   18  C   UNL     1      -6.093  -0.932 -34.525  1.00  0.00    -0.021 A 
HETATM   19  C   UNL     1      -5.819  -2.338 -34.552  1.00  0.00    -0.001 A 
HETATM   20  C   UNL     1      -6.445  -3.453 -35.148  1.00  0.00     0.014 A 
HETATM   21  C   UNL     1      -4.654  -2.550 -33.813  1.00  0.00     0.042 A 
HETATM   22  C   UNL     1      -5.890  -4.728 -34.983  1.00  0.00     0.001 A 
HETATM   23  C   UNL     1      -4.727  -4.905 -34.238  1.00  0.00     0.002 A 
HETATM   24  C   UNL     1      -4.087  -3.818 -33.637  1.00  0.00     0.030 A 
HETATM   25  N   UNL     1      -4.236  -1.325 -33.351  1.00  0.00    -0.365 N 
HETATM   26  H   UNL     1      -3.410  -1.174 -32.789  1.00  0.00     0.165 HD
HETATM   27  C   UNL     1      -5.088  -0.345 -33.778  1.00  0.00     0.097 A 
ENDBRANCH  17  18
ENDBRANCH   1  17
TORSDOF 4
ENDMDL
MODEL 7
REMARK VINA RESULT:      -8.3      2.029      8.769
REMARK  4 active torsions:
REMARK  status: ('A' for Active; 'I' for Inactive)
REMARK    1  A    between atoms: C_8  and  C_9 
REMARK    2  A    between atoms: C_9  and  C_10 
REMARK       I    between atoms: C_10  and  N_11 
REMARK    3  A    between atoms: N_11  and  C_12 
REMARK    4  A    between atoms: C_14  and  C_15 
ROOT
HETATM    1  C   UNL     1      -9.162   2.200 -32.973  1.00  0.00     0.226 C 
HETATM    2  N   UNL     1      -8.326   1.833 -34.017  1.00  0.00    -0.327 N 
HETATM    3  O   UNL     1      -9.283   1.619 -31.897  1.00  0.00    -0.273 OA
HETATM    4  H   UNL     1      -8.310   2.455 -34.817  1.00  0.00     0.169 HD
ENDROOT
BRANCH   2   5
HETATM    5  C   UNL     1      -7.472   0.709 -34.081  1.00  0.00     0.035 A 
HETATM    6  C   UNL     1      -6.334   0.717 -33.256  1.00  0.00     0.042 A 
HETATM    7  C   UNL     1      -5.414  -0.346 -33.268  1.00  0.00    -0.021 A 
HETATM    8  C   UNL     1      -5.661  -1.432 -34.115  1.00  0.00     0.012 A 
HETATM    9  C   UNL     1      -6.790  -1.451 -34.935  1.00  0.00     0.003 A 
HETATM   10  C   UNL     1      -7.689  -0.384 -34.919  1.00  0.00     0.029 A 
BRANCH   7  11
HETATM   11  C   UNL     1      -4.216  -0.329 -32.437  1.00  0.00     0.010 A 
HETATM   12  C   UNL     1      -3.679   0.690 -31.611  1.00  0.00     0.152 A 
HETATM   13  N   UNL     1      -2.549   0.327 -31.000  1.00  0.00    -0.187 NA
HETATM   14  N   UNL     1      -2.350  -0.927 -31.431  1.00  0.00    -0.289 N 
HETATM   15  H   UNL     1      -1.532  -1.425 -31.098  1.00  0.00     0.188 HD
HETATM   16  C   UNL     1      -3.316  -1.366 -32.292  1.00  0.00     0.123 A 
ENDBRANCH   7  11
ENDBRANCH   2   5
BRANCH   1  17
HETATM   17  C   UNL     1     -10.003   3.428 -33.292  1.00  0.00     0.144 C 
BRANCH  17  18
HETATM   18  C   UNL     1     -11.419   3.281 -32.834  1.00  0.00    -0.021 A 
HETATM   19  C   UNL     1     -12.412   2.391 -33.360  1.00  0.00    -0.001 A 
HETATM   20  C   UNL     1     -12.430   1.436 -34.397  1.00  0.00     0.014 A 
HETATM   21  C   UNL     1     -13.574   2.573 -32.607  1.00  0.00     0.042 A 
HETATM   22  C   UNL     1     -13.599   0.705 -34.645  1.00  0.00     0.001 A 
HETATM   23  C   UNL     1     -14.741   0.912 -33.876  1.00  0.00     0.002 A 
HETATM   24  C   UNL     1     -14.751   1.851 -32.842  1.00  0.00     0.030 A 
HETATM   25  N   UNL     1     -13.302   3.535 -31.664  1.00  0.00    -0.365 N 
HETATM   26  H   UNL     1     -13.962   3.866 -30.974  1.00  0.00     0.165 HD
HETATM   27  C   UNL     1     -12.010   3.962 -31.787  1.00  0.00     0.097 A 
ENDBRANCH  17  18
ENDBRANCH   1  17
TORSDOF 4
ENDMDL
MODEL 8
REMARK VINA RESULT:      -8.2      2.072      8.979
REMARK  4 active torsions:
REMARK  status: ('A' for Active; 'I' for Inactive)
REMARK    1  A    between atoms: C_8  and  C_9 
REMARK    2  A    between atoms: C_9  and  C_10 
REMARK       I    between atoms: C_10  and  N_11 
REMARK    3  A    between atoms: N_11  and  C_12 
REMARK    4  A    between atoms: C_14  and  C_15 
ROOT
HETATM    1  C   UNL     1     -10.069   1.194 -33.991  1.00  0.00     0.226 C 
HETATM    2  N   UNL     1      -8.994   0.919 -34.822  1.00  0.00    -0.327 N 
HETATM    3  O   UNL     1     -10.114   1.022 -32.775  1.00  0.00    -0.273 OA
HETATM    4  H   UNL     1      -9.106   1.171 -35.797  1.00  0.00     0.169 HD
ENDROOT
BRANCH   2   5
HETATM    5  C   UNL     1      -7.749   0.357 -34.461  1.00  0.00     0.035 A 
HETATM    6  C   UNL     1      -6.870   1.161 -33.716  1.00  0.00     0.042 A 
HETATM    7  C   UNL     1      -5.600   0.697 -33.330  1.00  0.00    -0.021 A 
HETATM    8  C   UNL     1      -5.227  -0.602 -33.694  1.00  0.00     0.012 A 
HETATM    9  C   UNL     1      -6.094  -1.410 -34.430  1.00  0.00     0.003 A 
HETATM   10  C   UNL     1      -7.347  -0.931 -34.814  1.00  0.00     0.029 A 
BRANCH   7  11
HETATM   11  C   UNL     1      -4.673   1.538 -32.583  1.00  0.00     0.010 A 
HETATM   12  C   UNL     1      -3.584   1.193 -31.743  1.00  0.00     0.152 A 
HETATM   13  N   UNL     1      -2.963   2.257 -31.228  1.00  0.00    -0.187 NA
HETATM   14  N   UNL     1      -3.650   3.293 -31.733  1.00  0.00    -0.289 N 
HETATM   15  H   UNL     1      -3.360   4.231 -31.477  1.00  0.00     0.188 HD
HETATM   16  C   UNL     1      -4.680   2.918 -32.547  1.00  0.00     0.123 A 
ENDBRANCH   7  11
ENDBRANCH   2   5
BRANCH   1  17
HETATM   17  C   UNL     1     -11.282   1.720 -34.746  1.00  0.00     0.144 C 
BRANCH  17  18
HETATM   18  C   UNL     1     -12.566   1.402 -34.050  1.00  0.00    -0.021 A 
HETATM   19  C   UNL     1     -13.428   2.316 -33.360  1.00  0.00    -0.001 A 
HETATM   20  C   UNL     1     -13.387   3.701 -33.097  1.00  0.00     0.014 A 
HETATM   21  C   UNL     1     -14.523   1.586 -32.896  1.00  0.00     0.042 A 
HETATM   22  C   UNL     1     -14.432   4.301 -32.383  1.00  0.00     0.001 A 
HETATM   23  C   UNL     1     -15.510   3.543 -31.934  1.00  0.00     0.002 A 
HETATM   24  C   UNL     1     -15.576   2.170 -32.181  1.00  0.00     0.030 A 
HETATM   25  N   UNL     1     -14.337   0.281 -33.284  1.00  0.00    -0.365 N 
HETATM   26  H   UNL     1     -14.980  -0.474 -33.090  1.00  0.00     0.165 HD
HETATM   27  C   UNL     1     -13.169   0.160 -33.984  1.00  0.00     0.097 A 
ENDBRANCH  17  18
ENDBRANCH   1  17
TORSDOF 4
ENDMDL
MODEL 9
REMARK VINA RESULT:      -8.0     13.901     15.260
REMARK  4 active torsions:
REMARK  status: ('A' for Active; 'I' for Inactive)
REMARK    1  A    between atoms: C_8  and  C_9 
REMARK    2  A    between atoms: C_9  and  C_10 
REMARK       I    between atoms: C_10  and  N_11 
REMARK    3  A    between atoms: N_11  and  C_12 
REMARK    4  A    between atoms: C_14  and  C_15 
ROOT
HETATM    1  C   UNL     1      -5.248 -13.981 -36.229  1.00  0.00     0.226 C 
HETATM    2  N   UNL     1      -5.511 -12.778 -36.867  1.00  0.00    -0.327 N 
HETATM    3  O   UNL     1      -5.318 -15.102 -36.729  1.00  0.00    -0.273 OA
HETATM    4  H   UNL     1      -5.353 -11.939 -36.322  1.00  0.00     0.169 HD
ENDROOT
BRANCH   2   5
HETATM    5  C   UNL     1      -5.944 -12.586 -38.198  1.00  0.00     0.035 A 
HETATM    6  C   UNL     1      -7.318 -12.727 -38.456  1.00  0.00     0.042 A 
HETATM    7  C   UNL     1      -7.840 -12.577 -39.753  1.00  0.00    -0.021 A 
HETATM    8  C   UNL     1      -6.957 -12.269 -40.794  1.00  0.00     0.012 A 
HETATM    9  C   UNL     1      -5.591 -12.123 -40.548  1.00  0.00     0.003 A 
HETATM   10  C   UNL     1      -5.088 -12.284 -39.256  1.00  0.00     0.029 A 
BRANCH   7  11
HETATM   11  C   UNL     1      -9.260 -12.753 -40.031  1.00  0.00     0.010 A 
HETATM   12  C   UNL     1     -10.072 -13.914 -39.992  1.00  0.00     0.152 A 
HETATM   13  N   UNL     1     -11.344 -13.674 -40.317  1.00  0.00    -0.187 NA
HETATM   14  N   UNL     1     -11.358 -12.356 -40.569  1.00  0.00    -0.289 N 
HETATM   15  H   UNL     1     -12.236 -11.930 -40.845  1.00  0.00     0.188 HD
HETATM   16  C   UNL     1     -10.139 -11.760 -40.413  1.00  0.00     0.123 A 
ENDBRANCH   7  11
ENDBRANCH   2   5
BRANCH   1  17
HETATM   17  C   UNL     1      -4.882 -13.806 -34.762  1.00  0.00     0.144 C 
BRANCH  17  18
HETATM   18  C   UNL     1      -5.777 -14.590 -33.857  1.00  0.00    -0.021 A 
HETATM   19  C   UNL     1      -5.392 -15.614 -32.930  1.00  0.00    -0.001 A 
HETATM   20  C   UNL     1      -4.164 -16.209 -32.574  1.00  0.00     0.014 A 
HETATM   21  C   UNL     1      -6.549 -16.043 -32.279  1.00  0.00     0.042 A 
HETATM   22  C   UNL     1      -4.138 -17.204 -31.589  1.00  0.00     0.001 A 
HETATM   23  C   UNL     1      -5.311 -17.609 -30.958  1.00  0.00     0.002 A 
HETATM   24  C   UNL     1      -6.541 -17.037 -31.292  1.00  0.00     0.030 A 
HETATM   25  N   UNL     1      -7.598 -15.313 -32.787  1.00  0.00    -0.365 N 
HETATM   26  H   UNL     1      -8.560 -15.408 -32.493  1.00  0.00     0.165 HD
HETATM   27  C   UNL     1      -7.145 -14.433 -33.730  1.00  0.00     0.097 A 
ENDBRANCH  17  18
ENDBRANCH   1  17
TORSDOF 4
ENDMDL
MODEL 10
REMARK VINA RESULT:      -7.9      2.019      3.012
REMARK  4 active torsions:
REMARK  status: ('A' for Active; 'I' for Inactive)
REMARK    1  A    between atoms: C_8  and  C_9 
REMARK    2  A    between atoms: C_9  and  C_10 
REMARK       I    between atoms: C_10  and  N_11 
REMARK    3  A    between atoms: N_11  and  C_12 
REMARK    4  A    between atoms: C_14  and  C_15 
ROOT
HETATM    1  C   UNL     1      -9.458   0.835 -34.042  1.00  0.00     0.226 C 
HETATM    2  N   UNL     1     -10.584   1.415 -34.608  1.00  0.00    -0.327 N 
HETATM    3  O   UNL     1      -9.405   0.248 -32.964  1.00  0.00    -0.273 OA
HETATM    4  H   UNL     1     -10.465   1.814 -35.532  1.00  0.00     0.169 HD
ENDROOT
BRANCH   2   5
HETATM    5  C   UNL     1     -11.884   1.485 -34.060  1.00  0.00     0.035 A 
HETATM    6  C   UNL     1     -12.179   2.588 -33.240  1.00  0.00     0.042 A 
HETATM    7  C   UNL     1     -13.438   2.733 -32.631  1.00  0.00    -0.021 A 
HETATM    8  C   UNL     1     -14.409   1.754 -32.869  1.00  0.00     0.012 A 
HETATM    9  C   UNL     1     -14.128   0.658 -33.686  1.00  0.00     0.003 A 
HETATM   10  C   UNL     1     -12.870   0.524 -34.274  1.00  0.00     0.029 A 
BRANCH   7  11
HETATM   11  C   UNL     1     -13.739   3.858 -31.755  1.00  0.00     0.010 A 
HETATM   12  C   UNL     1     -13.319   4.135 -30.429  1.00  0.00     0.152 A 
HETATM   13  N   UNL     1     -13.812   5.280 -29.953  1.00  0.00    -0.187 NA
HETATM   14  N   UNL     1     -14.554   5.747 -30.968  1.00  0.00    -0.289 N 
HETATM   15  H   UNL     1     -15.043   6.627 -30.841  1.00  0.00     0.188 HD
HETATM   16  C   UNL     1     -14.544   4.935 -32.067  1.00  0.00     0.123 A 
ENDBRANCH   7  11
ENDBRANCH   2   5
BRANCH   1  17
HETATM   17  C   UNL     1      -8.206   1.025 -34.886  1.00  0.00     0.144 C 
BRANCH  17  18
HETATM   18  C   UNL     1      -6.961   0.650 -34.148  1.00  0.00    -0.021 A 
HETATM   19  C   UNL     1      -6.266  -0.602 -34.202  1.00  0.00    -0.001 A 
HETATM   20  C   UNL     1      -6.476  -1.818 -34.885  1.00  0.00     0.014 A 
HETATM   21  C   UNL     1      -5.144  -0.491 -33.379  1.00  0.00     0.042 A 
HETATM   22  C   UNL     1      -5.567  -2.871 -34.720  1.00  0.00     0.001 A 
HETATM   23  C   UNL     1      -4.458  -2.727 -33.891  1.00  0.00     0.002 A 
HETATM   24  C   UNL     1      -4.225  -1.534 -33.202  1.00  0.00     0.030 A 
HETATM   25  N   UNL     1      -5.156   0.774 -32.842  1.00  0.00    -0.365 N 
HETATM   26  H   UNL     1      -4.455   1.137 -32.211  1.00  0.00     0.165 HD
HETATM   27  C   UNL     1      -6.239   1.470 -33.302  1.00  0.00     0.097 A 
ENDBRANCH  17  18
ENDBRANCH   1  17
TORSDOF 4
ENDMDL
