MODEL 1
REMARK VINA RESULT:      -7.8      0.000      0.000
REMARK  5 active torsions:
REMARK  status: ('A' for Active; 'I' for Inactive)
REMARK    1  A    between atoms: C_2  and  O_3 
REMARK    2  A    between atoms: O_3  and  C_4 
REMARK    3  A    between atoms: C_10  and  N_11 
REMARK       I    between atoms: N_11  and  C_12 
REMARK       I    between atoms: C_12  and  N_13 
REMARK    4  A    between atoms: N_13  and  C_14 
REMARK    5  A    between atoms: C_14  and  C_15 
ROOT
HETATM    1  N   UNL     1      -5.874  -0.427 -33.989  1.00  0.00    -0.306 N 
HETATM    2  C   UNL     1      -6.631   0.534 -34.599  1.00  0.00     0.321 C 
HETATM    3  N   UNL     1      -6.474   1.808 -34.143  1.00  0.00    -0.337 N 
HETATM    4  O   UNL     1      -7.443   0.362 -35.503  1.00  0.00    -0.247 OA
HETATM    5  H   UNL     1      -5.068  -0.108 -33.454  1.00  0.00     0.171 HD
HETATM    6  H   UNL     1      -7.074   2.462 -34.628  1.00  0.00     0.164 HD
ENDROOT
BRANCH   1   7
HETATM    7  C   UNL     1      -5.893  -1.824 -34.227  1.00  0.00     0.071 A 
HETATM    8  C   UNL     1      -4.714  -2.553 -33.971  1.00  0.00     0.117 A 
HETATM    9  C   UNL     1      -4.643  -3.916 -34.303  1.00  0.00     0.069 A 
HETATM   10 CL   UNL     1      -3.176  -4.821 -34.175  1.00  0.00    -0.081 Cl
HETATM   11  C   UNL     1      -5.771  -4.576 -34.790  1.00  0.00     0.027 A 
HETATM   12  C   UNL     1      -6.961  -3.876 -34.971  1.00  0.00     0.004 A 
HETATM   13  C   UNL     1      -7.019  -2.507 -34.698  1.00  0.00     0.032 A 
BRANCH   8  14
HETATM   14  O   UNL     1      -3.629  -1.867 -33.472  1.00  0.00    -0.343 OA
BRANCH  14  15
HETATM   15  C   UNL     1      -3.598  -1.846 -32.031  1.00  0.00     0.121 C 
HETATM   16  C   UNL     1      -3.098  -0.492 -31.533  1.00  0.00     0.040 C 
HETATM   17  C   UNL     1      -2.645  -2.952 -31.588  1.00  0.00     0.040 C 
ENDBRANCH  14  15
ENDBRANCH   8  14
ENDBRANCH   1   7
BRANCH   3  18
HETATM   18  C   UNL     1      -5.758   2.270 -32.972  1.00  0.00     0.183 C 
BRANCH  18  19
HETATM   19  C   UNL     1      -4.781   3.374 -33.297  1.00  0.00     0.053 A 
HETATM   20  N   UNL     1      -5.162   4.255 -34.257  1.00  0.00    -0.264 NA
HETATM   21  C   UNL     1      -4.335   5.288 -34.530  1.00  0.00     0.118 A 
HETATM   22  C   UNL     1      -3.129   5.490 -33.892  1.00  0.00     0.043 A 
HETATM   23  C   UNL     1      -2.764   4.578 -32.911  1.00  0.00     0.037 A 
HETATM   24 CL   UNL     1      -1.274   4.779 -32.075  1.00  0.00    -0.084 Cl
HETATM   25  C   UNL     1      -3.592   3.508 -32.593  1.00  0.00     0.052 A 
ENDBRANCH  18  19
ENDBRANCH   3  18
TORSDOF 5
ENDMDL
MODEL 2
REMARK VINA RESULT:      -7.7      2.158      3.060
REMARK  5 active torsions:
REMARK  status: ('A' for Active; 'I' for Inactive)
REMARK    1  A    between atoms: C_2  and  O_3 
REMARK    2  A    between atoms: O_3  and  C_4 
REMARK    3  A    between atoms: C_10  and  N_11 
REMARK       I    between atoms: N_11  and  C_12 
REMARK       I    between atoms: C_12  and  N_13 
REMARK    4  A    between atoms: N_13  and  C_14 
REMARK    5  A    between atoms: C_14  and  C_15 
ROOT
HETATM    1  N   UNL     1      -5.069   1.949 -33.004  1.00  0.00    -0.306 N 
HETATM    2  C   UNL     1      -5.423   2.908 -32.097  1.00  0.00     0.321 C 
HETATM    3  N   UNL     1      -4.409   3.659 -31.582  1.00  0.00    -0.337 N 
HETATM    4  O   UNL     1      -6.556   3.149 -31.692  1.00  0.00    -0.247 OA
HETATM    5  H   UNL     1      -4.150   2.041 -33.437  1.00  0.00     0.171 HD
HETATM    6  H   UNL     1      -4.742   4.335 -30.908  1.00  0.00     0.164 HD
ENDROOT
BRANCH   1   7
HETATM    7  C   UNL     1      -5.912   1.001 -33.636  1.00  0.00     0.071 A 
HETATM    8  C   UNL     1      -5.408  -0.300 -33.835  1.00  0.00     0.117 A 
HETATM    9  C   UNL     1      -6.156  -1.241 -34.562  1.00  0.00     0.069 A 
HETATM   10 CL   UNL     1      -5.522  -2.792 -34.987  1.00  0.00    -0.081 Cl
HETATM   11  C   UNL     1      -7.442  -0.924 -35.000  1.00  0.00     0.027 A 
HETATM   12  C   UNL     1      -7.974   0.336 -34.737  1.00  0.00     0.004 A 
HETATM   13  C   UNL     1      -7.209   1.295 -34.066  1.00  0.00     0.032 A 
BRANCH   8  14
HETATM   14  O   UNL     1      -4.142  -0.578 -33.371  1.00  0.00    -0.343 OA
BRANCH  14  15
HETATM   15  C   UNL     1      -4.147  -1.164 -32.054  1.00  0.00     0.121 C 
HETATM   16  C   UNL     1      -3.470  -0.228 -31.056  1.00  0.00     0.040 C 
HETATM   17  C   UNL     1      -3.376  -2.477 -32.147  1.00  0.00     0.040 C 
ENDBRANCH  14  15
ENDBRANCH   8  14
ENDBRANCH   1   7
BRANCH   3  18
HETATM   18  C   UNL     1      -2.980   3.464 -31.713  1.00  0.00     0.183 C 
BRANCH  18  19
HETATM   19  C   UNL     1      -2.276   4.706 -32.202  1.00  0.00     0.053 A 
HETATM   20  N   UNL     1      -2.838   5.341 -33.262  1.00  0.00    -0.264 NA
HETATM   21  C   UNL     1      -2.264   6.489 -33.687  1.00  0.00     0.118 A 
HETATM   22  C   UNL     1      -1.141   7.041 -33.107  1.00  0.00     0.043 A 
HETATM   23  C   UNL     1      -0.588   6.375 -32.022  1.00  0.00     0.037 A 
HETATM   24 CL   UNL     1       0.810   7.017 -31.251  1.00  0.00    -0.084 Cl
HETATM   25  C   UNL     1      -1.155   5.198 -31.548  1.00  0.00     0.052 A 
ENDBRANCH  18  19
ENDBRANCH   3  18
TORSDOF 5
ENDMDL
MODEL 3
REMARK VINA RESULT:      -7.7      3.188      7.063
REMARK  5 active torsions:
REMARK  status: ('A' for Active; 'I' for Inactive)
REMARK    1  A    between atoms: C_2  and  O_3 
REMARK    2  A    between atoms: O_3  and  C_4 
REMARK    3  A    between atoms: C_10  and  N_11 
REMARK       I    between atoms: N_11  and  C_12 
REMARK       I    between atoms: C_12  and  N_13 
REMARK    4  A    between atoms: N_13  and  C_14 
REMARK    5  A    between atoms: C_14  and  C_15 
ROOT
HETATM    1  N   UNL     1      -6.749   0.190 -33.073  1.00  0.00    -0.306 N 
HETATM    2  C   UNL     1      -6.188  -0.204 -31.891  1.00  0.00     0.321 C 
HETATM    3  N   UNL     1      -4.910  -0.673 -31.954  1.00  0.00    -0.337 N 
HETATM    4  O   UNL     1      -6.723  -0.189 -30.787  1.00  0.00    -0.247 OA
HETATM    5  H   UNL     1      -6.112   0.371 -33.849  1.00  0.00     0.171 HD
HETATM    6  H   UNL     1      -4.566  -0.960 -31.047  1.00  0.00     0.164 HD
ENDROOT
BRANCH   1   7
HETATM    7  C   UNL     1      -8.070   0.652 -33.293  1.00  0.00     0.071 A 
HETATM    8  C   UNL     1      -8.237   1.932 -33.860  1.00  0.00     0.117 A 
HETATM    9  C   UNL     1      -9.522   2.483 -33.987  1.00  0.00     0.069 A 
HETATM   10 CL   UNL     1      -9.780   4.110 -34.511  1.00  0.00    -0.081 Cl
HETATM   11  C   UNL     1     -10.645   1.726 -33.649  1.00  0.00     0.027 A 
HETATM   12  C   UNL     1     -10.487   0.432 -33.161  1.00  0.00     0.004 A 
HETATM   13  C   UNL     1      -9.207  -0.099 -32.978  1.00  0.00     0.032 A 
BRANCH   8  14
HETATM   14  O   UNL     1      -7.105   2.638 -34.197  1.00  0.00    -0.343 OA
BRANCH  14  15
HETATM   15  C   UNL     1      -6.673   3.531 -33.152  1.00  0.00     0.121 C 
HETATM   16  C   UNL     1      -6.746   4.980 -33.630  1.00  0.00     0.040 C 
HETATM   17  C   UNL     1      -5.230   3.163 -32.817  1.00  0.00     0.040 C 
ENDBRANCH  14  15
ENDBRANCH   8  14
ENDBRANCH   1   7
BRANCH   3  18
HETATM   18  C   UNL     1      -4.120  -0.997 -33.123  1.00  0.00     0.183 C 
BRANCH  18  19
HETATM   19  C   UNL     1      -4.293  -2.434 -33.551  1.00  0.00     0.053 A 
HETATM   20  N   UNL     1      -3.431  -3.333 -33.011  1.00  0.00    -0.264 NA
HETATM   21  C   UNL     1      -3.597  -4.636 -33.328  1.00  0.00     0.118 A 
HETATM   22  C   UNL     1      -4.587  -5.096 -34.171  1.00  0.00     0.043 A 
HETATM   23  C   UNL     1      -5.459  -4.158 -34.706  1.00  0.00     0.037 A 
HETATM   24 CL   UNL     1      -6.719  -4.671 -35.760  1.00  0.00    -0.084 Cl
HETATM   25  C   UNL     1      -5.328  -2.810 -34.395  1.00  0.00     0.052 A 
ENDBRANCH  18  19
ENDBRANCH   3  18
TORSDOF 5
ENDMDL
MODEL 4
REMARK VINA RESULT:      -7.6      4.249      6.447
REMARK  5 active torsions:
REMARK  status: ('A' for Active; 'I' for Inactive)
REMARK    1  A    between atoms: C_2  and  O_3 
REMARK    2  A    between atoms: O_3  and  C_4 
REMARK    3  A    between atoms: C_10  and  N_11 
REMARK       I    between atoms: N_11  and  C_12 
REMARK       I    between atoms: C_12  and  N_13 
REMARK    4  A    between atoms: N_13  and  C_14 
REMARK    5  A    between atoms: C_14  and  C_15 
ROOT
HETATM    1  N   UNL     1      -6.981   1.877 -32.610  1.00  0.00    -0.306 N 
HETATM    2  C   UNL     1      -7.951   2.292 -31.741  1.00  0.00     0.321 C 
HETATM    3  N   UNL     1      -9.107   2.751 -32.298  1.00  0.00    -0.337 N 
HETATM    4  O   UNL     1      -7.879   2.304 -30.516  1.00  0.00    -0.247 OA
HETATM    5  H   UNL     1      -7.274   1.676 -33.566  1.00  0.00     0.171 HD
HETATM    6  H   UNL     1      -9.771   3.055 -31.598  1.00  0.00     0.164 HD
ENDROOT
BRANCH   1   7
HETATM    7  C   UNL     1      -5.677   1.421 -32.298  1.00  0.00     0.071 A 
HETATM    8  C   UNL     1      -5.390   0.055 -32.497  1.00  0.00     0.117 A 
HETATM    9  C   UNL     1      -4.153  -0.471 -32.092  1.00  0.00     0.069 A 
HETATM   10 CL   UNL     1      -3.807  -2.164 -32.149  1.00  0.00    -0.081 Cl
HETATM   11  C   UNL     1      -3.166   0.375 -31.586  1.00  0.00     0.027 A 
HETATM   12  C   UNL     1      -3.418   1.739 -31.460  1.00  0.00     0.004 A 
HETATM   13  C   UNL     1      -4.669   2.256 -31.807  1.00  0.00     0.032 A 
BRANCH   8  14
HETATM   14  O   UNL     1      -6.386  -0.742 -33.017  1.00  0.00    -0.343 OA
BRANCH  14  15
HETATM   15  C   UNL     1      -6.204  -1.017 -34.419  1.00  0.00     0.121 C 
HETATM   16  C   UNL     1      -7.180  -0.189 -35.252  1.00  0.00     0.040 C 
HETATM   17  C   UNL     1      -6.477  -2.505 -34.622  1.00  0.00     0.040 C 
ENDBRANCH  14  15
ENDBRANCH   8  14
ENDBRANCH   1   7
BRANCH   3  18
HETATM   18  C   UNL     1      -9.390   3.045 -33.687  1.00  0.00     0.183 C 
BRANCH  18  19
HETATM   19  C   UNL     1     -10.758   2.564 -34.106  1.00  0.00     0.053 A 
HETATM   20  N   UNL     1     -11.413   3.325 -35.020  1.00  0.00    -0.264 NA
HETATM   21  C   UNL     1     -12.615   2.891 -35.459  1.00  0.00     0.118 A 
HETATM   22  C   UNL     1     -13.210   1.725 -35.025  1.00  0.00     0.043 A 
HETATM   23  C   UNL     1     -12.519   0.962 -34.094  1.00  0.00     0.037 A 
HETATM   24 CL   UNL     1     -13.206  -0.507 -33.518  1.00  0.00    -0.084 Cl
HETATM   25  C   UNL     1     -11.275   1.369 -33.626  1.00  0.00     0.052 A 
ENDBRANCH  18  19
ENDBRANCH   3  18
TORSDOF 5
ENDMDL
MODEL 5
REMARK VINA RESULT:      -7.5      3.548      5.319
REMARK  5 active torsions:
REMARK  status: ('A' for Active; 'I' for Inactive)
REMARK    1  A    between atoms: C_2  and  O_3 
REMARK    2  A    between atoms: O_3  and  C_4 
REMARK    3  A    between atoms: C_10  and  N_11 
REMARK       I    between atoms: N_11  and  C_12 
REMARK       I    between atoms: C_12  and  N_13 
REMARK    4  A    between atoms: N_13  and  C_14 
REMARK    5  A    between atoms: C_14  and  C_15 
ROOT
HETATM    1  N   UNL     1      -5.612   1.276 -30.929  1.00  0.00    -0.306 N 
HETATM    2  C   UNL     1      -5.298   2.605 -30.862  1.00  0.00     0.321 C 
HETATM    3  N   UNL     1      -6.223   3.417 -30.279  1.00  0.00    -0.337 N 
HETATM    4  O   UNL     1      -4.276   3.137 -31.286  1.00  0.00    -0.247 OA
HETATM    5  H   UNL     1      -6.353   0.946 -30.312  1.00  0.00     0.171 HD
HETATM    6  H   UNL     1      -5.932   4.386 -30.278  1.00  0.00     0.164 HD
ENDROOT
BRANCH   1   7
HETATM    7  C   UNL     1      -4.863   0.238 -31.536  1.00  0.00     0.071 A 
HETATM    8  C   UNL     1      -5.411  -0.397 -32.669  1.00  0.00     0.117 A 
HETATM    9  C   UNL     1      -4.765  -1.509 -33.234  1.00  0.00     0.069 A 
HETATM   10 CL   UNL     1      -5.472  -2.434 -34.512  1.00  0.00    -0.081 Cl
HETATM   11  C   UNL     1      -3.528  -1.925 -32.740  1.00  0.00     0.027 A 
HETATM   12  C   UNL     1      -2.947  -1.251 -31.669  1.00  0.00     0.004 A 
HETATM   13  C   UNL     1      -3.614  -0.181 -31.066  1.00  0.00     0.032 A 
BRANCH   8  14
HETATM   14  O   UNL     1      -6.624   0.057 -33.136  1.00  0.00    -0.343 OA
BRANCH  14  15
HETATM   15  C   UNL     1      -6.517   0.720 -34.411  1.00  0.00     0.121 C 
HETATM   16  C   UNL     1      -6.559   2.235 -34.224  1.00  0.00     0.040 C 
HETATM   17  C   UNL     1      -7.705   0.264 -35.253  1.00  0.00     0.040 C 
ENDBRANCH  14  15
ENDBRANCH   8  14
ENDBRANCH   1   7
BRANCH   3  18
HETATM   18  C   UNL     1      -7.582   3.108 -29.886  1.00  0.00     0.183 C 
BRANCH  18  19
HETATM   19  C   UNL     1      -8.517   3.043 -31.070  1.00  0.00     0.053 A 
HETATM   20  N   UNL     1      -8.718   4.204 -31.746  1.00  0.00    -0.264 NA
HETATM   21  C   UNL     1      -9.504   4.167 -32.845  1.00  0.00     0.118 A 
HETATM   22  C   UNL     1     -10.113   3.019 -33.308  1.00  0.00     0.043 A 
HETATM   23  C   UNL     1      -9.889   1.845 -32.603  1.00  0.00     0.037 A 
HETATM   24 CL   UNL     1     -10.618   0.380 -33.135  1.00  0.00    -0.084 Cl
HETATM   25  C   UNL     1      -9.079   1.840 -31.474  1.00  0.00     0.052 A 
ENDBRANCH  18  19
ENDBRANCH   3  18
TORSDOF 5
ENDMDL
MODEL 6
REMARK VINA RESULT:      -7.3      4.468      7.177
REMARK  5 active torsions:
REMARK  status: ('A' for Active; 'I' for Inactive)
REMARK    1  A    between atoms: C_2  and  O_3 
REMARK    2  A    between atoms: O_3  and  C_4 
REMARK    3  A    between atoms: C_10  and  N_11 
REMARK       I    between atoms: N_11  and  C_12 
REMARK       I    between atoms: C_12  and  N_13 
REMARK    4  A    between atoms: N_13  and  C_14 
REMARK    5  A    between atoms: C_14  and  C_15 
ROOT
HETATM    1  N   UNL     1      -7.659   1.931 -32.705  1.00  0.00    -0.306 N 
HETATM    2  C   UNL     1      -8.432   1.877 -31.578  1.00  0.00     0.321 C 
HETATM    3  N   UNL     1      -9.433   0.954 -31.574  1.00  0.00    -0.337 N 
HETATM    4  O   UNL     1      -8.322   2.585 -30.581  1.00  0.00    -0.247 OA
HETATM    5  H   UNL     1      -7.693   1.124 -33.326  1.00  0.00     0.171 HD
HETATM    6  H   UNL     1      -9.972   0.981 -30.719  1.00  0.00     0.164 HD
ENDROOT
BRANCH   1   7
HETATM    7  C   UNL     1      -6.605   2.834 -32.989  1.00  0.00     0.071 A 
HETATM    8  C   UNL     1      -5.346   2.584 -32.405  1.00  0.00     0.117 A 
HETATM    9  C   UNL     1      -4.303   3.512 -32.557  1.00  0.00     0.069 A 
HETATM   10 CL   UNL     1      -2.796   3.350 -31.726  1.00  0.00    -0.081 Cl
HETATM   11  C   UNL     1      -4.476   4.631 -33.372  1.00  0.00     0.027 A 
HETATM   12  C   UNL     1      -5.694   4.840 -34.014  1.00  0.00     0.004 A 
HETATM   13  C   UNL     1      -6.754   3.951 -33.817  1.00  0.00     0.032 A 
BRANCH   8  14
HETATM   14  O   UNL     1      -5.212   1.459 -31.623  1.00  0.00    -0.343 OA
BRANCH  14  15
HETATM   15  C   UNL     1      -4.423   0.432 -32.256  1.00  0.00     0.121 C 
HETATM   16  C   UNL     1      -5.326  -0.682 -32.780  1.00  0.00     0.040 C 
HETATM   17  C   UNL     1      -3.474  -0.120 -31.196  1.00  0.00     0.040 C 
ENDBRANCH  14  15
ENDBRANCH   8  14
ENDBRANCH   1   7
BRANCH   3  18
HETATM   18  C   UNL     1      -9.923   0.143 -32.670  1.00  0.00     0.183 C 
BRANCH  18  19
HETATM   19  C   UNL     1     -10.978   0.856 -33.481  1.00  0.00     0.053 A 
HETATM   20  N   UNL     1     -10.562   1.924 -34.209  1.00  0.00    -0.264 NA
HETATM   21  C   UNL     1     -11.470   2.548 -34.991  1.00  0.00     0.118 A 
HETATM   22  C   UNL     1     -12.791   2.162 -35.083  1.00  0.00     0.043 A 
HETATM   23  C   UNL     1     -13.192   1.065 -34.332  1.00  0.00     0.037 A 
HETATM   24 CL   UNL     1     -14.826   0.532 -34.408  1.00  0.00    -0.084 Cl
HETATM   25  C   UNL     1     -12.285   0.390 -33.524  1.00  0.00     0.052 A 
ENDBRANCH  18  19
ENDBRANCH   3  18
TORSDOF 5
ENDMDL
MODEL 7
REMARK VINA RESULT:      -7.3     14.162     16.293
REMARK  5 active torsions:
REMARK  status: ('A' for Active; 'I' for Inactive)
REMARK    1  A    between atoms: C_2  and  O_3 
REMARK    2  A    between atoms: O_3  and  C_4 
REMARK    3  A    between atoms: C_10  and  N_11 
REMARK       I    between atoms: N_11  and  C_12 
REMARK       I    between atoms: C_12  and  N_13 
REMARK    4  A    between atoms: N_13  and  C_14 
REMARK    5  A    between atoms: C_14  and  C_15 
ROOT
HETATM    1  N   UNL     1      -3.994 -13.754 -38.470  1.00  0.00    -0.306 N 
HETATM    2  C   UNL     1      -4.526 -12.505 -38.312  1.00  0.00     0.321 C 
HETATM    3  N   UNL     1      -5.699 -12.428 -37.623  1.00  0.00    -0.337 N 
HETATM    4  O   UNL     1      -4.062 -11.453 -38.741  1.00  0.00    -0.247 OA
HETATM    5  H   UNL     1      -4.338 -14.483 -37.846  1.00  0.00     0.171 HD
HETATM    6  H   UNL     1      -6.042 -11.479 -37.560  1.00  0.00     0.164 HD
ENDROOT
BRANCH   1   7
HETATM    7  C   UNL     1      -2.830 -14.115 -39.192  1.00  0.00     0.071 A 
HETATM    8  C   UNL     1      -2.997 -14.726 -40.451  1.00  0.00     0.117 A 
HETATM    9  C   UNL     1      -1.881 -15.210 -41.152  1.00  0.00     0.069 A 
HETATM   10 CL   UNL     1      -2.034 -16.120 -42.614  1.00  0.00    -0.081 Cl
HETATM   11  C   UNL     1      -0.595 -14.997 -40.653  1.00  0.00     0.027 A 
HETATM   12  C   UNL     1      -0.422 -14.325 -39.446  1.00  0.00     0.004 A 
HETATM   13  C   UNL     1      -1.533 -13.893 -38.717  1.00  0.00     0.032 A 
BRANCH   8  14
HETATM   14  O   UNL     1      -4.281 -14.900 -40.916  1.00  0.00    -0.343 OA
BRANCH  14  15
HETATM   15  C   UNL     1      -4.680 -13.877 -41.848  1.00  0.00     0.121 C 
HETATM   16  C   UNL     1      -6.000 -13.247 -41.410  1.00  0.00     0.040 C 
HETATM   17  C   UNL     1      -4.849 -14.551 -43.207  1.00  0.00     0.040 C 
ENDBRANCH  14  15
ENDBRANCH   8  14
ENDBRANCH   1   7
BRANCH   3  18
HETATM   18  C   UNL     1      -6.569 -13.503 -37.192  1.00  0.00     0.183 C 
BRANCH  18  19
HETATM   19  C   UNL     1      -7.733 -13.708 -38.131  1.00  0.00     0.053 A 
HETATM   20  N   UNL     1      -8.167 -14.985 -38.286  1.00  0.00    -0.264 NA
HETATM   21  C   UNL     1      -9.244 -15.194 -39.075  1.00  0.00     0.118 A 
HETATM   22  C   UNL     1      -9.917 -14.185 -39.731  1.00  0.00     0.043 A 
HETATM   23  C   UNL     1      -9.457 -12.888 -39.554  1.00  0.00     0.037 A 
HETATM   24 CL   UNL     1     -10.258 -11.585 -40.341  1.00  0.00    -0.084 Cl
HETATM   25  C   UNL     1      -8.359 -12.630 -38.741  1.00  0.00     0.052 A 
ENDBRANCH  18  19
ENDBRANCH   3  18
TORSDOF 5
ENDMDL
MODEL 8
REMARK VINA RESULT:      -7.3      5.055      8.135
REMARK  5 active torsions:
REMARK  status: ('A' for Active; 'I' for Inactive)
REMARK    1  A    between atoms: C_2  and  O_3 
REMARK    2  A    between atoms: O_3  and  C_4 
REMARK    3  A    between atoms: C_10  and  N_11 
REMARK       I    between atoms: N_11  and  C_12 
REMARK       I    between atoms: C_12  and  N_13 
REMARK    4  A    between atoms: N_13  and  C_14 
REMARK    5  A    between atoms: C_14  and  C_15 
ROOT
HETATM    1  N   UNL     1      -9.834   1.131 -33.535  1.00  0.00    -0.306 N 
HETATM    2  C   UNL     1      -9.014   0.833 -32.483  1.00  0.00     0.321 C 
HETATM    3  N   UNL     1      -7.695   0.653 -32.775  1.00  0.00    -0.337 N 
HETATM    4  O   UNL     1      -9.349   0.699 -31.310  1.00  0.00    -0.247 OA
HETATM    5  H   UNL     1      -9.387   1.468 -34.387  1.00  0.00     0.171 HD
HETATM    6  H   UNL     1      -7.153   0.420 -31.954  1.00  0.00     0.164 HD
ENDROOT
BRANCH   1   7
HETATM    7  C   UNL     1     -11.240   1.303 -33.515  1.00  0.00     0.071 A 
HETATM    8  C   UNL     1     -11.744   2.607 -33.340  1.00  0.00     0.117 A 
HETATM    9  C   UNL     1     -13.125   2.815 -33.193  1.00  0.00     0.069 A 
HETATM   10 CL   UNL     1     -13.789   4.363 -32.803  1.00  0.00    -0.081 Cl
HETATM   11  C   UNL     1     -14.011   1.745 -33.323  1.00  0.00     0.027 A 
HETATM   12  C   UNL     1     -13.521   0.466 -33.574  1.00  0.00     0.004 A 
HETATM   13  C   UNL     1     -12.144   0.245 -33.662  1.00  0.00     0.032 A 
BRANCH   8  14
HETATM   14  O   UNL     1     -10.837   3.638 -33.235  1.00  0.00    -0.343 OA
BRANCH  14  15
HETATM   15  C   UNL     1     -10.942   4.585 -34.316  1.00  0.00     0.121 C 
HETATM   16  C   UNL     1     -11.256   3.862 -35.624  1.00  0.00     0.040 C 
HETATM   17  C   UNL     1      -9.595   5.295 -34.421  1.00  0.00     0.040 C 
ENDBRANCH  14  15
ENDBRANCH   8  14
ENDBRANCH   1   7
BRANCH   3  18
HETATM   18  C   UNL     1      -7.061   0.542 -34.073  1.00  0.00     0.183 C 
BRANCH  18  19
HETATM   19  C   UNL     1      -6.243  -0.720 -34.203  1.00  0.00     0.053 A 
HETATM   20  N   UNL     1      -4.965  -0.660 -33.751  1.00  0.00    -0.264 NA
HETATM   21  C   UNL     1      -4.224  -1.790 -33.800  1.00  0.00     0.118 A 
HETATM   22  C   UNL     1      -4.696  -2.991 -34.288  1.00  0.00     0.043 A 
HETATM   23  C   UNL     1      -6.008  -3.027 -34.740  1.00  0.00     0.037 A 
HETATM   24 CL   UNL     1      -6.656  -4.498 -35.355  1.00  0.00    -0.084 Cl
HETATM   25  C   UNL     1      -6.805  -1.889 -34.696  1.00  0.00     0.052 A 
ENDBRANCH  18  19
ENDBRANCH   3  18
TORSDOF 5
ENDMDL
MODEL 9
REMARK VINA RESULT:      -7.2      3.244      4.710
REMARK  5 active torsions:
REMARK  status: ('A' for Active; 'I' for Inactive)
REMARK    1  A    between atoms: C_2  and  O_3 
REMARK    2  A    between atoms: O_3  and  C_4 
REMARK    3  A    between atoms: C_10  and  N_11 
REMARK       I    between atoms: N_11  and  C_12 
REMARK       I    between atoms: C_12  and  N_13 
REMARK    4  A    between atoms: N_13  and  C_14 
REMARK    5  A    between atoms: C_14  and  C_15 
ROOT
HETATM    1  N   UNL     1      -4.743   1.796 -32.752  1.00  0.00    -0.306 N 
HETATM    2  C   UNL     1      -3.786   1.761 -31.776  1.00  0.00     0.321 C 
HETATM    3  N   UNL     1      -3.024   2.881 -31.635  1.00  0.00    -0.337 N 
HETATM    4  O   UNL     1      -3.539   0.821 -31.028  1.00  0.00    -0.247 OA
HETATM    5  H   UNL     1      -5.008   2.715 -33.105  1.00  0.00     0.171 HD
HETATM    6  H   UNL     1      -2.328   2.779 -30.908  1.00  0.00     0.164 HD
ENDROOT
BRANCH   1   7
HETATM    7  C   UNL     1      -5.618   0.753 -33.144  1.00  0.00     0.071 A 
HETATM    8  C   UNL     1      -7.000   0.935 -32.932  1.00  0.00     0.117 A 
HETATM    9  C   UNL     1      -7.896  -0.114 -33.191  1.00  0.00     0.069 A 
HETATM   10 CL   UNL     1      -9.574  -0.014 -32.790  1.00  0.00    -0.081 Cl
HETATM   11  C   UNL     1      -7.435  -1.304 -33.757  1.00  0.00     0.027 A 
HETATM   12  C   UNL     1      -6.081  -1.458 -34.041  1.00  0.00     0.004 A 
HETATM   13  C   UNL     1      -5.177  -0.439 -33.729  1.00  0.00     0.032 A 
BRANCH   8  14
HETATM   14  O   UNL     1      -7.415   2.131 -32.389  1.00  0.00    -0.343 OA
BRANCH  14  15
HETATM   15  C   UNL     1      -7.930   1.986 -31.052  1.00  0.00     0.121 C 
HETATM   16  C   UNL     1      -9.189   2.833 -30.876  1.00  0.00     0.040 C 
HETATM   17  C   UNL     1      -6.840   2.466 -30.098  1.00  0.00     0.040 C 
ENDBRANCH  14  15
ENDBRANCH   8  14
ENDBRANCH   1   7
BRANCH   3  18
HETATM   18  C   UNL     1      -2.950   4.042 -32.499  1.00  0.00     0.183 C 
BRANCH  18  19
HETATM   19  C   UNL     1      -1.849   4.990 -32.089  1.00  0.00     0.053 A 
HETATM   20  N   UNL     1      -1.611   6.036 -32.921  1.00  0.00    -0.264 NA
HETATM   21  C   UNL     1      -0.672   6.935 -32.553  1.00  0.00     0.118 A 
HETATM   22  C   UNL     1       0.058   6.842 -31.386  1.00  0.00     0.043 A 
HETATM   23  C   UNL     1      -0.206   5.766 -30.550  1.00  0.00     0.037 A 
HETATM   24 CL   UNL     1       0.667   5.597 -29.077  1.00  0.00    -0.084 Cl
HETATM   25  C   UNL     1      -1.173   4.826 -30.888  1.00  0.00     0.052 A 
ENDBRANCH  18  19
ENDBRANCH   3  18
TORSDOF 5
ENDMDL
MODEL 10
REMARK VINA RESULT:      -7.1      2.818      3.956
REMARK  5 active torsions:
REMARK  status: ('A' for Active; 'I' for Inactive)
REMARK    1  A    between atoms: C_2  and  O_3 
REMARK    2  A    between atoms: O_3  and  C_4 
REMARK    3  A    between atoms: C_10  and  N_11 
REMARK       I    between atoms: N_11  and  C_12 
REMARK       I    between atoms: C_12  and  N_13 
REMARK    4  A    between atoms: N_13  and  C_14 
REMARK    5  A    between atoms: C_14  and  C_15 
ROOT
HETATM    1  N   UNL     1      -6.507   3.339 -32.653  1.00  0.00    -0.306 N 
HETATM    2  C   UNL     1      -6.581   4.493 -33.382  1.00  0.00     0.321 C 
HETATM    3  N   UNL     1      -5.662   5.455 -33.088  1.00  0.00    -0.337 N 
HETATM    4  O   UNL     1      -7.398   4.752 -34.260  1.00  0.00    -0.247 OA
HETATM    5  H   UNL     1      -5.633   3.162 -32.158  1.00  0.00     0.171 HD
HETATM    6  H   UNL     1      -5.787   6.285 -33.653  1.00  0.00     0.164 HD
ENDROOT
BRANCH   1   7
HETATM    7  C   UNL     1      -7.372   2.219 -32.714  1.00  0.00     0.071 A 
HETATM    8  C   UNL     1      -6.855   1.012 -33.228  1.00  0.00     0.117 A 
HETATM    9  C   UNL     1      -7.702  -0.091 -33.421  1.00  0.00     0.069 A 
HETATM   10 CL   UNL     1      -7.169  -1.537 -34.205  1.00  0.00    -0.081 Cl
HETATM   11  C   UNL     1      -9.034  -0.030 -33.009  1.00  0.00     0.027 A 
HETATM   12  C   UNL     1      -9.529   1.135 -32.430  1.00  0.00     0.004 A 
HETATM   13  C   UNL     1      -8.704   2.255 -32.291  1.00  0.00     0.032 A 
BRANCH   8  14
HETATM   14  O   UNL     1      -5.530   0.988 -33.604  1.00  0.00    -0.343 OA
BRANCH  14  15
HETATM   15  C   UNL     1      -4.677   0.402 -32.602  1.00  0.00     0.121 C 
HETATM   16  C   UNL     1      -3.696   1.443 -32.068  1.00  0.00     0.040 C 
HETATM   17  C   UNL     1      -3.916  -0.737 -33.274  1.00  0.00     0.040 C 
ENDBRANCH  14  15
ENDBRANCH   8  14
ENDBRANCH   1   7
BRANCH   3  18
HETATM   18  C   UNL     1      -4.731   5.512 -31.980  1.00  0.00     0.183 C 
BRANCH  18  19
HETATM   19  C   UNL     1      -3.339   5.890 -32.423  1.00  0.00     0.053 A 
HETATM   20  N   UNL     1      -3.244   6.610 -33.571  1.00  0.00    -0.264 NA
HETATM   21  C   UNL     1      -2.016   7.014 -33.963  1.00  0.00     0.118 A 
HETATM   22  C   UNL     1      -0.860   6.731 -33.265  1.00  0.00     0.043 A 
HETATM   23  C   UNL     1      -0.983   5.999 -32.093  1.00  0.00     0.037 A 
HETATM   24 CL   UNL     1       0.421   5.618 -31.175  1.00  0.00    -0.084 Cl
HETATM   25  C   UNL     1      -2.230   5.574 -31.650  1.00  0.00     0.052 A 
ENDBRANCH  18  19
ENDBRANCH   3  18
TORSDOF 5
ENDMDL
