MODEL 1
REMARK VINA RESULT:      -8.5      0.000      0.000
REMARK  3 active torsions:
REMARK  status: ('A' for Active; 'I' for Inactive)
REMARK    1  A    between atoms: C_9  and  C_10 
REMARK    2  A    between atoms: C_10  and  N_11 
REMARK    3  A    between atoms: C_15  and  N_16 
REMARK       I    between atoms: N_16  and  C_17 
REMARK       I    between atoms: C_17  and  N_18 
ROOT
HETATM    1  N   UNL     1      -4.676   2.051 -31.706  1.00  0.00    -0.067 N 
HETATM    2  H   UNL     1      -5.399   1.857 -32.408  1.00  0.00     0.280 HD
HETATM    3  C   UNL     1      -5.152   1.556 -30.359  1.00  0.00     0.237 C 
HETATM    4  C   UNL     1      -6.453   2.250 -29.982  1.00  0.00     0.053 C 
HETATM    5  C   UNL     1      -6.290   3.771 -29.935  1.00  0.00     0.089 C 
HETATM    6  C   UNL     1      -5.727   4.268 -31.271  1.00  0.00     0.053 C 
HETATM    7  C   UNL     1      -4.453   3.551 -31.693  1.00  0.00     0.237 C 
ENDROOT
BRANCH   1   8
HETATM    8  C   UNL     1      -3.412   1.344 -32.159  1.00  0.00     0.271 C 
BRANCH   8   9
HETATM    9  C   UNL     1      -3.560  -0.112 -32.490  1.00  0.00    -0.029 C 
HETATM   10  C   UNL     1      -2.466  -0.998 -31.925  1.00  0.00     0.211 C 
HETATM   11  O   UNL     1      -2.781  -2.391 -31.827  1.00  0.00    -0.346 OA
HETATM   12  C   UNL     1      -3.612  -2.888 -32.790  1.00  0.00     0.079 A 
HETATM   13  C   UNL     1      -4.486  -2.079 -33.522  1.00  0.00    -0.001 A 
HETATM   14  C   UNL     1      -3.592  -4.270 -32.981  1.00  0.00     0.039 A 
HETATM   15  C   UNL     1      -5.335  -2.665 -34.467  1.00  0.00     0.038 A 
HETATM   16  C   UNL     1      -4.524  -0.642 -33.263  1.00  0.00     0.021 C 
HETATM   17  C   UNL     1      -5.299  -4.047 -34.668  1.00  0.00     0.035 A 
HETATM   18  C   UNL     1      -4.434  -4.852 -33.929  1.00  0.00     0.026 A 
HETATM   19 CL   UNL     1      -6.344  -4.761 -35.833  1.00  0.00    -0.084 Cl
ENDBRANCH   8   9
ENDBRANCH   1   8
BRANCH   5  20
HETATM   20  N   UNL     1      -5.586   4.156 -28.710  1.00  0.00    -0.339 N 
HETATM   21  C   UNL     1      -5.709   5.317 -28.011  1.00  0.00     0.314 C 
HETATM   22  N   UNL     1      -4.991   5.317 -26.863  1.00  0.00    -0.352 N 
HETATM   23  O   UNL     1      -6.313   6.311 -28.381  1.00  0.00    -0.248 OA
HETATM   24  H   UNL     1      -4.922   4.468 -26.319  1.00  0.00     0.160 HD
HETATM   25  H   UNL     1      -5.119   6.151 -26.300  1.00  0.00     0.160 HD
HETATM   26  H   UNL     1      -5.147   3.406 -28.191  1.00  0.00     0.164 HD
ENDBRANCH   5  20
TORSDOF 3
ENDMDL
MODEL 2
REMARK VINA RESULT:      -8.2      5.976      6.563
REMARK  3 active torsions:
REMARK  status: ('A' for Active; 'I' for Inactive)
REMARK    1  A    between atoms: C_9  and  C_10 
REMARK    2  A    between atoms: C_10  and  N_11 
REMARK    3  A    between atoms: C_15  and  N_16 
REMARK       I    between atoms: N_16  and  C_17 
REMARK       I    between atoms: C_17  and  N_18 
ROOT
HETATM    1  N   UNL     1     -10.257   2.005 -34.596  1.00  0.00    -0.067 N 
HETATM    2  H   UNL     1     -10.126   1.299 -35.328  1.00  0.00     0.280 HD
HETATM    3  C   UNL     1     -11.061   1.401 -33.467  1.00  0.00     0.237 C 
HETATM    4  C   UNL     1     -12.410   0.926 -33.989  1.00  0.00     0.053 C 
HETATM    5  C   UNL     1     -13.205   2.071 -34.623  1.00  0.00     0.089 C 
HETATM    6  C   UNL     1     -12.359   2.742 -35.711  1.00  0.00     0.053 C 
HETATM    7  C   UNL     1     -10.985   3.178 -35.224  1.00  0.00     0.237 C 
ENDROOT
BRANCH   1   8
HETATM    8  C   UNL     1      -8.875   2.439 -34.142  1.00  0.00     0.271 C 
BRANCH   8   9
HETATM    9  C   UNL     1      -7.829   1.363 -34.108  1.00  0.00    -0.029 C 
HETATM   10  C   UNL     1      -6.429   1.857 -33.799  1.00  0.00     0.211 C 
HETATM   11  O   UNL     1      -5.509   0.868 -33.326  1.00  0.00    -0.346 OA
HETATM   12  C   UNL     1      -5.678  -0.394 -33.821  1.00  0.00     0.079 A 
HETATM   13  C   UNL     1      -6.895  -0.842 -34.344  1.00  0.00    -0.001 A 
HETATM   14  C   UNL     1      -4.582  -1.253 -33.732  1.00  0.00     0.039 A 
HETATM   15  C   UNL     1      -7.002  -2.161 -34.797  1.00  0.00     0.038 A 
HETATM   16  C   UNL     1      -8.041   0.062 -34.375  1.00  0.00     0.021 C 
HETATM   17  C   UNL     1      -5.897  -3.013 -34.723  1.00  0.00     0.035 A 
HETATM   18  C   UNL     1      -4.689  -2.566 -34.191  1.00  0.00     0.026 A 
HETATM   19 CL   UNL     1      -6.036  -4.633 -35.285  1.00  0.00    -0.084 Cl
ENDBRANCH   8   9
ENDBRANCH   1   8
BRANCH   5  20
HETATM   20  N   UNL     1     -13.771   2.921 -33.574  1.00  0.00    -0.339 N 
HETATM   21  C   UNL     1     -14.767   2.612 -32.701  1.00  0.00     0.314 C 
HETATM   22  N   UNL     1     -14.986   3.586 -31.787  1.00  0.00    -0.352 N 
HETATM   23  O   UNL     1     -15.476   1.619 -32.751  1.00  0.00    -0.248 OA
HETATM   24  H   UNL     1     -14.202   4.103 -31.413  1.00  0.00     0.160 HD
HETATM   25  H   UNL     1     -15.683   3.347 -31.091  1.00  0.00     0.160 HD
HETATM   26  H   UNL     1     -13.220   3.726 -33.304  1.00  0.00     0.164 HD
ENDBRANCH   5  20
TORSDOF 3
ENDMDL
MODEL 3
REMARK VINA RESULT:      -8.2      2.871      3.423
REMARK  3 active torsions:
REMARK  status: ('A' for Active; 'I' for Inactive)
REMARK    1  A    between atoms: C_9  and  C_10 
REMARK    2  A    between atoms: C_10  and  N_11 
REMARK    3  A    between atoms: C_15  and  N_16 
REMARK       I    between atoms: N_16  and  C_17 
REMARK       I    between atoms: C_17  and  N_18 
ROOT
HETATM    1  N   UNL     1      -4.202   3.031 -32.766  1.00  0.00    -0.067 N 
HETATM    2  H   UNL     1      -4.387   2.579 -33.668  1.00  0.00     0.280 HD
HETATM    3  C   UNL     1      -5.117   4.226 -32.618  1.00  0.00     0.237 C 
HETATM    4  C   UNL     1      -4.877   5.206 -33.758  1.00  0.00     0.053 C 
HETATM    5  C   UNL     1      -3.423   5.682 -33.798  1.00  0.00     0.089 C 
HETATM    6  C   UNL     1      -2.488   4.469 -33.862  1.00  0.00     0.053 C 
HETATM    7  C   UNL     1      -2.745   3.450 -32.761  1.00  0.00     0.237 C 
ENDROOT
BRANCH   1   8
HETATM    8  C   UNL     1      -4.444   1.991 -31.688  1.00  0.00     0.271 C 
BRANCH   8   9
HETATM    9  C   UNL     1      -4.296   0.560 -32.114  1.00  0.00    -0.029 C 
HETATM   10  C   UNL     1      -3.029  -0.114 -31.621  1.00  0.00     0.211 C 
HETATM   11  O   UNL     1      -3.048  -1.545 -31.613  1.00  0.00    -0.346 OA
HETATM   12  C   UNL     1      -3.781  -2.142 -32.599  1.00  0.00     0.079 A 
HETATM   13  C   UNL     1      -4.820  -1.487 -33.265  1.00  0.00    -0.001 A 
HETATM   14  C   UNL     1      -3.481  -3.475 -32.882  1.00  0.00     0.039 A 
HETATM   15  C   UNL     1      -5.552  -2.176 -34.238  1.00  0.00     0.038 A 
HETATM   16  C   UNL     1      -5.148  -0.109 -32.911  1.00  0.00     0.021 C 
HETATM   17  C   UNL     1      -5.237  -3.505 -34.532  1.00  0.00     0.035 A 
HETATM   18  C   UNL     1      -4.207  -4.158 -33.857  1.00  0.00     0.026 A 
HETATM   19 CL   UNL     1      -6.139  -4.345 -35.732  1.00  0.00    -0.084 Cl
ENDBRANCH   8   9
ENDBRANCH   1   8
BRANCH   5  20
HETATM   20  N   UNL     1      -3.194   6.667 -32.739  1.00  0.00    -0.339 N 
HETATM   21  C   UNL     1      -2.314   7.704 -32.745  1.00  0.00     0.314 C 
HETATM   22  N   UNL     1      -2.423   8.491 -31.649  1.00  0.00    -0.352 N 
HETATM   23  O   UNL     1      -1.441   7.894 -33.577  1.00  0.00    -0.248 OA
HETATM   24  H   UNL     1      -3.336   8.677 -31.258  1.00  0.00     0.160 HD
HETATM   25  H   UNL     1      -1.816   9.304 -31.665  1.00  0.00     0.160 HD
HETATM   26  H   UNL     1      -3.917   6.742 -32.034  1.00  0.00     0.164 HD
ENDBRANCH   5  20
TORSDOF 3
ENDMDL
MODEL 4
REMARK VINA RESULT:      -8.1      2.358      3.255
REMARK  3 active torsions:
REMARK  status: ('A' for Active; 'I' for Inactive)
REMARK    1  A    between atoms: C_9  and  C_10 
REMARK    2  A    between atoms: C_10  and  N_11 
REMARK    3  A    between atoms: C_15  and  N_16 
REMARK       I    between atoms: N_16  and  C_17 
REMARK       I    between atoms: C_17  and  N_18 
ROOT
HETATM    1  N   UNL     1      -4.682   2.025 -31.678  1.00  0.00    -0.067 N 
HETATM    2  H   UNL     1      -4.359   2.911 -31.275  1.00  0.00     0.280 HD
HETATM    3  C   UNL     1      -5.790   2.309 -32.667  1.00  0.00     0.237 C 
HETATM    4  C   UNL     1      -6.939   3.020 -31.968  1.00  0.00     0.053 C 
HETATM    5  C   UNL     1      -7.496   2.190 -30.807  1.00  0.00     0.089 C 
HETATM    6  C   UNL     1      -6.358   1.827 -29.846  1.00  0.00     0.053 C 
HETATM    7  C   UNL     1      -5.175   1.161 -30.533  1.00  0.00     0.237 C 
ENDROOT
BRANCH   1   8
HETATM    8  C   UNL     1      -3.483   1.370 -32.339  1.00  0.00     0.271 C 
BRANCH   8   9
HETATM    9  C   UNL     1      -3.612  -0.098 -32.622  1.00  0.00    -0.029 C 
HETATM   10  C   UNL     1      -2.513  -0.953 -32.019  1.00  0.00     0.211 C 
HETATM   11  O   UNL     1      -2.814  -2.345 -31.877  1.00  0.00    -0.346 OA
HETATM   12  C   UNL     1      -3.631  -2.883 -32.830  1.00  0.00     0.079 A 
HETATM   13  C   UNL     1      -4.508  -2.108 -33.595  1.00  0.00    -0.001 A 
HETATM   14  C   UNL     1      -3.595  -4.270 -32.974  1.00  0.00     0.039 A 
HETATM   15  C   UNL     1      -5.344  -2.735 -34.525  1.00  0.00     0.038 A 
HETATM   16  C   UNL     1      -4.564  -0.664 -33.384  1.00  0.00     0.021 C 
HETATM   17  C   UNL     1      -5.291  -4.123 -34.680  1.00  0.00     0.035 A 
HETATM   18  C   UNL     1      -4.423  -4.893 -33.908  1.00  0.00     0.026 A 
HETATM   19 CL   UNL     1      -6.319  -4.886 -35.829  1.00  0.00    -0.084 Cl
ENDBRANCH   8   9
ENDBRANCH   1   8
BRANCH   5  20
HETATM   20  N   UNL     1      -8.324   1.102 -31.329  1.00  0.00    -0.339 N 
HETATM   21  C   UNL     1      -9.467   1.205 -32.061  1.00  0.00     0.314 C 
HETATM   22  N   UNL     1      -9.934   0.004 -32.476  1.00  0.00    -0.352 N 
HETATM   23  O   UNL     1     -10.089   2.234 -32.269  1.00  0.00    -0.248 OA
HETATM   24  H   UNL     1      -9.282  -0.715 -32.756  1.00  0.00     0.160 HD
HETATM   25  H   UNL     1     -10.751   0.066 -33.073  1.00  0.00     0.160 HD
HETATM   26  H   UNL     1      -7.892   0.187 -31.365  1.00  0.00     0.164 HD
ENDBRANCH   5  20
TORSDOF 3
ENDMDL
MODEL 5
REMARK VINA RESULT:      -8.0      3.178      3.909
REMARK  3 active torsions:
REMARK  status: ('A' for Active; 'I' for Inactive)
REMARK    1  A    between atoms: C_9  and  C_10 
REMARK    2  A    between atoms: C_10  and  N_11 
REMARK    3  A    between atoms: C_15  and  N_16 
REMARK       I    between atoms: N_16  and  C_17 
REMARK       I    between atoms: C_17  and  N_18 
ROOT
HETATM    1  N   UNL     1      -4.177   3.355 -32.809  1.00  0.00    -0.067 N 
HETATM    2  H   UNL     1      -3.928   2.930 -33.709  1.00  0.00     0.280 HD
HETATM    3  C   UNL     1      -4.995   4.601 -33.062  1.00  0.00     0.237 C 
HETATM    4  C   UNL     1      -4.195   5.583 -33.906  1.00  0.00     0.053 C 
HETATM    5  C   UNL     1      -2.878   5.969 -33.229  1.00  0.00     0.089 C 
HETATM    6  C   UNL     1      -2.084   4.703 -32.893  1.00  0.00     0.053 C 
HETATM    7  C   UNL     1      -2.881   3.683 -32.092  1.00  0.00     0.237 C 
ENDROOT
BRANCH   1   8
HETATM    8  C   UNL     1      -4.952   2.314 -32.022  1.00  0.00     0.271 C 
BRANCH   8   9
HETATM    9  C   UNL     1      -5.177   1.002 -32.716  1.00  0.00    -0.029 C 
HETATM   10  C   UNL     1      -6.535   0.865 -33.376  1.00  0.00     0.211 C 
HETATM   11  O   UNL     1      -6.636  -0.136 -34.393  1.00  0.00    -0.346 OA
HETATM   12  C   UNL     1      -5.864  -1.249 -34.219  1.00  0.00     0.079 A 
HETATM   13  C   UNL     1      -4.715  -1.251 -33.423  1.00  0.00    -0.001 A 
HETATM   14  C   UNL     1      -6.244  -2.391 -34.924  1.00  0.00     0.039 A 
HETATM   15  C   UNL     1      -3.952  -2.420 -33.322  1.00  0.00     0.038 A 
HETATM   16  C   UNL     1      -4.310  -0.026 -32.739  1.00  0.00     0.021 C 
HETATM   17  C   UNL     1      -4.347  -3.567 -34.015  1.00  0.00     0.035 A 
HETATM   18  C   UNL     1      -5.487  -3.558 -34.817  1.00  0.00     0.026 A 
HETATM   19 CL   UNL     1      -3.406  -5.001 -33.885  1.00  0.00    -0.084 Cl
ENDBRANCH   8   9
ENDBRANCH   1   8
BRANCH   5  20
HETATM   20  N   UNL     1      -3.138   6.921 -32.147  1.00  0.00    -0.339 N 
HETATM   21  C   UNL     1      -2.614   8.167 -31.992  1.00  0.00     0.314 C 
HETATM   22  N   UNL     1      -3.140   8.830 -30.936  1.00  0.00    -0.352 N 
HETATM   23  O   UNL     1      -1.703   8.643 -32.650  1.00  0.00    -0.248 OA
HETATM   24  H   UNL     1      -4.121   8.724 -30.719  1.00  0.00     0.160 HD
HETATM   25  H   UNL     1      -2.805   9.783 -30.841  1.00  0.00     0.160 HD
HETATM   26  H   UNL     1      -3.963   6.748 -31.586  1.00  0.00     0.164 HD
ENDBRANCH   5  20
TORSDOF 3
ENDMDL
MODEL 6
REMARK VINA RESULT:      -8.0      3.209      3.989
REMARK  3 active torsions:
REMARK  status: ('A' for Active; 'I' for Inactive)
REMARK    1  A    between atoms: C_9  and  C_10 
REMARK    2  A    between atoms: C_10  and  N_11 
REMARK    3  A    between atoms: C_15  and  N_16 
REMARK       I    between atoms: N_16  and  C_17 
REMARK       I    between atoms: C_17  and  N_18 
ROOT
HETATM    1  N   UNL     1      -4.447   3.684 -31.605  1.00  0.00    -0.067 N 
HETATM    2  H   UNL     1      -4.841   3.985 -32.503  1.00  0.00     0.280 HD
HETATM    3  C   UNL     1      -4.437   4.860 -30.654  1.00  0.00     0.237 C 
HETATM    4  C   UNL     1      -3.609   5.994 -31.240  1.00  0.00     0.053 C 
HETATM    5  C   UNL     1      -2.168   5.556 -31.522  1.00  0.00     0.089 C 
HETATM    6  C   UNL     1      -2.177   4.312 -32.417  1.00  0.00     0.053 C 
HETATM    7  C   UNL     1      -3.041   3.183 -31.875  1.00  0.00     0.237 C 
ENDROOT
BRANCH   1   8
HETATM    8  C   UNL     1      -5.312   2.546 -31.096  1.00  0.00     0.271 C 
BRANCH   8   9
HETATM    9  C   UNL     1      -5.485   1.386 -32.032  1.00  0.00    -0.029 C 
HETATM   10  C   UNL     1      -6.769   1.415 -32.838  1.00  0.00     0.211 C 
HETATM   11  O   UNL     1      -6.780   0.613 -34.023  1.00  0.00    -0.346 OA
HETATM   12  C   UNL     1      -6.049  -0.540 -33.974  1.00  0.00     0.079 A 
HETATM   13  C   UNL     1      -4.990  -0.723 -33.080  1.00  0.00    -0.001 A 
HETATM   14  C   UNL     1      -6.372  -1.526 -34.906  1.00  0.00     0.039 A 
HETATM   15  C   UNL     1      -4.262  -1.917 -33.115  1.00  0.00     0.038 A 
HETATM   16  C   UNL     1      -4.638   0.348 -32.151  1.00  0.00     0.021 C 
HETATM   17  C   UNL     1      -4.601  -2.910 -34.037  1.00  0.00     0.035 A 
HETATM   18  C   UNL     1      -5.650  -2.719 -34.934  1.00  0.00     0.026 A 
HETATM   19 CL   UNL     1      -3.703  -4.377 -34.072  1.00  0.00    -0.084 Cl
ENDBRANCH   8   9
ENDBRANCH   1   8
BRANCH   5  20
HETATM   20  N   UNL     1      -1.417   5.491 -30.267  1.00  0.00    -0.339 N 
HETATM   21  C   UNL     1      -0.106   5.165 -30.099  1.00  0.00     0.314 C 
HETATM   22  N   UNL     1       0.308   5.300 -28.818  1.00  0.00    -0.352 N 
HETATM   23  O   UNL     1       0.630   4.708 -30.959  1.00  0.00    -0.248 OA
HETATM   24  H   UNL     1      -0.041   6.066 -28.259  1.00  0.00     0.160 HD
HETATM   25  H   UNL     1       1.298   5.119 -28.686  1.00  0.00     0.160 HD
HETATM   26  H   UNL     1      -1.830   5.962 -29.472  1.00  0.00     0.164 HD
ENDBRANCH   5  20
TORSDOF 3
ENDMDL
MODEL 7
REMARK VINA RESULT:      -7.7      5.268      7.777
REMARK  3 active torsions:
REMARK  status: ('A' for Active; 'I' for Inactive)
REMARK    1  A    between atoms: C_9  and  C_10 
REMARK    2  A    between atoms: C_10  and  N_11 
REMARK    3  A    between atoms: C_15  and  N_16 
REMARK       I    between atoms: N_16  and  C_17 
REMARK       I    between atoms: C_17  and  N_18 
ROOT
HETATM    1  N   UNL     1      -6.443   0.373 -32.295  1.00  0.00    -0.067 N 
HETATM    2  H   UNL     1      -6.437   1.179 -32.929  1.00  0.00     0.280 HD
HETATM    3  C   UNL     1      -5.362   0.558 -31.254  1.00  0.00     0.237 C 
HETATM    4  C   UNL     1      -4.006   0.684 -31.934  1.00  0.00     0.053 C 
HETATM    5  C   UNL     1      -3.684  -0.545 -32.788  1.00  0.00     0.089 C 
HETATM    6  C   UNL     1      -4.821  -0.786 -33.787  1.00  0.00     0.053 C 
HETATM    7  C   UNL     1      -6.193  -0.864 -33.135  1.00  0.00     0.237 C 
ENDROOT
BRANCH   1   8
HETATM    8  C   UNL     1      -7.826   0.304 -31.673  1.00  0.00     0.271 C 
BRANCH   8   9
HETATM    9  C   UNL     1      -8.947   0.852 -32.507  1.00  0.00    -0.029 C 
HETATM   10  C   UNL     1      -8.678   2.224 -33.096  1.00  0.00     0.211 C 
HETATM   11  O   UNL     1      -9.485   2.588 -34.221  1.00  0.00    -0.346 OA
HETATM   12  C   UNL     1     -10.759   2.096 -34.230  1.00  0.00     0.079 A 
HETATM   13  C   UNL     1     -11.131   0.957 -33.510  1.00  0.00    -0.001 A 
HETATM   14  C   UNL     1     -11.679   2.756 -35.045  1.00  0.00     0.039 A 
HETATM   15  C   UNL     1     -12.447   0.489 -33.600  1.00  0.00     0.038 A 
HETATM   16  C   UNL     1     -10.134   0.254 -32.708  1.00  0.00     0.021 C 
HETATM   17  C   UNL     1     -13.370   1.163 -34.403  1.00  0.00     0.035 A 
HETATM   18  C   UNL     1     -12.992   2.292 -35.127  1.00  0.00     0.026 A 
HETATM   19 CL   UNL     1     -14.987   0.584 -34.505  1.00  0.00    -0.084 Cl
ENDBRANCH   8   9
ENDBRANCH   1   8
BRANCH   5  20
HETATM   20  N   UNL     1      -3.285  -1.658 -31.924  1.00  0.00    -0.339 N 
HETATM   21  C   UNL     1      -3.231  -2.980 -32.243  1.00  0.00     0.314 C 
HETATM   22  N   UNL     1      -2.722  -3.740 -31.245  1.00  0.00    -0.352 N 
HETATM   23  O   UNL     1      -3.666  -3.484 -33.265  1.00  0.00    -0.248 OA
HETATM   24  H   UNL     1      -1.964  -3.380 -30.682  1.00  0.00     0.160 HD
HETATM   25  H   UNL     1      -2.618  -4.719 -31.488  1.00  0.00     0.160 HD
HETATM   26  H   UNL     1      -2.771  -1.414 -31.087  1.00  0.00     0.164 HD
ENDBRANCH   5  20
TORSDOF 3
ENDMDL
MODEL 8
REMARK VINA RESULT:      -7.6      5.127      5.690
REMARK  3 active torsions:
REMARK  status: ('A' for Active; 'I' for Inactive)
REMARK    1  A    between atoms: C_9  and  C_10 
REMARK    2  A    between atoms: C_10  and  N_11 
REMARK    3  A    between atoms: C_15  and  N_16 
REMARK       I    between atoms: N_16  and  C_17 
REMARK       I    between atoms: C_17  and  N_18 
ROOT
HETATM    1  N   UNL     1      -9.227   1.657 -34.175  1.00  0.00    -0.067 N 
HETATM    2  H   UNL     1      -9.290   1.211 -35.096  1.00  0.00     0.280 HD
HETATM    3  C   UNL     1      -9.974   0.814 -33.167  1.00  0.00     0.237 C 
HETATM    4  C   UNL     1     -11.430   0.674 -33.586  1.00  0.00     0.053 C 
HETATM    5  C   UNL     1     -12.115   2.038 -33.715  1.00  0.00     0.089 C 
HETATM    6  C   UNL     1     -11.312   2.927 -34.671  1.00  0.00     0.053 C 
HETATM    7  C   UNL     1      -9.840   3.038 -34.300  1.00  0.00     0.237 C 
ENDROOT
BRANCH   1   8
HETATM    8  C   UNL     1      -7.752   1.776 -33.836  1.00  0.00     0.271 C 
BRANCH   8   9
HETATM    9  C   UNL     1      -6.955   0.508 -33.931  1.00  0.00    -0.029 C 
HETATM   10  C   UNL     1      -7.448  -0.468 -34.982  1.00  0.00     0.211 C 
HETATM   11  O   UNL     1      -6.502  -1.451 -35.412  1.00  0.00    -0.346 OA
HETATM   12  C   UNL     1      -5.611  -1.880 -34.470  1.00  0.00     0.079 A 
HETATM   13  C   UNL     1      -5.286  -1.122 -33.341  1.00  0.00    -0.001 A 
HETATM   14  C   UNL     1      -4.985  -3.103 -34.712  1.00  0.00     0.039 A 
HETATM   15  C   UNL     1      -4.334  -1.610 -32.439  1.00  0.00     0.038 A 
HETATM   16  C   UNL     1      -5.917   0.179 -33.141  1.00  0.00     0.021 C 
HETATM   17  C   UNL     1      -3.723  -2.844 -32.675  1.00  0.00     0.035 A 
HETATM   18  C   UNL     1      -4.042  -3.591 -33.807  1.00  0.00     0.026 A 
HETATM   19 CL   UNL     1      -2.557  -3.439 -31.559  1.00  0.00    -0.084 Cl
ENDBRANCH   8   9
ENDBRANCH   1   8
BRANCH   5  20
HETATM   20  N   UNL     1     -12.421   2.566 -32.383  1.00  0.00    -0.339 N 
HETATM   21  C   UNL     1     -13.378   3.473 -32.049  1.00  0.00     0.314 C 
HETATM   22  N   UNL     1     -13.468   3.672 -30.713  1.00  0.00    -0.352 N 
HETATM   23  O   UNL     1     -14.043   4.130 -32.834  1.00  0.00    -0.248 OA
HETATM   24  H   UNL     1     -13.348   2.891 -30.084  1.00  0.00     0.160 HD
HETATM   25  H   UNL     1     -14.217   4.300 -30.442  1.00  0.00     0.160 HD
HETATM   26  H   UNL     1     -12.059   2.039 -31.599  1.00  0.00     0.164 HD
ENDBRANCH   5  20
TORSDOF 3
ENDMDL
MODEL 9
REMARK VINA RESULT:      -7.5      4.193      7.618
REMARK  3 active torsions:
REMARK  status: ('A' for Active; 'I' for Inactive)
REMARK    1  A    between atoms: C_9  and  C_10 
REMARK    2  A    between atoms: C_10  and  N_11 
REMARK    3  A    between atoms: C_15  and  N_16 
REMARK       I    between atoms: N_16  and  C_17 
REMARK       I    between atoms: C_17  and  N_18 
ROOT
HETATM    1  N   UNL     1      -6.779   1.828 -32.455  1.00  0.00    -0.067 N 
HETATM    2  H   UNL     1      -7.708   1.479 -32.715  1.00  0.00     0.280 HD
HETATM    3  C   UNL     1      -5.753   1.249 -33.404  1.00  0.00     0.237 C 
HETATM    4  C   UNL     1      -5.785  -0.271 -33.336  1.00  0.00     0.053 C 
HETATM    5  C   UNL     1      -5.509  -0.780 -31.918  1.00  0.00     0.089 C 
HETATM    6  C   UNL     1      -6.493  -0.129 -30.940  1.00  0.00     0.053 C 
HETATM    7  C   UNL     1      -6.516   1.390 -31.027  1.00  0.00     0.237 C 
ENDROOT
BRANCH   1   8
HETATM    8  C   UNL     1      -6.833   3.343 -32.530  1.00  0.00     0.271 C 
BRANCH   8   9
HETATM    9  C   UNL     1      -5.531   4.030 -32.825  1.00  0.00    -0.029 C 
HETATM   10  C   UNL     1      -5.409   4.562 -34.240  1.00  0.00     0.211 C 
HETATM   11  O   UNL     1      -4.422   5.579 -34.440  1.00  0.00    -0.346 OA
HETATM   12  C   UNL     1      -3.303   5.491 -33.661  1.00  0.00     0.079 A 
HETATM   13  C   UNL     1      -3.286   4.805 -32.443  1.00  0.00    -0.001 A 
HETATM   14  C   UNL     1      -2.172   6.173 -34.111  1.00  0.00     0.039 A 
HETATM   15  C   UNL     1      -2.112   4.792 -31.681  1.00  0.00     0.038 A 
HETATM   16  C   UNL     1      -4.500   4.146 -31.970  1.00  0.00     0.021 C 
HETATM   17  C   UNL     1      -0.976   5.460 -32.144  1.00  0.00     0.035 A 
HETATM   18  C   UNL     1      -1.002   6.152 -33.354  1.00  0.00     0.026 A 
HETATM   19 CL   UNL     1       0.464   5.436 -31.203  1.00  0.00    -0.084 Cl
ENDBRANCH   8   9
ENDBRANCH   1   8
BRANCH   5  20
HETATM   20  N   UNL     1      -4.079  -0.673 -31.624  1.00  0.00    -0.339 N 
HETATM   21  C   UNL     1      -3.122  -1.625 -31.795  1.00  0.00     0.314 C 
HETATM   22  N   UNL     1      -1.876  -1.171 -31.521  1.00  0.00    -0.352 N 
HETATM   23  O   UNL     1      -3.323  -2.796 -32.073  1.00  0.00    -0.248 OA
HETATM   24  H   UNL     1      -1.623  -0.226 -31.774  1.00  0.00     0.160 HD
HETATM   25  H   UNL     1      -1.144  -1.850 -31.701  1.00  0.00     0.160 HD
HETATM   26  H   UNL     1      -3.714   0.264 -31.510  1.00  0.00     0.164 HD
ENDBRANCH   5  20
TORSDOF 3
ENDMDL
MODEL 10
REMARK VINA RESULT:      -7.3     14.852     16.622
REMARK  3 active torsions:
REMARK  status: ('A' for Active; 'I' for Inactive)
REMARK    1  A    between atoms: C_9  and  C_10 
REMARK    2  A    between atoms: C_10  and  N_11 
REMARK    3  A    between atoms: C_15  and  N_16 
REMARK       I    between atoms: N_16  and  C_17 
REMARK       I    between atoms: C_17  and  N_18 
ROOT
HETATM    1  N   UNL     1      -6.344 -14.574 -35.045  1.00  0.00    -0.067 N 
HETATM    2  H   UNL     1      -7.244 -14.083 -35.050  1.00  0.00     0.280 HD
HETATM    3  C   UNL     1      -6.425 -15.742 -34.088  1.00  0.00     0.237 C 
HETATM    4  C   UNL     1      -6.761 -15.243 -32.689  1.00  0.00     0.053 C 
HETATM    5  C   UNL     1      -5.721 -14.241 -32.181  1.00  0.00     0.089 C 
HETATM    6  C   UNL     1      -5.573 -13.099 -33.192  1.00  0.00     0.053 C 
HETATM    7  C   UNL     1      -5.288 -13.577 -34.608  1.00  0.00     0.237 C 
ENDROOT
BRANCH   1   8
HETATM    8  C   UNL     1      -6.072 -15.023 -36.469  1.00  0.00     0.271 C 
BRANCH   8   9
HETATM    9  C   UNL     1      -7.196 -14.824 -37.443  1.00  0.00    -0.029 C 
HETATM   10  C   UNL     1      -7.607 -16.077 -38.192  1.00  0.00     0.211 C 
HETATM   11  O   UNL     1      -8.913 -16.054 -38.776  1.00  0.00    -0.346 OA
HETATM   12  C   UNL     1      -9.352 -14.838 -39.219  1.00  0.00     0.079 A 
HETATM   13  C   UNL     1      -8.840 -13.631 -38.734  1.00  0.00    -0.001 A 
HETATM   14  C   UNL     1     -10.389 -14.849 -40.152  1.00  0.00     0.039 A 
HETATM   15  C   UNL     1      -9.366 -12.424 -39.206  1.00  0.00     0.038 A 
HETATM   16  C   UNL     1      -7.792 -13.650 -37.717  1.00  0.00     0.021 C 
HETATM   17  C   UNL     1     -10.392 -12.439 -40.155  1.00  0.00     0.035 A 
HETATM   18  C   UNL     1     -10.907 -13.644 -40.628  1.00  0.00     0.026 A 
HETATM   19 CL   UNL     1     -11.032 -10.950 -40.734  1.00  0.00    -0.084 Cl
ENDBRANCH   8   9
ENDBRANCH   1   8
BRANCH   5  20
HETATM   20  N   UNL     1      -4.508 -14.952 -31.770  1.00  0.00    -0.339 N 
HETATM   21  C   UNL     1      -4.305 -15.652 -30.621  1.00  0.00     0.314 C 
HETATM   22  N   UNL     1      -3.105 -16.278 -30.593  1.00  0.00    -0.352 N 
HETATM   23  O   UNL     1      -5.051 -15.668 -29.655  1.00  0.00    -0.248 OA
HETATM   24  H   UNL     1      -2.736 -16.685 -31.441  1.00  0.00     0.160 HD
HETATM   25  H   UNL     1      -2.962 -16.853 -29.770  1.00  0.00     0.160 HD
HETATM   26  H   UNL     1      -3.838 -15.154 -32.501  1.00  0.00     0.164 HD
ENDBRANCH   5  20
TORSDOF 3
ENDMDL
