MODEL 1
REMARK VINA RESULT:      -9.4      0.000      0.000
REMARK  8 active torsions:
REMARK  status: ('A' for Active; 'I' for Inactive)
REMARK    1  A    between atoms: C_2  and  O_3 
REMARK    2  A    between atoms: O_3  and  C_4 
REMARK    3  A    between atoms: C_5  and  N_6 
REMARK       I    between atoms: N_9  and  C_10 
REMARK    4  A    between atoms: C_10  and  C_11 
REMARK    5  A    between atoms: C_14  and  C_15 
REMARK       I    between atoms: C_15  and  N_16 
REMARK    6  A    between atoms: N_16  and  C_17 
REMARK    7  A    between atoms: C_17  and  C_18 
REMARK    8  A    between atoms: N_23  and  C_24 
ROOT
HETATM    1  C   UNL     1      -7.310   2.822 -33.318  1.00  0.00     0.098 A 
HETATM    2  C   UNL     1      -8.657   2.305 -32.935  1.00  0.00     0.206 A 
HETATM    3  O   UNL     1      -9.481   3.011 -32.357  1.00  0.00    -0.286 OA
HETATM    4  C   UNL     1      -8.967   0.879 -33.247  1.00  0.00     0.098 A 
HETATM    5  C   UNL     1      -7.966   0.129 -33.742  1.00  0.00     0.112 A 
HETATM    6  N   UNL     1      -6.683   0.587 -34.042  1.00  0.00    -0.360 N 
HETATM    7  C   UNL     1      -6.455   1.948 -33.872  1.00  0.00     0.112 A 
ENDROOT
BRANCH   1   8
HETATM    8  C   UNL     1      -6.992   4.271 -33.205  1.00  0.00     0.259 C 
HETATM    9  N   UNL     1      -6.586   4.791 -31.978  1.00  0.00    -0.346 N 
HETATM   10  C   UNL     1      -5.881   4.059 -30.925  1.00  0.00     0.141 C 
HETATM   11  C   UNL     1      -6.286   6.224 -31.915  1.00  0.00     0.141 C 
HETATM   12  C   UNL     1      -4.350   4.216 -31.117  1.00  0.00     0.115 C 
HETATM   13  N   UNL     1      -3.964   5.658 -31.124  1.00  0.00    -0.278 NA
HETATM   14  C   UNL     1      -4.774   6.470 -32.086  1.00  0.00     0.115 C 
HETATM   15  O   UNL     1      -7.129   4.981 -34.201  1.00  0.00    -0.267 OA
BRANCH  13  16
HETATM   16  C   UNL     1      -2.562   5.884 -31.130  1.00  0.00     0.044 A 
HETATM   17  C   UNL     1      -1.697   5.340 -32.110  1.00  0.00     0.090 A 
HETATM   18  C   UNL     1      -0.320   5.614 -32.133  1.00  0.00     0.038 A 
HETATM   19  C   UNL     1       0.258   6.389 -31.139  1.00  0.00     0.003 A 
HETATM   20  C   UNL     1      -0.545   6.895 -30.126  1.00  0.00     0.002 A 
HETATM   21  C   UNL     1      -1.924   6.645 -30.125  1.00  0.00     0.026 A 
BRANCH  17  22
HETATM   22  O   UNL     1      -2.121   4.507 -33.119  1.00  0.00    -0.350 OA
BRANCH  22  23
HETATM   23  C   UNL     1      -1.891   5.100 -34.403  1.00  0.00     0.171 C 
HETATM   24  C   UNL     1      -3.245   5.288 -35.064  1.00  0.00     0.034 C 
ENDBRANCH  22  23
ENDBRANCH  17  22
ENDBRANCH  13  16
ENDBRANCH   1   8
BRANCH   4  25
HETATM   25  C   UNL     1     -10.293   0.229 -33.043  1.00  0.00     0.257 C 
HETATM   26  N   UNL     1     -11.371   0.916 -33.539  1.00  0.00    -0.356 N 
HETATM   27  H   UNL     1     -11.217   1.844 -33.934  1.00  0.00     0.162 HD
HETATM   28  O   UNL     1     -10.395  -0.861 -32.485  1.00  0.00    -0.267 OA
BRANCH  26  29
HETATM   29  C   UNL     1     -12.720   0.397 -33.481  1.00  0.00     0.126 C 
BRANCH  29  30
HETATM   30  C   UNL     1     -13.624   0.958 -34.587  1.00  0.00    -0.005 C 
HETATM   31  C   UNL     1     -15.103   0.853 -34.209  1.00  0.00     0.011 C 
HETATM   32  C   UNL     1     -13.259   2.417 -34.869  1.00  0.00     0.011 C 
ENDBRANCH  29  30
ENDBRANCH  26  29
ENDBRANCH   4  25
BRANCH   6  33
HETATM   33  C   UNL     1      -5.598  -0.402 -34.250  1.00  0.00     0.088 C 
HETATM   34  C   UNL     1      -4.893  -0.905 -32.987  1.00  0.00     0.026 C 
HETATM   35  C   UNL     1      -4.371  -2.271 -33.411  1.00  0.00     0.002 C 
HETATM   36  C   UNL     1      -5.526  -2.851 -34.213  1.00  0.00     0.002 C 
HETATM   37  C   UNL     1      -6.124  -1.662 -34.960  1.00  0.00     0.026 C 
ENDBRANCH   6  33
TORSDOF 8
ENDMDL
MODEL 2
REMARK VINA RESULT:      -9.0      1.094      1.937
REMARK  8 active torsions:
REMARK  status: ('A' for Active; 'I' for Inactive)
REMARK    1  A    between atoms: C_2  and  O_3 
REMARK    2  A    between atoms: O_3  and  C_4 
REMARK    3  A    between atoms: C_5  and  N_6 
REMARK       I    between atoms: N_9  and  C_10 
REMARK    4  A    between atoms: C_10  and  C_11 
REMARK    5  A    between atoms: C_14  and  C_15 
REMARK       I    between atoms: C_15  and  N_16 
REMARK    6  A    between atoms: N_16  and  C_17 
REMARK    7  A    between atoms: C_17  and  C_18 
REMARK    8  A    between atoms: N_23  and  C_24 
ROOT
HETATM    1  C   UNL     1      -7.208   2.747 -33.312  1.00  0.00     0.098 A 
HETATM    2  C   UNL     1      -8.560   2.249 -32.919  1.00  0.00     0.206 A 
HETATM    3  O   UNL     1      -9.373   2.970 -32.343  1.00  0.00    -0.286 OA
HETATM    4  C   UNL     1      -8.887   0.825 -33.216  1.00  0.00     0.098 A 
HETATM    5  C   UNL     1      -7.897   0.059 -33.708  1.00  0.00     0.112 A 
HETATM    6  N   UNL     1      -6.610   0.498 -34.018  1.00  0.00    -0.360 N 
HETATM    7  C   UNL     1      -6.366   1.859 -33.861  1.00  0.00     0.112 A 
ENDROOT
BRANCH   1   8
HETATM    8  C   UNL     1      -6.873   4.193 -33.213  1.00  0.00     0.259 C 
HETATM    9  N   UNL     1      -6.481   4.725 -31.987  1.00  0.00    -0.346 N 
HETATM   10  C   UNL     1      -5.803   3.999 -30.911  1.00  0.00     0.141 C 
HETATM   11  C   UNL     1      -6.163   6.154 -31.938  1.00  0.00     0.141 C 
HETATM   12  C   UNL     1      -4.268   4.133 -31.079  1.00  0.00     0.115 C 
HETATM   13  N   UNL     1      -3.863   5.570 -31.099  1.00  0.00    -0.278 NA
HETATM   14  C   UNL     1      -4.645   6.378 -32.086  1.00  0.00     0.115 C 
HETATM   15  O   UNL     1      -6.983   4.891 -34.221  1.00  0.00    -0.267 OA
BRANCH  13  16
HETATM   16  C   UNL     1      -2.457   5.777 -31.084  1.00  0.00     0.044 A 
HETATM   17  C   UNL     1      -1.824   6.706 -30.224  1.00  0.00     0.090 A 
HETATM   18  C   UNL     1      -0.430   6.863 -30.182  1.00  0.00     0.038 A 
HETATM   19  C   UNL     1       0.383   6.146 -31.047  1.00  0.00     0.003 A 
HETATM   20  C   UNL     1      -0.201   5.266 -31.947  1.00  0.00     0.002 A 
HETATM   21  C   UNL     1      -1.592   5.089 -31.963  1.00  0.00     0.026 A 
BRANCH  17  22
HETATM   22  O   UNL     1      -2.507   7.527 -29.356  1.00  0.00    -0.350 OA
BRANCH  22  23
HETATM   23  C   UNL     1      -2.129   8.896 -29.540  1.00  0.00     0.171 C 
HETATM   24  C   UNL     1      -2.996   9.459 -30.653  1.00  0.00     0.034 C 
ENDBRANCH  22  23
ENDBRANCH  17  22
ENDBRANCH  13  16
ENDBRANCH   1   8
BRANCH   4  25
HETATM   25  C   UNL     1     -10.219   0.192 -33.001  1.00  0.00     0.257 C 
HETATM   26  N   UNL     1     -11.287   0.866 -33.535  1.00  0.00    -0.356 N 
HETATM   27  H   UNL     1     -11.123   1.777 -33.965  1.00  0.00     0.162 HD
HETATM   28  O   UNL     1     -10.336  -0.875 -32.402  1.00  0.00    -0.267 OA
BRANCH  26  29
HETATM   29  C   UNL     1     -12.641   0.358 -33.471  1.00  0.00     0.126 C 
BRANCH  29  30
HETATM   30  C   UNL     1     -13.690   1.403 -33.875  1.00  0.00    -0.005 C 
HETATM   31  C   UNL     1     -13.162   2.330 -34.972  1.00  0.00     0.011 C 
HETATM   32  C   UNL     1     -14.967   0.705 -34.350  1.00  0.00     0.011 C 
ENDBRANCH  29  30
ENDBRANCH  26  29
ENDBRANCH   4  25
BRANCH   6  33
HETATM   33  C   UNL     1      -5.538  -0.505 -34.221  1.00  0.00     0.088 C 
HETATM   34  C   UNL     1      -4.864  -1.039 -32.954  1.00  0.00     0.026 C 
HETATM   35  C   UNL     1      -4.357  -2.407 -33.389  1.00  0.00     0.002 C 
HETATM   36  C   UNL     1      -5.506  -2.955 -34.222  1.00  0.00     0.002 C 
HETATM   37  C   UNL     1      -6.071  -1.745 -34.961  1.00  0.00     0.026 C 
ENDBRANCH   6  33
TORSDOF 8
ENDMDL
MODEL 3
REMARK VINA RESULT:      -8.9      1.563      4.631
REMARK  8 active torsions:
REMARK  status: ('A' for Active; 'I' for Inactive)
REMARK    1  A    between atoms: C_2  and  O_3 
REMARK    2  A    between atoms: O_3  and  C_4 
REMARK    3  A    between atoms: C_5  and  N_6 
REMARK       I    between atoms: N_9  and  C_10 
REMARK    4  A    between atoms: C_10  and  C_11 
REMARK    5  A    between atoms: C_14  and  C_15 
REMARK       I    between atoms: C_15  and  N_16 
REMARK    6  A    between atoms: N_16  and  C_17 
REMARK    7  A    between atoms: C_17  and  C_18 
REMARK    8  A    between atoms: N_23  and  C_24 
ROOT
HETATM    1  C   UNL     1      -7.238   3.394 -33.069  1.00  0.00     0.098 A 
HETATM    2  C   UNL     1      -6.315   2.221 -33.031  1.00  0.00     0.206 A 
HETATM    3  O   UNL     1      -5.111   2.338 -33.251  1.00  0.00    -0.286 OA
HETATM    4  C   UNL     1      -6.907   0.881 -32.749  1.00  0.00     0.098 A 
HETATM    5  C   UNL     1      -8.248   0.809 -32.670  1.00  0.00     0.112 A 
HETATM    6  N   UNL     1      -9.125   1.889 -32.770  1.00  0.00    -0.360 N 
HETATM    7  C   UNL     1      -8.546   3.147 -32.896  1.00  0.00     0.112 A 
ENDROOT
BRANCH   1   8
HETATM    8  C   UNL     1      -6.704   4.779 -33.165  1.00  0.00     0.259 C 
HETATM    9  N   UNL     1      -6.361   5.464 -32.002  1.00  0.00    -0.346 N 
HETATM   10  C   UNL     1      -5.908   4.858 -30.748  1.00  0.00     0.141 C 
HETATM   11  C   UNL     1      -5.842   6.826 -32.145  1.00  0.00     0.141 C 
HETATM   12  C   UNL     1      -4.360   4.761 -30.746  1.00  0.00     0.115 C 
HETATM   13  N   UNL     1      -3.747   6.108 -30.948  1.00  0.00    -0.278 NA
HETATM   14  C   UNL     1      -4.300   6.823 -32.141  1.00  0.00     0.115 C 
HETATM   15  O   UNL     1      -6.610   5.296 -34.278  1.00  0.00    -0.267 OA
BRANCH  13  16
HETATM   16  C   UNL     1      -2.335   6.131 -30.795  1.00  0.00     0.044 A 
HETATM   17  C   UNL     1      -1.453   5.442 -31.662  1.00  0.00     0.090 A 
HETATM   18  C   UNL     1      -0.057   5.517 -31.529  1.00  0.00     0.038 A 
HETATM   19  C   UNL     1       0.511   6.229 -30.484  1.00  0.00     0.003 A 
HETATM   20  C   UNL     1      -0.319   6.872 -29.576  1.00  0.00     0.002 A 
HETATM   21  C   UNL     1      -1.712   6.821 -29.732  1.00  0.00     0.026 A 
BRANCH  17  22
HETATM   22  O   UNL     1      -1.876   4.651 -32.704  1.00  0.00    -0.350 OA
BRANCH  22  23
HETATM   23  C   UNL     1      -1.434   5.179 -33.961  1.00  0.00     0.171 C 
HETATM   24  C   UNL     1      -2.629   5.172 -34.899  1.00  0.00     0.034 C 
ENDBRANCH  22  23
ENDBRANCH  17  22
ENDBRANCH  13  16
ENDBRANCH   1   8
BRANCH   4  25
HETATM   25  C   UNL     1      -6.127  -0.374 -32.560  1.00  0.00     0.257 C 
HETATM   26  N   UNL     1      -5.608  -0.926 -33.703  1.00  0.00    -0.356 N 
HETATM   27  H   UNL     1      -5.848  -0.504 -34.600  1.00  0.00     0.162 HD
HETATM   28  O   UNL     1      -5.950  -0.860 -31.445  1.00  0.00    -0.267 OA
BRANCH  26  29
HETATM   29  C   UNL     1      -4.774  -2.109 -33.689  1.00  0.00     0.126 C 
BRANCH  29  30
HETATM   30  C   UNL     1      -5.247  -3.184 -34.677  1.00  0.00    -0.005 C 
HETATM   31  C   UNL     1      -4.689  -4.561 -34.314  1.00  0.00     0.011 C 
HETATM   32  C   UNL     1      -6.776  -3.230 -34.706  1.00  0.00     0.011 C 
ENDBRANCH  29  30
ENDBRANCH  26  29
ENDBRANCH   4  25
BRANCH   6  33
HETATM   33  C   UNL     1     -10.565   1.626 -33.006  1.00  0.00     0.088 C 
HETATM   34  C   UNL     1     -11.499   2.833 -32.889  1.00  0.00     0.026 C 
HETATM   35  C   UNL     1     -12.675   2.440 -33.774  1.00  0.00     0.002 C 
HETATM   36  C   UNL     1     -12.004   1.805 -34.982  1.00  0.00     0.002 C 
HETATM   37  C   UNL     1     -10.800   1.055 -34.416  1.00  0.00     0.026 C 
ENDBRANCH   6  33
TORSDOF 8
ENDMDL
MODEL 4
REMARK VINA RESULT:      -8.9      2.310      8.379
REMARK  8 active torsions:
REMARK  status: ('A' for Active; 'I' for Inactive)
REMARK    1  A    between atoms: C_2  and  O_3 
REMARK    2  A    between atoms: O_3  and  C_4 
REMARK    3  A    between atoms: C_5  and  N_6 
REMARK       I    between atoms: N_9  and  C_10 
REMARK    4  A    between atoms: C_10  and  C_11 
REMARK    5  A    between atoms: C_14  and  C_15 
REMARK       I    between atoms: C_15  and  N_16 
REMARK    6  A    between atoms: N_16  and  C_17 
REMARK    7  A    between atoms: C_17  and  C_18 
REMARK    8  A    between atoms: N_23  and  C_24 
ROOT
HETATM    1  C   UNL     1      -6.049   2.850 -31.394  1.00  0.00     0.098 A 
HETATM    2  C   UNL     1      -5.888   1.374 -31.549  1.00  0.00     0.206 A 
HETATM    3  O   UNL     1      -6.760   0.586 -31.186  1.00  0.00    -0.286 OA
HETATM    4  C   UNL     1      -4.609   0.873 -32.131  1.00  0.00     0.098 A 
HETATM    5  C   UNL     1      -3.645   1.782 -32.363  1.00  0.00     0.112 A 
HETATM    6  N   UNL     1      -3.761   3.156 -32.160  1.00  0.00    -0.360 N 
HETATM    7  C   UNL     1      -5.006   3.618 -31.745  1.00  0.00     0.112 A 
ENDROOT
BRANCH   1   8
HETATM    8  C   UNL     1      -7.356   3.434 -30.992  1.00  0.00     0.259 C 
HETATM    9  N   UNL     1      -8.188   3.990 -31.961  1.00  0.00    -0.346 N 
HETATM   10  C   UNL     1      -8.249   3.597 -33.370  1.00  0.00     0.141 C 
HETATM   11  C   UNL     1      -9.464   4.555 -31.517  1.00  0.00     0.141 C 
HETATM   12  C   UNL     1      -9.326   2.498 -33.559  1.00  0.00     0.115 C 
HETATM   13  N   UNL     1     -10.655   2.975 -33.073  1.00  0.00    -0.278 NA
HETATM   14  C   UNL     1     -10.600   3.526 -31.683  1.00  0.00     0.115 C 
HETATM   15  O   UNL     1      -7.655   3.437 -29.798  1.00  0.00    -0.267 OA
BRANCH  13  16
HETATM   16  C   UNL     1     -11.730   2.090 -33.360  1.00  0.00     0.044 A 
HETATM   17  C   UNL     1     -13.052   2.536 -33.602  1.00  0.00     0.090 A 
HETATM   18  C   UNL     1     -14.092   1.655 -33.937  1.00  0.00     0.038 A 
HETATM   19  C   UNL     1     -13.868   0.287 -33.977  1.00  0.00     0.003 A 
HETATM   20  C   UNL     1     -12.600  -0.197 -33.689  1.00  0.00     0.002 A 
HETATM   21  C   UNL     1     -11.556   0.689 -33.387  1.00  0.00     0.026 A 
BRANCH  17  22
HETATM   22  O   UNL     1     -13.433   3.856 -33.538  1.00  0.00    -0.350 OA
BRANCH  22  23
HETATM   23  C   UNL     1     -14.363   4.070 -32.470  1.00  0.00     0.171 C 
HETATM   24  C   UNL     1     -14.632   5.563 -32.397  1.00  0.00     0.034 C 
ENDBRANCH  22  23
ENDBRANCH  17  22
ENDBRANCH  13  16
ENDBRANCH   1   8
BRANCH   4  25
HETATM   25  C   UNL     1      -4.322  -0.551 -32.464  1.00  0.00     0.257 C 
HETATM   26  N   UNL     1      -4.891  -1.013 -33.623  1.00  0.00    -0.356 N 
HETATM   27  H   UNL     1      -5.525  -0.399 -34.133  1.00  0.00     0.162 HD
HETATM   28  O   UNL     1      -3.605  -1.247 -31.749  1.00  0.00    -0.267 OA
BRANCH  26  29
HETATM   29  C   UNL     1      -4.662  -2.352 -34.123  1.00  0.00     0.126 C 
BRANCH  29  30
HETATM   30  C   UNL     1      -5.850  -2.901 -34.925  1.00  0.00    -0.005 C 
HETATM   31  C   UNL     1      -5.936  -4.425 -34.826  1.00  0.00     0.011 C 
HETATM   32  C   UNL     1      -7.152  -2.271 -34.425  1.00  0.00     0.011 C 
ENDBRANCH  29  30
ENDBRANCH  26  29
ENDBRANCH   4  25
BRANCH   6  33
HETATM   33  C   UNL     1      -2.532   3.985 -32.128  1.00  0.00     0.088 C 
HETATM   34  C   UNL     1      -2.029   4.498 -33.479  1.00  0.00     0.026 C 
HETATM   35  C   UNL     1      -1.252   5.751 -33.100  1.00  0.00     0.002 C 
HETATM   36  C   UNL     1      -2.135   6.401 -32.046  1.00  0.00     0.002 C 
HETATM   37  C   UNL     1      -2.730   5.239 -31.257  1.00  0.00     0.026 C 
ENDBRANCH   6  33
TORSDOF 8
ENDMDL
MODEL 5
REMARK VINA RESULT:      -8.7      2.079      8.874
REMARK  8 active torsions:
REMARK  status: ('A' for Active; 'I' for Inactive)
REMARK    1  A    between atoms: C_2  and  O_3 
REMARK    2  A    between atoms: O_3  and  C_4 
REMARK    3  A    between atoms: C_5  and  N_6 
REMARK       I    between atoms: N_9  and  C_10 
REMARK    4  A    between atoms: C_10  and  C_11 
REMARK    5  A    between atoms: C_14  and  C_15 
REMARK       I    between atoms: C_15  and  N_16 
REMARK    6  A    between atoms: N_16  and  C_17 
REMARK    7  A    between atoms: C_17  and  C_18 
REMARK    8  A    between atoms: N_23  and  C_24 
ROOT
HETATM    1  C   UNL     1      -5.295   3.987 -31.304  1.00  0.00     0.098 A 
HETATM    2  C   UNL     1      -4.111   4.897 -31.270  1.00  0.00     0.206 A 
HETATM    3  O   UNL     1      -4.236   6.118 -31.182  1.00  0.00    -0.286 OA
HETATM    4  C   UNL     1      -2.758   4.280 -31.382  1.00  0.00     0.098 A 
HETATM    5  C   UNL     1      -2.707   2.958 -31.628  1.00  0.00     0.112 A 
HETATM    6  N   UNL     1      -3.809   2.109 -31.727  1.00  0.00    -0.360 N 
HETATM    7  C   UNL     1      -5.054   2.679 -31.484  1.00  0.00     0.112 A 
ENDROOT
BRANCH   1   8
HETATM    8  C   UNL     1      -6.660   4.504 -31.018  1.00  0.00     0.259 C 
HETATM    9  N   UNL     1      -7.375   5.148 -32.026  1.00  0.00    -0.346 N 
HETATM   10  C   UNL     1      -7.241   4.908 -33.464  1.00  0.00     0.141 C 
HETATM   11  C   UNL     1      -8.714   5.644 -31.697  1.00  0.00     0.141 C 
HETATM   12  C   UNL     1      -8.253   3.819 -33.906  1.00  0.00     0.115 C 
HETATM   13  N   UNL     1      -9.647   4.221 -33.552  1.00  0.00    -0.278 NA
HETATM   14  C   UNL     1      -9.788   4.621 -32.117  1.00  0.00     0.115 C 
HETATM   15  O   UNL     1      -7.110   4.375 -29.880  1.00  0.00    -0.267 OA
BRANCH  13  16
HETATM   16  C   UNL     1     -10.649   3.356 -34.070  1.00  0.00     0.044 A 
HETATM   17  C   UNL     1     -10.885   2.056 -33.559  1.00  0.00     0.090 A 
HETATM   18  C   UNL     1     -11.912   1.233 -34.045  1.00  0.00     0.038 A 
HETATM   19  C   UNL     1     -12.702   1.649 -35.107  1.00  0.00     0.003 A 
HETATM   20  C   UNL     1     -12.467   2.893 -35.675  1.00  0.00     0.002 A 
HETATM   21  C   UNL     1     -11.461   3.725 -35.164  1.00  0.00     0.026 A 
BRANCH  17  22
HETATM   22  O   UNL     1     -10.142   1.490 -32.549  1.00  0.00    -0.350 OA
BRANCH  22  23
HETATM   23  C   UNL     1      -9.872   0.110 -32.824  1.00  0.00     0.171 C 
HETATM   24  C   UNL     1      -8.557   0.049 -33.581  1.00  0.00     0.034 C 
ENDBRANCH  22  23
ENDBRANCH  17  22
ENDBRANCH  13  16
ENDBRANCH   1   8
BRANCH   4  25
HETATM   25  C   UNL     1      -1.470   5.017 -31.252  1.00  0.00     0.257 C 
HETATM   26  N   UNL     1      -1.340   5.785 -30.123  1.00  0.00    -0.356 N 
HETATM   27  H   UNL     1      -2.140   5.870 -29.497  1.00  0.00     0.162 HD
HETATM   28  O   UNL     1      -0.583   4.917 -32.097  1.00  0.00    -0.267 OA
BRANCH  26  29
HETATM   29  C   UNL     1      -0.129   6.515 -29.812  1.00  0.00     0.126 C 
BRANCH  29  30
HETATM   30  C   UNL     1      -0.316   7.521 -28.669  1.00  0.00    -0.005 C 
HETATM   31  C   UNL     1       1.016   8.149 -28.253  1.00  0.00     0.011 C 
HETATM   32  C   UNL     1      -1.300   8.614 -29.091  1.00  0.00     0.011 C 
ENDBRANCH  29  30
ENDBRANCH  26  29
ENDBRANCH   4  25
BRANCH   6  33
HETATM   33  C   UNL     1      -3.630   0.768 -32.332  1.00  0.00     0.088 C 
HETATM   34  C   UNL     1      -3.281  -0.367 -31.366  1.00  0.00     0.026 C 
HETATM   35  C   UNL     1      -3.795  -1.603 -32.092  1.00  0.00     0.002 C 
HETATM   36  C   UNL     1      -5.130  -1.143 -32.658  1.00  0.00     0.002 C 
HETATM   37  C   UNL     1      -4.908   0.313 -33.060  1.00  0.00     0.026 C 
ENDBRANCH   6  33
TORSDOF 8
ENDMDL
MODEL 6
REMARK VINA RESULT:      -8.7      2.043      8.008
REMARK  8 active torsions:
REMARK  status: ('A' for Active; 'I' for Inactive)
REMARK    1  A    between atoms: C_2  and  O_3 
REMARK    2  A    between atoms: O_3  and  C_4 
REMARK    3  A    between atoms: C_5  and  N_6 
REMARK       I    between atoms: N_9  and  C_10 
REMARK    4  A    between atoms: C_10  and  C_11 
REMARK    5  A    between atoms: C_14  and  C_15 
REMARK       I    between atoms: C_15  and  N_16 
REMARK    6  A    between atoms: N_16  and  C_17 
REMARK    7  A    between atoms: C_17  and  C_18 
REMARK    8  A    between atoms: N_23  and  C_24 
ROOT
HETATM    1  C   UNL     1      -5.561   4.648 -31.088  1.00  0.00     0.098 A 
HETATM    2  C   UNL     1      -5.364   3.175 -31.225  1.00  0.00     0.206 A 
HETATM    3  O   UNL     1      -6.300   2.384 -31.120  1.00  0.00    -0.286 OA
HETATM    4  C   UNL     1      -3.977   2.679 -31.461  1.00  0.00     0.098 A 
HETATM    5  C   UNL     1      -2.986   3.588 -31.412  1.00  0.00     0.112 A 
HETATM    6  N   UNL     1      -3.152   4.959 -31.219  1.00  0.00    -0.360 N 
HETATM    7  C   UNL     1      -4.463   5.418 -31.138  1.00  0.00     0.112 A 
ENDROOT
BRANCH   1   8
HETATM    8  C   UNL     1      -6.928   5.230 -31.032  1.00  0.00     0.259 C 
HETATM    9  N   UNL     1      -7.506   5.741 -32.193  1.00  0.00    -0.346 N 
HETATM   10  C   UNL     1      -7.227   5.297 -33.560  1.00  0.00     0.141 C 
HETATM   11  C   UNL     1      -8.853   6.306 -32.088  1.00  0.00     0.141 C 
HETATM   12  C   UNL     1      -8.224   4.179 -33.958  1.00  0.00     0.115 C 
HETATM   13  N   UNL     1      -9.633   4.656 -33.822  1.00  0.00    -0.278 NA
HETATM   14  C   UNL     1      -9.913   5.258 -32.481  1.00  0.00     0.115 C 
HETATM   15  O   UNL     1      -7.504   5.273 -29.945  1.00  0.00    -0.267 OA
BRANCH  13  16
HETATM   16  C   UNL     1     -10.604   3.749 -34.324  1.00  0.00     0.044 A 
HETATM   17  C   UNL     1     -10.872   2.495 -33.723  1.00  0.00     0.090 A 
HETATM   18  C   UNL     1     -11.871   1.632 -34.199  1.00  0.00     0.038 A 
HETATM   19  C   UNL     1     -12.596   1.957 -35.336  1.00  0.00     0.003 A 
HETATM   20  C   UNL     1     -12.325   3.150 -35.990  1.00  0.00     0.002 A 
HETATM   21  C   UNL     1     -11.349   4.025 -35.492  1.00  0.00     0.026 A 
BRANCH  17  22
HETATM   22  O   UNL     1     -10.192   2.016 -32.628  1.00  0.00    -0.350 OA
BRANCH  22  23
HETATM   23  C   UNL     1      -9.309   0.950 -32.998  1.00  0.00     0.171 C 
HETATM   24  C   UNL     1      -8.971   0.182 -31.733  1.00  0.00     0.034 C 
ENDBRANCH  22  23
ENDBRANCH  17  22
ENDBRANCH  13  16
ENDBRANCH   1   8
BRANCH   4  25
HETATM   25  C   UNL     1      -3.611   1.261 -31.735  1.00  0.00     0.257 C 
HETATM   26  N   UNL     1      -4.346   0.639 -32.712  1.00  0.00    -0.356 N 
HETATM   27  H   UNL     1      -5.131   1.142 -33.125  1.00  0.00     0.162 HD
HETATM   28  O   UNL     1      -2.696   0.704 -31.133  1.00  0.00    -0.267 OA
BRANCH  26  29
HETATM   29  C   UNL     1      -4.080  -0.716 -33.144  1.00  0.00     0.126 C 
BRANCH  29  30
HETATM   30  C   UNL     1      -5.343  -1.452 -33.612  1.00  0.00    -0.005 C 
HETATM   31  C   UNL     1      -6.223  -0.554 -34.484  1.00  0.00     0.011 C 
HETATM   32  C   UNL     1      -4.956  -2.715 -34.384  1.00  0.00     0.011 C 
ENDBRANCH  29  30
ENDBRANCH  26  29
ENDBRANCH   4  25
BRANCH   6  33
HETATM   33  C   UNL     1      -1.976   5.781 -30.848  1.00  0.00     0.088 C 
HETATM   34  C   UNL     1      -0.622   5.065 -30.862  1.00  0.00     0.026 C 
HETATM   35  C   UNL     1       0.362   6.203 -31.098  1.00  0.00     0.002 C 
HETATM   36  C   UNL     1      -0.335   7.052 -32.151  1.00  0.00     0.002 C 
HETATM   37  C   UNL     1      -1.817   6.983 -31.795  1.00  0.00     0.026 C 
ENDBRANCH   6  33
TORSDOF 8
ENDMDL
MODEL 7
REMARK VINA RESULT:      -8.6      2.179      9.232
REMARK  8 active torsions:
REMARK  status: ('A' for Active; 'I' for Inactive)
REMARK    1  A    between atoms: C_2  and  O_3 
REMARK    2  A    between atoms: O_3  and  C_4 
REMARK    3  A    between atoms: C_5  and  N_6 
REMARK       I    between atoms: N_9  and  C_10 
REMARK    4  A    between atoms: C_10  and  C_11 
REMARK    5  A    between atoms: C_14  and  C_15 
REMARK       I    between atoms: C_15  and  N_16 
REMARK    6  A    between atoms: N_16  and  C_17 
REMARK    7  A    between atoms: C_17  and  C_18 
REMARK    8  A    between atoms: N_23  and  C_24 
ROOT
HETATM    1  C   UNL     1      -6.557   3.125 -31.803  1.00  0.00     0.098 A 
HETATM    2  C   UNL     1      -5.345   3.995 -31.838  1.00  0.00     0.206 A 
HETATM    3  O   UNL     1      -5.392   5.184 -31.525  1.00  0.00    -0.286 OA
HETATM    4  C   UNL     1      -4.066   3.385 -32.303  1.00  0.00     0.098 A 
HETATM    5  C   UNL     1      -4.124   2.125 -32.772  1.00  0.00     0.112 A 
HETATM    6  N   UNL     1      -5.265   1.325 -32.805  1.00  0.00    -0.360 N 
HETATM    7  C   UNL     1      -6.417   1.864 -32.242  1.00  0.00     0.112 A 
ENDROOT
BRANCH   1   8
HETATM    8  C   UNL     1      -7.821   3.607 -31.185  1.00  0.00     0.259 C 
HETATM    9  N   UNL     1      -8.774   4.243 -31.978  1.00  0.00    -0.346 N 
HETATM   10  C   UNL     1      -8.991   4.019 -33.408  1.00  0.00     0.141 C 
HETATM   11  C   UNL     1     -10.002   4.703 -31.325  1.00  0.00     0.141 C 
HETATM   12  C   UNL     1     -10.058   2.911 -33.606  1.00  0.00     0.115 C 
HETATM   13  N   UNL     1     -11.331   3.276 -32.917  1.00  0.00    -0.278 NA
HETATM   14  C   UNL     1     -11.126   3.660 -31.485  1.00  0.00     0.115 C 
HETATM   15  O   UNL     1      -7.977   3.457 -29.974  1.00  0.00    -0.267 OA
BRANCH  13  16
HETATM   16  C   UNL     1     -12.411   2.392 -33.186  1.00  0.00     0.044 A 
HETATM   17  C   UNL     1     -13.766   2.744 -32.976  1.00  0.00     0.090 A 
HETATM   18  C   UNL     1     -14.825   1.881 -33.296  1.00  0.00     0.038 A 
HETATM   19  C   UNL     1     -14.570   0.605 -33.776  1.00  0.00     0.003 A 
HETATM   20  C   UNL     1     -13.254   0.198 -33.942  1.00  0.00     0.002 A 
HETATM   21  C   UNL     1     -12.200   1.076 -33.652  1.00  0.00     0.026 A 
BRANCH  17  22
HETATM   22  O   UNL     1     -14.165   3.952 -32.451  1.00  0.00    -0.350 OA
BRANCH  22  23
HETATM   23  C   UNL     1     -15.519   3.886 -31.987  1.00  0.00     0.171 C 
HETATM   24  C   UNL     1     -15.902   5.277 -31.512  1.00  0.00     0.034 C 
ENDBRANCH  22  23
ENDBRANCH  17  22
ENDBRANCH  13  16
ENDBRANCH   1   8
BRANCH   4  25
HETATM   25  C   UNL     1      -2.741   4.067 -32.294  1.00  0.00     0.257 C 
HETATM   26  N   UNL     1      -2.313   4.511 -31.069  1.00  0.00    -0.356 N 
HETATM   27  H   UNL     1      -2.944   4.426 -30.272  1.00  0.00     0.162 HD
HETATM   28  O   UNL     1      -2.077   4.196 -33.319  1.00  0.00    -0.267 OA
BRANCH  26  29
HETATM   29  C   UNL     1      -1.023   5.138 -30.873  1.00  0.00     0.126 C 
BRANCH  29  30
HETATM   30  C   UNL     1      -1.111   6.667 -30.781  1.00  0.00    -0.005 C 
HETATM   31  C   UNL     1      -0.098   7.227 -29.781  1.00  0.00     0.011 C 
HETATM   32  C   UNL     1      -0.880   7.288 -32.161  1.00  0.00     0.011 C 
ENDBRANCH  29  30
ENDBRANCH  26  29
ENDBRANCH   4  25
BRANCH   6  33
HETATM   33  C   UNL     1      -5.264   0.106 -33.649  1.00  0.00     0.088 C 
HETATM   34  C   UNL     1      -5.410  -1.227 -32.910  1.00  0.00     0.026 C 
HETATM   35  C   UNL     1      -6.014  -2.139 -33.969  1.00  0.00     0.002 C 
HETATM   36  C   UNL     1      -7.045  -1.249 -34.646  1.00  0.00     0.002 C 
HETATM   37  C   UNL     1      -6.413   0.139 -34.673  1.00  0.00     0.026 C 
ENDBRANCH   6  33
TORSDOF 8
ENDMDL
MODEL 8
REMARK VINA RESULT:      -8.5      1.974      5.220
REMARK  8 active torsions:
REMARK  status: ('A' for Active; 'I' for Inactive)
REMARK    1  A    between atoms: C_2  and  O_3 
REMARK    2  A    between atoms: O_3  and  C_4 
REMARK    3  A    between atoms: C_5  and  N_6 
REMARK       I    between atoms: N_9  and  C_10 
REMARK    4  A    between atoms: C_10  and  C_11 
REMARK    5  A    between atoms: C_14  and  C_15 
REMARK       I    between atoms: C_15  and  N_16 
REMARK    6  A    between atoms: N_16  and  C_17 
REMARK    7  A    between atoms: C_17  and  C_18 
REMARK    8  A    between atoms: N_23  and  C_24 
ROOT
HETATM    1  C   UNL     1      -6.610   3.403 -33.486  1.00  0.00     0.098 A 
HETATM    2  C   UNL     1      -5.750   2.224 -33.171  1.00  0.00     0.206 A 
HETATM    3  O   UNL     1      -4.525   2.315 -33.108  1.00  0.00    -0.286 OA
HETATM    4  C   UNL     1      -6.424   0.909 -32.967  1.00  0.00     0.098 A 
HETATM    5  C   UNL     1      -7.748   0.857 -33.201  1.00  0.00     0.112 A 
HETATM    6  N   UNL     1      -8.550   1.939 -33.559  1.00  0.00    -0.360 N 
HETATM    7  C   UNL     1      -7.927   3.182 -33.612  1.00  0.00     0.112 A 
ENDROOT
BRANCH   1   8
HETATM    8  C   UNL     1      -6.034   4.774 -33.525  1.00  0.00     0.259 C 
HETATM    9  N   UNL     1      -5.921   5.506 -32.345  1.00  0.00    -0.346 N 
HETATM   10  C   UNL     1      -5.751   4.950 -31.002  1.00  0.00     0.141 C 
HETATM   11  C   UNL     1      -5.351   6.852 -32.434  1.00  0.00     0.141 C 
HETATM   12  C   UNL     1      -4.240   4.830 -30.676  1.00  0.00     0.115 C 
HETATM   13  N   UNL     1      -3.566   6.156 -30.801  1.00  0.00    -0.278 NA
HETATM   14  C   UNL     1      -3.844   6.826 -32.110  1.00  0.00     0.115 C 
HETATM   15  O   UNL     1      -5.701   5.239 -34.615  1.00  0.00    -0.267 OA
BRANCH  13  16
HETATM   16  C   UNL     1      -2.215   6.166 -30.360  1.00  0.00     0.044 A 
HETATM   17  C   UNL     1      -1.722   7.088 -29.405  1.00  0.00     0.090 A 
HETATM   18  C   UNL     1      -0.399   7.052 -28.940  1.00  0.00     0.038 A 
HETATM   19  C   UNL     1       0.504   6.136 -29.460  1.00  0.00     0.003 A 
HETATM   20  C   UNL     1       0.077   5.251 -30.440  1.00  0.00     0.002 A 
HETATM   21  C   UNL     1      -1.255   5.269 -30.878  1.00  0.00     0.026 A 
BRANCH  17  22
HETATM   22  O   UNL     1      -2.486   8.088 -28.849  1.00  0.00    -0.350 OA
BRANCH  22  23
HETATM   23  C   UNL     1      -1.904   9.374 -29.093  1.00  0.00     0.171 C 
HETATM   24  C   UNL     1      -2.419   9.857 -30.437  1.00  0.00     0.034 C 
ENDBRANCH  22  23
ENDBRANCH  17  22
ENDBRANCH  13  16
ENDBRANCH   1   8
BRANCH   4  25
HETATM   25  C   UNL     1      -5.741  -0.343 -32.535  1.00  0.00     0.257 C 
HETATM   26  N   UNL     1      -4.942  -0.936 -33.479  1.00  0.00    -0.356 N 
HETATM   27  H   UNL     1      -4.927  -0.544 -34.420  1.00  0.00     0.162 HD
HETATM   28  O   UNL     1      -5.876  -0.790 -31.398  1.00  0.00    -0.267 OA
BRANCH  26  29
HETATM   29  C   UNL     1      -4.159  -2.122 -33.203  1.00  0.00     0.126 C 
BRANCH  29  30
HETATM   30  C   UNL     1      -4.279  -3.185 -34.304  1.00  0.00    -0.005 C 
HETATM   31  C   UNL     1      -3.756  -4.543 -33.830  1.00  0.00     0.011 C 
HETATM   32  C   UNL     1      -5.737  -3.313 -34.749  1.00  0.00     0.011 C 
ENDBRANCH  29  30
ENDBRANCH  26  29
ENDBRANCH   4  25
BRANCH   6  33
HETATM   33  C   UNL     1      -9.901   1.680 -34.113  1.00  0.00     0.088 C 
HETATM   34  C   UNL     1     -10.729   0.609 -33.399  1.00  0.00     0.026 C 
HETATM   35  C   UNL     1     -12.161   1.016 -33.718  1.00  0.00     0.002 C 
HETATM   36  C   UNL     1     -12.134   2.529 -33.565  1.00  0.00     0.002 C 
HETATM   37  C   UNL     1     -10.765   2.954 -34.089  1.00  0.00     0.026 C 
ENDBRANCH   6  33
TORSDOF 8
ENDMDL
MODEL 9
REMARK VINA RESULT:      -8.5      1.946      2.963
REMARK  8 active torsions:
REMARK  status: ('A' for Active; 'I' for Inactive)
REMARK    1  A    between atoms: C_2  and  O_3 
REMARK    2  A    between atoms: O_3  and  C_4 
REMARK    3  A    between atoms: C_5  and  N_6 
REMARK       I    between atoms: N_9  and  C_10 
REMARK    4  A    between atoms: C_10  and  C_11 
REMARK    5  A    between atoms: C_14  and  C_15 
REMARK       I    between atoms: C_15  and  N_16 
REMARK    6  A    between atoms: N_16  and  C_17 
REMARK    7  A    between atoms: C_17  and  C_18 
REMARK    8  A    between atoms: N_23  and  C_24 
ROOT
HETATM    1  C   UNL     1      -9.346   3.423 -33.354  1.00  0.00     0.098 A 
HETATM    2  C   UNL     1     -10.827   3.237 -33.337  1.00  0.00     0.206 A 
HETATM    3  O   UNL     1     -11.587   4.125 -32.954  1.00  0.00    -0.286 OA
HETATM    4  C   UNL     1     -11.365   1.915 -33.770  1.00  0.00     0.098 A 
HETATM    5  C   UNL     1     -10.470   0.945 -34.029  1.00  0.00     0.112 A 
HETATM    6  N   UNL     1      -9.084   1.089 -33.985  1.00  0.00    -0.360 N 
HETATM    7  C   UNL     1      -8.602   2.365 -33.712  1.00  0.00     0.112 A 
ENDROOT
BRANCH   1   8
HETATM    8  C   UNL     1      -8.746   4.761 -33.110  1.00  0.00     0.259 C 
HETATM    9  N   UNL     1      -7.774   4.909 -32.122  1.00  0.00    -0.346 N 
HETATM   10  C   UNL     1      -6.844   3.874 -31.669  1.00  0.00     0.141 C 
HETATM   11  C   UNL     1      -7.214   6.247 -31.916  1.00  0.00     0.141 C 
HETATM   12  C   UNL     1      -5.534   3.953 -32.495  1.00  0.00     0.115 C 
HETATM   13  N   UNL     1      -4.925   5.312 -32.387  1.00  0.00    -0.278 NA
HETATM   14  C   UNL     1      -5.895   6.408 -32.697  1.00  0.00     0.115 C 
HETATM   15  O   UNL     1      -9.150   5.716 -33.773  1.00  0.00    -0.267 OA
BRANCH  13  16
HETATM   16  C   UNL     1      -3.637   5.420 -32.979  1.00  0.00     0.044 A 
HETATM   17  C   UNL     1      -2.501   5.888 -32.276  1.00  0.00     0.090 A 
HETATM   18  C   UNL     1      -1.225   5.940 -32.858  1.00  0.00     0.038 A 
HETATM   19  C   UNL     1      -1.046   5.589 -34.188  1.00  0.00     0.003 A 
HETATM   20  C   UNL     1      -2.144   5.179 -34.931  1.00  0.00     0.002 A 
HETATM   21  C   UNL     1      -3.411   5.098 -34.336  1.00  0.00     0.026 A 
BRANCH  17  22
HETATM   22  O   UNL     1      -2.542   6.325 -30.972  1.00  0.00    -0.350 OA
BRANCH  22  23
HETATM   23  C   UNL     1      -1.959   7.628 -30.850  1.00  0.00     0.171 C 
HETATM   24  C   UNL     1      -3.041   8.640 -31.184  1.00  0.00     0.034 C 
ENDBRANCH  22  23
ENDBRANCH  17  22
ENDBRANCH  13  16
ENDBRANCH   1   8
BRANCH   4  25
HETATM   25  C   UNL     1     -12.812   1.591 -33.926  1.00  0.00     0.257 C 
HETATM   26  N   UNL     1     -13.582   1.772 -32.806  1.00  0.00    -0.356 N 
HETATM   27  H   UNL     1     -13.121   2.031 -31.934  1.00  0.00     0.162 HD
HETATM   28  O   UNL     1     -13.273   1.209 -34.999  1.00  0.00    -0.267 OA
BRANCH  26  29
HETATM   29  C   UNL     1     -15.015   1.564 -32.803  1.00  0.00     0.126 C 
BRANCH  29  30
HETATM   30  C   UNL     1     -15.755   2.525 -31.864  1.00  0.00    -0.005 C 
HETATM   31  C   UNL     1     -15.107   3.912 -31.858  1.00  0.00     0.011 C 
HETATM   32  C   UNL     1     -17.223   2.636 -32.281  1.00  0.00     0.011 C 
ENDBRANCH  29  30
ENDBRANCH  26  29
ENDBRANCH   4  25
BRANCH   6  33
HETATM   33  C   UNL     1      -8.236  -0.127 -33.955  1.00  0.00     0.088 C 
HETATM   34  C   UNL     1      -7.353  -0.363 -35.184  1.00  0.00     0.026 C 
HETATM   35  C   UNL     1      -6.211  -1.203 -34.626  1.00  0.00     0.002 C 
HETATM   36  C   UNL     1      -5.914  -0.540 -33.290  1.00  0.00     0.002 C 
HETATM   37  C   UNL     1      -7.274  -0.104 -32.753  1.00  0.00     0.026 C 
ENDBRANCH   6  33
TORSDOF 8
ENDMDL
MODEL 10
REMARK VINA RESULT:      -8.5      2.400      9.049
REMARK  8 active torsions:
REMARK  status: ('A' for Active; 'I' for Inactive)
REMARK    1  A    between atoms: C_2  and  O_3 
REMARK    2  A    between atoms: O_3  and  C_4 
REMARK    3  A    between atoms: C_5  and  N_6 
REMARK       I    between atoms: N_9  and  C_10 
REMARK    4  A    between atoms: C_10  and  C_11 
REMARK    5  A    between atoms: C_14  and  C_15 
REMARK       I    between atoms: C_15  and  N_16 
REMARK    6  A    between atoms: N_16  and  C_17 
REMARK    7  A    between atoms: C_17  and  C_18 
REMARK    8  A    between atoms: N_23  and  C_24 
ROOT
HETATM    1  C   UNL     1      -5.492   3.926 -31.227  1.00  0.00     0.098 A 
HETATM    2  C   UNL     1      -4.352   4.890 -31.220  1.00  0.00     0.206 A 
HETATM    3  O   UNL     1      -4.530   6.103 -31.115  1.00  0.00    -0.286 OA
HETATM    4  C   UNL     1      -2.976   4.337 -31.380  1.00  0.00     0.098 A 
HETATM    5  C   UNL     1      -2.871   3.021 -31.640  1.00  0.00     0.112 A 
HETATM    6  N   UNL     1      -3.935   2.123 -31.714  1.00  0.00    -0.360 N 
HETATM    7  C   UNL     1      -5.197   2.632 -31.428  1.00  0.00     0.112 A 
ENDROOT
BRANCH   1   8
HETATM    8  C   UNL     1      -6.870   4.377 -30.894  1.00  0.00     0.259 C 
HETATM    9  N   UNL     1      -7.637   5.016 -31.866  1.00  0.00    -0.346 N 
HETATM   10  C   UNL     1      -7.530   4.819 -33.313  1.00  0.00     0.141 C 
HETATM   11  C   UNL     1      -8.987   5.444 -31.492  1.00  0.00     0.141 C 
HETATM   12  C   UNL     1      -8.506   3.700 -33.760  1.00  0.00     0.115 C 
HETATM   13  N   UNL     1      -9.906   4.032 -33.362  1.00  0.00    -0.278 NA
HETATM   14  C   UNL     1     -10.028   4.388 -31.914  1.00  0.00     0.115 C 
HETATM   15  O   UNL     1      -7.286   4.199 -29.750  1.00  0.00    -0.267 OA
BRANCH  13  16
HETATM   16  C   UNL     1     -10.883   3.138 -33.878  1.00  0.00     0.044 A 
HETATM   17  C   UNL     1     -11.711   3.455 -34.983  1.00  0.00     0.090 A 
HETATM   18  C   UNL     1     -12.636   2.543 -35.515  1.00  0.00     0.038 A 
HETATM   19  C   UNL     1     -12.819   1.303 -34.922  1.00  0.00     0.003 A 
HETATM   20  C   UNL     1     -12.069   0.974 -33.801  1.00  0.00     0.002 A 
HETATM   21  C   UNL     1     -11.123   1.876 -33.293  1.00  0.00     0.026 A 
BRANCH  17  22
HETATM   22  O   UNL     1     -11.681   4.668 -35.632  1.00  0.00    -0.350 OA
BRANCH  22  23
HETATM   23  C   UNL     1     -12.960   5.310 -35.577  1.00  0.00     0.171 C 
HETATM   24  C   UNL     1     -13.017   6.096 -34.279  1.00  0.00     0.034 C 
ENDBRANCH  22  23
ENDBRANCH  17  22
ENDBRANCH  13  16
ENDBRANCH   1   8
BRANCH   4  25
HETATM   25  C   UNL     1      -1.719   5.132 -31.282  1.00  0.00     0.257 C 
HETATM   26  N   UNL     1      -1.756   6.192 -30.412  1.00  0.00    -0.356 N 
HETATM   27  H   UNL     1      -2.641   6.418 -29.957  1.00  0.00     0.162 HD
HETATM   28  O   UNL     1      -0.717   4.834 -31.927  1.00  0.00    -0.267 OA
BRANCH  26  29
HETATM   29  C   UNL     1      -0.604   7.028 -30.151  1.00  0.00     0.126 C 
BRANCH  29  30
HETATM   30  C   UNL     1      -0.008   6.803 -28.755  1.00  0.00    -0.005 C 
HETATM   31  C   UNL     1       0.777   5.492 -28.686  1.00  0.00     0.011 C 
HETATM   32  C   UNL     1       0.900   7.976 -28.379  1.00  0.00     0.011 C 
ENDBRANCH  29  30
ENDBRANCH  26  29
ENDBRANCH   4  25
BRANCH   6  33
HETATM   33  C   UNL     1      -3.713   0.797 -32.339  1.00  0.00     0.088 C 
HETATM   34  C   UNL     1      -3.306  -0.335 -31.391  1.00  0.00     0.026 C 
HETATM   35  C   UNL     1      -3.782  -1.581 -32.125  1.00  0.00     0.002 C 
HETATM   36  C   UNL     1      -5.142  -1.167 -32.666  1.00  0.00     0.002 C 
HETATM   37  C   UNL     1      -4.983   0.301 -33.054  1.00  0.00     0.026 C 
ENDBRANCH   6  33
TORSDOF 8
ENDMDL
