MODEL 1
REMARK VINA RESULT:     -10.7      0.000      0.000
REMARK  6 active torsions:
REMARK  status: ('A' for Active; 'I' for Inactive)
REMARK    1  A    between atoms: C_4  and  C_5 
REMARK    2  A    between atoms: N_8  and  C_9 
REMARK    3  A    between atoms: C_12  and  N_13 
REMARK       I    between atoms: N_13  and  C_14 
REMARK       I    between atoms: C_14  and  N_15 
REMARK    4  A    between atoms: N_15  and  C_16 
REMARK    5  A    between atoms: C_19  and  O_20 
REMARK    6  A    between atoms: O_20  and  C_21 
ROOT
HETATM    1  C   UNL     1      -5.750   2.564 -32.462  1.00  0.00     0.161 C 
HETATM    2  C   UNL     1      -4.302   3.027 -32.444  1.00  0.00     0.179 C 
HETATM    3  C   UNL     1      -4.068   3.578 -31.044  1.00  0.00     0.177 C 
HETATM    4  C   UNL     1      -3.599   5.013 -31.260  1.00  0.00     0.141 C 
HETATM    5  C   UNL     1      -3.291   5.070 -32.757  1.00  0.00     0.196 C 
HETATM    6  O   UNL     1      -4.121   4.093 -33.391  1.00  0.00    -0.379 OA
HETATM    7  O   UNL     1      -5.335   3.518 -30.358  1.00  0.00    -0.379 OA
HETATM    8  C   UNL     1      -6.067   2.445 -30.983  1.00  0.00     0.198 C 
ENDROOT
BRANCH   4   9
HETATM    9  N   UNL     1      -2.482   5.465 -30.435  1.00  0.00    -0.334 N 
HETATM   10  C   UNL     1      -1.186   5.208 -30.776  1.00  0.00     0.321 C 
HETATM   11  N   UNL     1      -0.221   5.948 -30.165  1.00  0.00    -0.309 N 
HETATM   12  O   UNL     1      -0.875   4.435 -31.678  1.00  0.00    -0.247 OA
HETATM   13  H   UNL     1       0.653   5.899 -30.676  1.00  0.00     0.170 HD
HETATM   14  H   UNL     1      -2.621   6.355 -29.980  1.00  0.00     0.164 HD
BRANCH  11  15
HETATM   15  C   UNL     1      -0.257   6.808 -29.056  1.00  0.00     0.036 A 
HETATM   16  C   UNL     1      -0.549   8.170 -29.139  1.00  0.00     0.032 A 
HETATM   17  C   UNL     1      -0.557   8.960 -27.984  1.00  0.00     0.039 A 
HETATM   18  C   UNL     1      -0.266   8.397 -26.740  1.00  0.00     0.076 A 
HETATM   19  C   UNL     1      -0.013   7.027 -26.649  1.00  0.00     0.039 A 
HETATM   20  C   UNL     1      -0.026   6.236 -27.801  1.00  0.00     0.032 A 
BRANCH  18  21
HETATM   21  O   UNL     1      -0.321   9.257 -25.663  1.00  0.00    -0.311 OA
BRANCH  21  22
HETATM   22  C   UNL     1       0.799   9.347 -24.875  1.00  0.00     0.076 A 
HETATM   23  C   UNL     1       2.052   9.059 -25.415  1.00  0.00     0.037 A 
HETATM   24  C   UNL     1       3.191   9.191 -24.620  1.00  0.00     0.003 A 
HETATM   25  C   UNL     1       3.071   9.617 -23.295  1.00  0.00     0.000 A 
HETATM   26  C   UNL     1       1.815   9.924 -22.767  1.00  0.00     0.003 A 
HETATM   27  C   UNL     1       0.677   9.804 -23.562  1.00  0.00     0.037 A 
ENDBRANCH  21  22
ENDBRANCH  18  21
ENDBRANCH  11  15
ENDBRANCH   4   9
BRANCH   1  28
HETATM   28  N   UNL     1      -5.946   1.379 -33.258  1.00  0.00    -0.273 N 
HETATM   29  N   UNL     1      -6.650   1.402 -34.401  1.00  0.00     0.005 NA
HETATM   30  N   UNL     1      -6.654   0.167 -34.890  1.00  0.00    -0.158 NA
HETATM   31  C   UNL     1      -5.923  -0.636 -34.048  1.00  0.00     0.101 A 
HETATM   32  C   UNL     1      -5.435   0.135 -33.018  1.00  0.00     0.142 A 
BRANCH  31  33
HETATM   33  C   UNL     1      -5.716  -2.059 -34.245  1.00  0.00    -0.005 A 
HETATM   34  C   UNL     1      -4.473  -2.630 -33.942  1.00  0.00     0.014 A 
HETATM   35  C   UNL     1      -4.249  -3.997 -34.133  1.00  0.00     0.001 A 
HETATM   36  C   UNL     1      -5.265  -4.807 -34.635  1.00  0.00     0.000 A 
HETATM   37  C   UNL     1      -6.504  -4.254 -34.945  1.00  0.00     0.001 A 
HETATM   38  C   UNL     1      -6.730  -2.888 -34.751  1.00  0.00     0.014 A 
ENDBRANCH  31  33
ENDBRANCH   1  28
TORSDOF 6
ENDMDL
MODEL 2
REMARK VINA RESULT:     -10.3      1.521      2.158
REMARK  6 active torsions:
REMARK  status: ('A' for Active; 'I' for Inactive)
REMARK    1  A    between atoms: C_4  and  C_5 
REMARK    2  A    between atoms: N_8  and  C_9 
REMARK    3  A    between atoms: C_12  and  N_13 
REMARK       I    between atoms: N_13  and  C_14 
REMARK       I    between atoms: C_14  and  N_15 
REMARK    4  A    between atoms: N_15  and  C_16 
REMARK    5  A    between atoms: C_19  and  O_20 
REMARK    6  A    between atoms: O_20  and  C_21 
ROOT
HETATM    1  C   UNL     1      -4.580   2.283 -32.536  1.00  0.00     0.161 C 
HETATM    2  C   UNL     1      -3.403   2.964 -31.855  1.00  0.00     0.179 C 
HETATM    3  C   UNL     1      -4.015   4.015 -30.939  1.00  0.00     0.177 C 
HETATM    4  C   UNL     1      -3.386   5.333 -31.379  1.00  0.00     0.141 C 
HETATM    5  C   UNL     1      -2.233   4.898 -32.284  1.00  0.00     0.196 C 
HETATM    6  O   UNL     1      -2.594   3.631 -32.838  1.00  0.00    -0.379 OA
HETATM    7  O   UNL     1      -5.438   3.988 -31.170  1.00  0.00    -0.379 OA
HETATM    8  C   UNL     1      -5.736   2.652 -31.624  1.00  0.00     0.198 C 
ENDROOT
BRANCH   4   9
HETATM    9  N   UNL     1      -2.960   6.238 -30.314  1.00  0.00    -0.334 N 
HETATM   10  C   UNL     1      -3.858   6.860 -29.497  1.00  0.00     0.321 C 
HETATM   11  N   UNL     1      -3.383   7.390 -28.336  1.00  0.00    -0.309 N 
HETATM   12  O   UNL     1      -5.067   6.856 -29.709  1.00  0.00    -0.247 OA
HETATM   13  H   UNL     1      -4.136   7.562 -27.680  1.00  0.00     0.170 HD
HETATM   14  H   UNL     1      -2.095   5.985 -29.861  1.00  0.00     0.164 HD
BRANCH  11  15
HETATM   15  C   UNL     1      -2.079   7.632 -27.878  1.00  0.00     0.036 A 
HETATM   16  C   UNL     1      -1.263   8.655 -28.365  1.00  0.00     0.032 A 
HETATM   17  C   UNL     1       0.031   8.823 -27.859  1.00  0.00     0.039 A 
HETATM   18  C   UNL     1       0.521   7.969 -26.870  1.00  0.00     0.076 A 
HETATM   19  C   UNL     1      -0.306   6.971 -26.354  1.00  0.00     0.039 A 
HETATM   20  C   UNL     1      -1.606   6.817 -26.846  1.00  0.00     0.032 A 
BRANCH  18  21
HETATM   21  O   UNL     1       1.800   8.234 -26.426  1.00  0.00    -0.311 OA
BRANCH  21  22
HETATM   22  C   UNL     1       1.925   8.848 -25.205  1.00  0.00     0.076 A 
HETATM   23  C   UNL     1       1.025   9.846 -24.835  1.00  0.00     0.037 A 
HETATM   24  C   UNL     1       1.133  10.438 -23.577  1.00  0.00     0.003 A 
HETATM   25  C   UNL     1       2.134  10.024 -22.695  1.00  0.00     0.000 A 
HETATM   26  C   UNL     1       3.019   9.010 -23.064  1.00  0.00     0.003 A 
HETATM   27  C   UNL     1       2.906   8.408 -24.316  1.00  0.00     0.037 A 
ENDBRANCH  21  22
ENDBRANCH  18  21
ENDBRANCH  11  15
ENDBRANCH   4   9
BRANCH   1  28
HETATM   28  N   UNL     1      -4.359   0.875 -32.753  1.00  0.00    -0.273 N 
HETATM   29  N   UNL     1      -3.259   0.252 -32.299  1.00  0.00     0.005 NA
HETATM   30  N   UNL     1      -3.347  -1.022 -32.661  1.00  0.00    -0.158 NA
HETATM   31  C   UNL     1      -4.530  -1.202 -33.335  1.00  0.00     0.101 A 
HETATM   32  C   UNL     1      -5.204  -0.003 -33.370  1.00  0.00     0.142 A 
BRANCH  31  33
HETATM   33  C   UNL     1      -4.969  -2.465 -33.899  1.00  0.00    -0.005 A 
HETATM   34  C   UNL     1      -6.234  -2.560 -34.496  1.00  0.00     0.014 A 
HETATM   35  C   UNL     1      -6.680  -3.769 -35.037  1.00  0.00     0.001 A 
HETATM   36  C   UNL     1      -5.868  -4.899 -34.984  1.00  0.00     0.000 A 
HETATM   37  C   UNL     1      -4.610  -4.823 -34.392  1.00  0.00     0.001 A 
HETATM   38  C   UNL     1      -4.162  -3.613 -33.853  1.00  0.00     0.014 A 
ENDBRANCH  31  33
ENDBRANCH   1  28
TORSDOF 6
ENDMDL
MODEL 3
REMARK VINA RESULT:     -10.2      3.335      4.332
REMARK  6 active torsions:
REMARK  status: ('A' for Active; 'I' for Inactive)
REMARK    1  A    between atoms: C_4  and  C_5 
REMARK    2  A    between atoms: N_8  and  C_9 
REMARK    3  A    between atoms: C_12  and  N_13 
REMARK       I    between atoms: N_13  and  C_14 
REMARK       I    between atoms: C_14  and  N_15 
REMARK    4  A    between atoms: N_15  and  C_16 
REMARK    5  A    between atoms: C_19  and  O_20 
REMARK    6  A    between atoms: O_20  and  C_21 
ROOT
HETATM    1  C   UNL     1      -6.489   2.850 -33.695  1.00  0.00     0.161 C 
HETATM    2  C   UNL     1      -5.498   2.861 -32.541  1.00  0.00     0.179 C 
HETATM    3  C   UNL     1      -4.628   4.091 -32.763  1.00  0.00     0.177 C 
HETATM    4  C   UNL     1      -3.201   3.557 -32.822  1.00  0.00     0.141 C 
HETATM    5  C   UNL     1      -3.332   2.122 -32.310  1.00  0.00     0.196 C 
HETATM    6  O   UNL     1      -4.663   1.693 -32.606  1.00  0.00    -0.379 OA
HETATM    7  O   UNL     1      -5.043   4.672 -34.016  1.00  0.00    -0.379 OA
HETATM    8  C   UNL     1      -6.421   4.283 -34.190  1.00  0.00     0.198 C 
ENDROOT
BRANCH   4   9
HETATM    9  N   UNL     1      -2.189   4.325 -32.102  1.00  0.00    -0.334 N 
HETATM   10  C   UNL     1      -1.332   5.169 -32.746  1.00  0.00     0.321 C 
HETATM   11  N   UNL     1      -0.676   6.091 -31.990  1.00  0.00    -0.309 N 
HETATM   12  O   UNL     1      -1.225   5.202 -33.969  1.00  0.00    -0.247 OA
HETATM   13  H   UNL     1      -0.306   6.837 -32.567  1.00  0.00     0.170 HD
HETATM   14  H   UNL     1      -2.466   4.639 -31.183  1.00  0.00     0.164 HD
BRANCH  11  15
HETATM   15  C   UNL     1      -0.521   6.229 -30.602  1.00  0.00     0.036 A 
HETATM   16  C   UNL     1       0.420   5.523 -29.852  1.00  0.00     0.032 A 
HETATM   17  C   UNL     1       0.504   5.713 -28.469  1.00  0.00     0.039 A 
HETATM   18  C   UNL     1      -0.356   6.604 -27.823  1.00  0.00     0.076 A 
HETATM   19  C   UNL     1      -1.271   7.341 -28.576  1.00  0.00     0.039 A 
HETATM   20  C   UNL     1      -1.339   7.165 -29.961  1.00  0.00     0.032 A 
BRANCH  18  21
HETATM   21  O   UNL     1      -0.177   6.733 -26.462  1.00  0.00    -0.311 OA
BRANCH  21  22
HETATM   22  C   UNL     1       0.462   7.865 -26.018  1.00  0.00     0.076 A 
HETATM   23  C   UNL     1      -0.283   8.928 -25.510  1.00  0.00     0.037 A 
HETATM   24  C   UNL     1       0.374  10.058 -25.023  1.00  0.00     0.003 A 
HETATM   25  C   UNL     1       1.769  10.116 -25.041  1.00  0.00     0.000 A 
HETATM   26  C   UNL     1       2.510   9.039 -25.533  1.00  0.00     0.003 A 
HETATM   27  C   UNL     1       1.857   7.903 -26.009  1.00  0.00     0.037 A 
ENDBRANCH  21  22
ENDBRANCH  18  21
ENDBRANCH  11  15
ENDBRANCH   4   9
BRANCH   1  28
HETATM   28  N   UNL     1      -7.790   2.365 -33.308  1.00  0.00    -0.273 N 
HETATM   29  N   UNL     1      -8.069   2.021 -32.040  1.00  0.00     0.005 NA
HETATM   30  N   UNL     1      -9.332   1.614 -32.009  1.00  0.00    -0.158 NA
HETATM   31  C   UNL     1      -9.856   1.725 -33.274  1.00  0.00     0.101 A 
HETATM   32  C   UNL     1      -8.889   2.238 -34.108  1.00  0.00     0.142 A 
BRANCH  31  33
HETATM   33  C   UNL     1     -11.213   1.357 -33.635  1.00  0.00    -0.005 A 
HETATM   34  C   UNL     1     -12.018   2.265 -34.337  1.00  0.00     0.014 A 
HETATM   35  C   UNL     1     -13.330   1.934 -34.687  1.00  0.00     0.001 A 
HETATM   36  C   UNL     1     -13.855   0.692 -34.335  1.00  0.00     0.000 A 
HETATM   37  C   UNL     1     -13.069  -0.219 -33.634  1.00  0.00     0.001 A 
HETATM   38  C   UNL     1     -11.756   0.109 -33.287  1.00  0.00     0.014 A 
ENDBRANCH  31  33
ENDBRANCH   1  28
TORSDOF 6
ENDMDL
MODEL 4
REMARK VINA RESULT:     -10.2      2.040     12.474
REMARK  6 active torsions:
REMARK  status: ('A' for Active; 'I' for Inactive)
REMARK    1  A    between atoms: C_4  and  C_5 
REMARK    2  A    between atoms: N_8  and  C_9 
REMARK    3  A    between atoms: C_12  and  N_13 
REMARK       I    between atoms: N_13  and  C_14 
REMARK       I    between atoms: C_14  and  N_15 
REMARK    4  A    between atoms: N_15  and  C_16 
REMARK    5  A    between atoms: C_19  and  O_20 
REMARK    6  A    between atoms: O_20  and  C_21 
ROOT
HETATM    1  C   UNL     1      -1.514   6.449 -31.027  1.00  0.00     0.161 C 
HETATM    2  C   UNL     1      -3.002   6.136 -31.064  1.00  0.00     0.179 C 
HETATM    3  C   UNL     1      -3.098   4.654 -31.395  1.00  0.00     0.177 C 
HETATM    4  C   UNL     1      -3.953   4.588 -32.656  1.00  0.00     0.141 C 
HETATM    5  C   UNL     1      -4.545   5.994 -32.764  1.00  0.00     0.196 C 
HETATM    6  O   UNL     1      -3.629   6.882 -32.121  1.00  0.00    -0.379 OA
HETATM    7  O   UNL     1      -1.752   4.193 -31.627  1.00  0.00    -0.379 OA
HETATM    8  C   UNL     1      -0.901   5.071 -30.864  1.00  0.00     0.198 C 
ENDROOT
BRANCH   4   9
HETATM    9  N   UNL     1      -4.971   3.540 -32.699  1.00  0.00    -0.334 N 
HETATM   10  C   UNL     1      -6.223   3.732 -32.193  1.00  0.00     0.321 C 
HETATM   11  N   UNL     1      -7.194   2.861 -32.581  1.00  0.00    -0.309 N 
HETATM   12  O   UNL     1      -6.523   4.707 -31.510  1.00  0.00    -0.247 OA
HETATM   13  H   UNL     1      -8.116   3.241 -32.400  1.00  0.00     0.170 HD
HETATM   14  H   UNL     1      -4.942   2.952 -33.519  1.00  0.00     0.164 HD
BRANCH  11  15
HETATM   15  C   UNL     1      -7.138   1.629 -33.251  1.00  0.00     0.036 A 
HETATM   16  C   UNL     1      -7.063   1.502 -34.638  1.00  0.00     0.032 A 
HETATM   17  C   UNL     1      -7.019   0.234 -35.228  1.00  0.00     0.039 A 
HETATM   18  C   UNL     1      -7.056  -0.916 -34.437  1.00  0.00     0.076 A 
HETATM   19  C   UNL     1      -7.090  -0.792 -33.047  1.00  0.00     0.039 A 
HETATM   20  C   UNL     1      -7.113   0.477 -32.459  1.00  0.00     0.032 A 
BRANCH  18  21
HETATM   21  O   UNL     1      -6.986  -2.115 -35.114  1.00  0.00    -0.311 OA
BRANCH  21  22
HETATM   22  C   UNL     1      -6.013  -3.000 -34.723  1.00  0.00     0.076 A 
HETATM   23  C   UNL     1      -6.200  -4.368 -34.920  1.00  0.00     0.037 A 
HETATM   24  C   UNL     1      -5.190  -5.259 -34.558  1.00  0.00     0.003 A 
HETATM   25  C   UNL     1      -3.999  -4.779 -34.008  1.00  0.00     0.000 A 
HETATM   26  C   UNL     1      -3.811  -3.407 -33.832  1.00  0.00     0.003 A 
HETATM   27  C   UNL     1      -4.813  -2.512 -34.204  1.00  0.00     0.037 A 
ENDBRANCH  21  22
ENDBRANCH  18  21
ENDBRANCH  11  15
ENDBRANCH   4   9
BRANCH   1  28
HETATM   28  N   UNL     1      -1.175   7.426 -30.023  1.00  0.00    -0.273 N 
HETATM   29  N   UNL     1      -1.850   8.580 -29.901  1.00  0.00     0.005 NA
HETATM   30  N   UNL     1      -1.299   9.259 -28.902  1.00  0.00    -0.158 NA
HETATM   31  C   UNL     1      -0.277   8.506 -28.377  1.00  0.00     0.101 A 
HETATM   32  C   UNL     1      -0.209   7.315 -29.064  1.00  0.00     0.142 A 
BRANCH  31  33
HETATM   33  C   UNL     1       0.571   8.926 -27.276  1.00  0.00    -0.005 A 
HETATM   34  C   UNL     1       1.531   8.045 -26.760  1.00  0.00     0.014 A 
HETATM   35  C   UNL     1       2.351   8.427 -25.695  1.00  0.00     0.001 A 
HETATM   36  C   UNL     1       2.217   9.693 -25.129  1.00  0.00     0.000 A 
HETATM   37  C   UNL     1       1.266  10.578 -25.628  1.00  0.00     0.001 A 
HETATM   38  C   UNL     1       0.448  10.199 -26.696  1.00  0.00     0.014 A 
ENDBRANCH  31  33
ENDBRANCH   1  28
TORSDOF 6
ENDMDL
MODEL 5
REMARK VINA RESULT:     -10.1      2.166      3.110
REMARK  6 active torsions:
REMARK  status: ('A' for Active; 'I' for Inactive)
REMARK    1  A    between atoms: C_4  and  C_5 
REMARK    2  A    between atoms: N_8  and  C_9 
REMARK    3  A    between atoms: C_12  and  N_13 
REMARK       I    between atoms: N_13  and  C_14 
REMARK       I    between atoms: C_14  and  N_15 
REMARK    4  A    between atoms: N_15  and  C_16 
REMARK    5  A    between atoms: C_19  and  O_20 
REMARK    6  A    between atoms: O_20  and  C_21 
ROOT
HETATM    1  C   UNL     1      -7.328   2.207 -32.650  1.00  0.00     0.161 C 
HETATM    2  C   UNL     1      -6.334   3.345 -32.822  1.00  0.00     0.179 C 
HETATM    3  C   UNL     1      -6.192   3.975 -31.444  1.00  0.00     0.177 C 
HETATM    4  C   UNL     1      -6.558   5.442 -31.643  1.00  0.00     0.141 C 
HETATM    5  C   UNL     1      -6.564   5.608 -33.163  1.00  0.00     0.196 C 
HETATM    6  O   UNL     1      -6.872   4.329 -33.721  1.00  0.00    -0.379 OA
HETATM    7  O   UNL     1      -7.125   3.295 -30.580  1.00  0.00    -0.379 OA
HETATM    8  C   UNL     1      -7.301   1.982 -31.149  1.00  0.00     0.198 C 
ENDROOT
BRANCH   4   9
HETATM    9  N   UNL     1      -5.709   6.421 -30.969  1.00  0.00    -0.334 N 
HETATM   10  C   UNL     1      -6.234   7.444 -30.235  1.00  0.00     0.321 C 
HETATM   11  N   UNL     1      -5.401   8.084 -29.369  1.00  0.00    -0.309 N 
HETATM   12  O   UNL     1      -7.430   7.722 -30.240  1.00  0.00    -0.247 OA
HETATM   13  H   UNL     1      -5.926   8.608 -28.680  1.00  0.00     0.170 HD
HETATM   14  H   UNL     1      -4.841   6.055 -30.607  1.00  0.00     0.164 HD
BRANCH  11  15
HETATM   15  C   UNL     1      -4.005   8.059 -29.218  1.00  0.00     0.036 A 
HETATM   16  C   UNL     1      -3.338   7.229 -28.316  1.00  0.00     0.032 A 
HETATM   17  C   UNL     1      -1.942   7.273 -28.221  1.00  0.00     0.039 A 
HETATM   18  C   UNL     1      -1.205   8.150 -29.020  1.00  0.00     0.076 A 
HETATM   19  C   UNL     1      -1.868   8.951 -29.950  1.00  0.00     0.039 A 
HETATM   20  C   UNL     1      -3.260   8.892 -30.058  1.00  0.00     0.032 A 
BRANCH  18  21
HETATM   21  O   UNL     1       0.164   8.099 -28.863  1.00  0.00    -0.311 OA
BRANCH  21  22
HETATM   22  C   UNL     1       0.677   8.563 -27.678  1.00  0.00     0.076 A 
HETATM   23  C   UNL     1       0.306   9.822 -27.206  1.00  0.00     0.037 A 
HETATM   24  C   UNL     1       0.799  10.270 -25.981  1.00  0.00     0.003 A 
HETATM   25  C   UNL     1       1.653   9.457 -25.233  1.00  0.00     0.000 A 
HETATM   26  C   UNL     1       2.005   8.190 -25.701  1.00  0.00     0.003 A 
HETATM   27  C   UNL     1       1.504   7.734 -26.920  1.00  0.00     0.037 A 
ENDBRANCH  21  22
ENDBRANCH  18  21
ENDBRANCH  11  15
ENDBRANCH   4   9
BRANCH   1  28
HETATM   28  N   UNL     1      -7.019   1.067 -33.476  1.00  0.00    -0.273 N 
HETATM   29  N   UNL     1      -7.217   1.081 -34.804  1.00  0.00     0.005 NA
HETATM   30  N   UNL     1      -6.846  -0.105 -35.273  1.00  0.00    -0.158 NA
HETATM   31  C   UNL     1      -6.390  -0.864 -34.222  1.00  0.00     0.101 A 
HETATM   32  C   UNL     1      -6.464  -0.113 -33.072  1.00  0.00     0.142 A 
BRANCH  31  33
HETATM   33  C   UNL     1      -5.913  -2.230 -34.342  1.00  0.00    -0.005 A 
HETATM   34  C   UNL     1      -6.788  -3.239 -34.766  1.00  0.00     0.014 A 
HETATM   35  C   UNL     1      -6.351  -4.562 -34.879  1.00  0.00     0.001 A 
HETATM   36  C   UNL     1      -5.034  -4.892 -34.566  1.00  0.00     0.000 A 
HETATM   37  C   UNL     1      -4.154  -3.901 -34.140  1.00  0.00     0.001 A 
HETATM   38  C   UNL     1      -4.589  -2.577 -34.029  1.00  0.00     0.014 A 
ENDBRANCH  31  33
ENDBRANCH   1  28
TORSDOF 6
ENDMDL
MODEL 6
REMARK VINA RESULT:      -9.9      3.415      4.539
REMARK  6 active torsions:
REMARK  status: ('A' for Active; 'I' for Inactive)
REMARK    1  A    between atoms: C_4  and  C_5 
REMARK    2  A    between atoms: N_8  and  C_9 
REMARK    3  A    between atoms: C_12  and  N_13 
REMARK       I    between atoms: N_13  and  C_14 
REMARK       I    between atoms: C_14  and  N_15 
REMARK    4  A    between atoms: N_15  and  C_16 
REMARK    5  A    between atoms: C_19  and  O_20 
REMARK    6  A    between atoms: O_20  and  C_21 
ROOT
HETATM    1  C   UNL     1      -8.254   2.026 -32.834  1.00  0.00     0.161 C 
HETATM    2  C   UNL     1      -7.309   3.205 -33.010  1.00  0.00     0.179 C 
HETATM    3  C   UNL     1      -7.263   3.896 -31.654  1.00  0.00     0.177 C 
HETATM    4  C   UNL     1      -7.691   5.333 -31.930  1.00  0.00     0.141 C 
HETATM    5  C   UNL     1      -7.635   5.439 -33.455  1.00  0.00     0.196 C 
HETATM    6  O   UNL     1      -7.853   4.124 -33.972  1.00  0.00    -0.379 OA
HETATM    7  O   UNL     1      -8.200   3.204 -30.805  1.00  0.00    -0.379 OA
HETATM    8  C   UNL     1      -8.284   1.862 -31.326  1.00  0.00     0.198 C 
ENDROOT
BRANCH   4   9
HETATM    9  N   UNL     1      -6.923   6.381 -31.262  1.00  0.00    -0.334 N 
HETATM   10  C   UNL     1      -7.528   7.359 -30.528  1.00  0.00     0.321 C 
HETATM   11  N   UNL     1      -6.747   8.067 -29.667  1.00  0.00    -0.309 N 
HETATM   12  O   UNL     1      -8.743   7.539 -30.531  1.00  0.00    -0.247 OA
HETATM   13  H   UNL     1      -7.312   8.549 -28.977  1.00  0.00     0.170 HD
HETATM   14  H   UNL     1      -6.027   6.088 -30.902  1.00  0.00     0.164 HD
BRANCH  11  15
HETATM   15  C   UNL     1      -5.355   8.157 -29.519  1.00  0.00     0.036 A 
HETATM   16  C   UNL     1      -4.561   9.087 -30.193  1.00  0.00     0.032 A 
HETATM   17  C   UNL     1      -3.176   9.105 -29.995  1.00  0.00     0.039 A 
HETATM   18  C   UNL     1      -2.573   8.191 -29.128  1.00  0.00     0.076 A 
HETATM   19  C   UNL     1      -3.369   7.287 -28.423  1.00  0.00     0.039 A 
HETATM   20  C   UNL     1      -4.755   7.284 -28.607  1.00  0.00     0.032 A 
BRANCH  18  21
HETATM   21  O   UNL     1      -1.206   8.306 -28.988  1.00  0.00    -0.311 OA
BRANCH  21  22
HETATM   22  C   UNL     1      -0.442   7.241 -29.395  1.00  0.00     0.076 A 
HETATM   23  C   UNL     1       0.117   6.386 -28.446  1.00  0.00     0.037 A 
HETATM   24  C   UNL     1       0.859   5.282 -28.868  1.00  0.00     0.003 A 
HETATM   25  C   UNL     1       1.030   5.036 -30.232  1.00  0.00     0.000 A 
HETATM   26  C   UNL     1       0.450   5.884 -31.176  1.00  0.00     0.003 A 
HETATM   27  C   UNL     1      -0.302   6.982 -30.759  1.00  0.00     0.037 A 
ENDBRANCH  21  22
ENDBRANCH  18  21
ENDBRANCH  11  15
ENDBRANCH   4   9
BRANCH   1  28
HETATM   28  N   UNL     1      -7.851   0.872 -33.597  1.00  0.00    -0.273 N 
HETATM   29  N   UNL     1      -8.267   0.676 -34.859  1.00  0.00     0.005 NA
HETATM   30  N   UNL     1      -7.735  -0.465 -35.281  1.00  0.00    -0.158 NA
HETATM   31  C   UNL     1      -6.958  -0.980 -34.272  1.00  0.00     0.101 A 
HETATM   32  C   UNL     1      -6.996  -0.116 -33.201  1.00  0.00     0.142 A 
BRANCH  31  33
HETATM   33  C   UNL     1      -6.226  -2.231 -34.357  1.00  0.00    -0.005 A 
HETATM   34  C   UNL     1      -6.881  -3.394 -34.782  1.00  0.00     0.014 A 
HETATM   35  C   UNL     1      -6.198  -4.611 -34.862  1.00  0.00     0.001 A 
HETATM   36  C   UNL     1      -4.851  -4.679 -34.513  1.00  0.00     0.000 A 
HETATM   37  C   UNL     1      -4.187  -3.533 -34.084  1.00  0.00     0.001 A 
HETATM   38  C   UNL     1      -4.868  -2.315 -34.007  1.00  0.00     0.014 A 
ENDBRANCH  31  33
ENDBRANCH   1  28
TORSDOF 6
ENDMDL
MODEL 7
REMARK VINA RESULT:      -9.8      2.454      3.429
REMARK  6 active torsions:
REMARK  status: ('A' for Active; 'I' for Inactive)
REMARK    1  A    between atoms: C_4  and  C_5 
REMARK    2  A    between atoms: N_8  and  C_9 
REMARK    3  A    between atoms: C_12  and  N_13 
REMARK       I    between atoms: N_13  and  C_14 
REMARK       I    between atoms: C_14  and  N_15 
REMARK    4  A    between atoms: N_15  and  C_16 
REMARK    5  A    between atoms: C_19  and  O_20 
REMARK    6  A    between atoms: O_20  and  C_21 
ROOT
HETATM    1  C   UNL     1      -6.280   2.547 -33.238  1.00  0.00     0.161 C 
HETATM    2  C   UNL     1      -5.251   3.605 -32.869  1.00  0.00     0.179 C 
HETATM    3  C   UNL     1      -6.010   4.647 -32.060  1.00  0.00     0.177 C 
HETATM    4  C   UNL     1      -5.789   5.960 -32.804  1.00  0.00     0.141 C 
HETATM    5  C   UNL     1      -4.666   5.631 -33.789  1.00  0.00     0.196 C 
HETATM    6  O   UNL     1      -4.747   4.230 -34.061  1.00  0.00    -0.379 OA
HETATM    7  O   UNL     1      -7.395   4.246 -32.063  1.00  0.00    -0.379 OA
HETATM    8  C   UNL     1      -7.388   2.815 -32.236  1.00  0.00     0.198 C 
ENDROOT
BRANCH   4   9
HETATM    9  N   UNL     1      -5.498   7.132 -31.984  1.00  0.00    -0.334 N 
HETATM   10  C   UNL     1      -6.487   7.946 -31.515  1.00  0.00     0.321 C 
HETATM   11  N   UNL     1      -6.173   8.787 -30.492  1.00  0.00    -0.309 N 
HETATM   12  O   UNL     1      -7.652   7.865 -31.895  1.00  0.00    -0.247 OA
HETATM   13  H   UNL     1      -7.009   9.125 -30.029  1.00  0.00     0.170 HD
HETATM   14  H   UNL     1      -4.715   7.029 -31.355  1.00  0.00     0.164 HD
BRANCH  11  15
HETATM   15  C   UNL     1      -4.943   9.166 -29.932  1.00  0.00     0.036 A 
HETATM   16  C   UNL     1      -4.010   9.973 -30.584  1.00  0.00     0.032 A 
HETATM   17  C   UNL     1      -2.802  10.299 -29.958  1.00  0.00     0.039 A 
HETATM   18  C   UNL     1      -2.514   9.815 -28.680  1.00  0.00     0.076 A 
HETATM   19  C   UNL     1      -3.462   9.041 -28.010  1.00  0.00     0.039 A 
HETATM   20  C   UNL     1      -4.678   8.734 -28.629  1.00  0.00     0.032 A 
BRANCH  18  21
HETATM   21  O   UNL     1      -1.306  10.211 -28.145  1.00  0.00    -0.311 OA
BRANCH  21  22
HETATM   22  C   UNL     1      -0.421   9.222 -27.795  1.00  0.00     0.076 A 
HETATM   23  C   UNL     1      -0.210   8.145 -28.653  1.00  0.00     0.037 A 
HETATM   24  C   UNL     1       0.721   7.164 -28.310  1.00  0.00     0.003 A 
HETATM   25  C   UNL     1       1.438   7.270 -27.116  1.00  0.00     0.000 A 
HETATM   26  C   UNL     1       1.236   8.362 -26.271  1.00  0.00     0.003 A 
HETATM   27  C   UNL     1       0.315   9.350 -26.616  1.00  0.00     0.037 A 
ENDBRANCH  21  22
ENDBRANCH  18  21
ENDBRANCH  11  15
ENDBRANCH   4   9
BRANCH   1  28
HETATM   28  N   UNL     1      -5.731   1.215 -33.247  1.00  0.00    -0.273 N 
HETATM   29  N   UNL     1      -4.598   0.911 -32.593  1.00  0.00     0.005 NA
HETATM   30  N   UNL     1      -4.355  -0.378 -32.797  1.00  0.00    -0.158 NA
HETATM   31  C   UNL     1      -5.363  -0.892 -33.576  1.00  0.00     0.101 A 
HETATM   32  C   UNL     1      -6.269   0.110 -33.841  1.00  0.00     0.142 A 
BRANCH  31  33
HETATM   33  C   UNL     1      -5.434  -2.272 -34.023  1.00  0.00    -0.005 A 
HETATM   34  C   UNL     1      -4.322  -3.111 -33.870  1.00  0.00     0.014 A 
HETATM   35  C   UNL     1      -4.366  -4.440 -34.301  1.00  0.00     0.001 A 
HETATM   36  C   UNL     1      -5.521  -4.943 -34.896  1.00  0.00     0.000 A 
HETATM   37  C   UNL     1      -6.632  -4.121 -35.059  1.00  0.00     0.001 A 
HETATM   38  C   UNL     1      -6.591  -2.793 -34.624  1.00  0.00     0.014 A 
ENDBRANCH  31  33
ENDBRANCH   1  28
TORSDOF 6
ENDMDL
MODEL 8
REMARK VINA RESULT:      -9.6      5.333      8.771
REMARK  6 active torsions:
REMARK  status: ('A' for Active; 'I' for Inactive)
REMARK    1  A    between atoms: C_4  and  C_5 
REMARK    2  A    between atoms: N_8  and  C_9 
REMARK    3  A    between atoms: C_12  and  N_13 
REMARK       I    between atoms: N_13  and  C_14 
REMARK       I    between atoms: C_14  and  N_15 
REMARK    4  A    between atoms: N_15  and  C_16 
REMARK    5  A    between atoms: C_19  and  O_20 
REMARK    6  A    between atoms: O_20  and  C_21 
ROOT
HETATM    1  C   UNL     1      -0.391   6.946 -28.028  1.00  0.00     0.161 C 
HETATM    2  C   UNL     1       0.972   7.615 -27.938  1.00  0.00     0.179 C 
HETATM    3  C   UNL     1       1.397   7.481 -26.483  1.00  0.00     0.177 C 
HETATM    4  C   UNL     1       1.647   8.910 -26.013  1.00  0.00     0.141 C 
HETATM    5  C   UNL     1       1.662   9.719 -27.311  1.00  0.00     0.196 C 
HETATM    6  O   UNL     1       0.848   9.013 -28.251  1.00  0.00    -0.379 OA
HETATM    7  O   UNL     1       0.296   6.865 -25.785  1.00  0.00    -0.379 OA
HETATM    8  C   UNL     1      -0.410   6.090 -26.775  1.00  0.00     0.198 C 
ENDROOT
BRANCH   4   9
HETATM    9  N   UNL     1       2.839   9.128 -25.197  1.00  0.00    -0.334 N 
HETATM   10  C   UNL     1       2.888  10.099 -24.241  1.00  0.00     0.321 C 
HETATM   11  N   UNL     1       3.874  10.008 -23.306  1.00  0.00    -0.309 N 
HETATM   12  O   UNL     1       2.025  10.966 -24.126  1.00  0.00    -0.247 OA
HETATM   13  H   UNL     1       3.661  10.579 -22.497  1.00  0.00     0.170 HD
HETATM   14  H   UNL     1       3.354   8.292 -24.964  1.00  0.00     0.164 HD
BRANCH  11  15
HETATM   15  C   UNL     1       5.030   9.215 -23.235  1.00  0.00     0.036 A 
HETATM   16  C   UNL     1       6.259   9.584 -23.783  1.00  0.00     0.032 A 
HETATM   17  C   UNL     1       7.362   8.730 -23.675  1.00  0.00     0.039 A 
HETATM   18  C   UNL     1       7.244   7.500 -23.027  1.00  0.00     0.076 A 
HETATM   19  C   UNL     1       6.027   7.146 -22.444  1.00  0.00     0.039 A 
HETATM   20  C   UNL     1       4.931   8.009 -22.535  1.00  0.00     0.032 A 
BRANCH  18  21
HETATM   21  O   UNL     1       8.395   6.743 -22.957  1.00  0.00    -0.311 OA
BRANCH  21  22
HETATM   22  C   UNL     1       8.725   6.214 -21.735  1.00  0.00     0.076 A 
HETATM   23  C   UNL     1       9.080   7.060 -20.685  1.00  0.00     0.037 A 
HETATM   24  C   UNL     1       9.374   6.517 -19.434  1.00  0.00     0.003 A 
HETATM   25  C   UNL     1       9.305   5.136 -19.238  1.00  0.00     0.000 A 
HETATM   26  C   UNL     1       8.929   4.297 -20.288  1.00  0.00     0.003 A 
HETATM   27  C   UNL     1       8.622   4.836 -21.537  1.00  0.00     0.037 A 
ENDBRANCH  21  22
ENDBRANCH  18  21
ENDBRANCH  11  15
ENDBRANCH   4   9
BRANCH   1  28
HETATM   28  N   UNL     1      -0.593   6.258 -29.278  1.00  0.00    -0.273 N 
HETATM   29  N   UNL     1       0.145   5.191 -29.626  1.00  0.00     0.005 NA
HETATM   30  N   UNL     1      -0.273   4.792 -30.822  1.00  0.00    -0.158 NA
HETATM   31  C   UNL     1      -1.303   5.612 -31.217  1.00  0.00     0.101 A 
HETATM   32  C   UNL     1      -1.540   6.533 -30.222  1.00  0.00     0.142 A 
BRANCH  31  33
HETATM   33  C   UNL     1      -2.006   5.495 -32.482  1.00  0.00    -0.005 A 
HETATM   34  C   UNL     1      -1.280   5.343 -33.671  1.00  0.00     0.014 A 
HETATM   35  C   UNL     1      -1.937   5.238 -34.900  1.00  0.00     0.001 A 
HETATM   36  C   UNL     1      -3.328   5.288 -34.955  1.00  0.00     0.000 A 
HETATM   37  C   UNL     1      -4.063   5.444 -33.783  1.00  0.00     0.001 A 
HETATM   38  C   UNL     1      -3.407   5.545 -32.553  1.00  0.00     0.014 A 
ENDBRANCH  31  33
ENDBRANCH   1  28
TORSDOF 6
ENDMDL
MODEL 9
REMARK VINA RESULT:      -9.6      3.543     12.518
REMARK  6 active torsions:
REMARK  status: ('A' for Active; 'I' for Inactive)
REMARK    1  A    between atoms: C_4  and  C_5 
REMARK    2  A    between atoms: N_8  and  C_9 
REMARK    3  A    between atoms: C_12  and  N_13 
REMARK       I    between atoms: N_13  and  C_14 
REMARK       I    between atoms: C_14  and  N_15 
REMARK    4  A    between atoms: N_15  and  C_16 
REMARK    5  A    between atoms: C_19  and  O_20 
REMARK    6  A    between atoms: O_20  and  C_21 
ROOT
HETATM    1  C   UNL     1      -0.163   6.549 -30.079  1.00  0.00     0.161 C 
HETATM    2  C   UNL     1      -1.644   6.773 -30.344  1.00  0.00     0.179 C 
HETATM    3  C   UNL     1      -2.076   5.624 -31.244  1.00  0.00     0.177 C 
HETATM    4  C   UNL     1      -2.657   6.293 -32.485  1.00  0.00     0.141 C 
HETATM    5  C   UNL     1      -2.810   7.756 -32.067  1.00  0.00     0.196 C 
HETATM    6  O   UNL     1      -1.828   8.007 -31.059  1.00  0.00    -0.379 OA
HETATM    7  O   UNL     1      -0.888   4.863 -31.542  1.00  0.00    -0.379 OA
HETATM    8  C   UNL     1       0.007   5.083 -30.434  1.00  0.00     0.198 C 
ENDROOT
BRANCH   4   9
HETATM    9  N   UNL     1      -3.893   5.722 -33.014  1.00  0.00    -0.334 N 
HETATM   10  C   UNL     1      -4.034   5.411 -34.334  1.00  0.00     0.321 C 
HETATM   11  N   UNL     1      -5.054   4.576 -34.674  1.00  0.00    -0.309 N 
HETATM   12  O   UNL     1      -3.223   5.754 -35.190  1.00  0.00    -0.247 OA
HETATM   13  H   UNL     1      -4.908   4.179 -35.595  1.00  0.00     0.170 HD
HETATM   14  H   UNL     1      -4.374   5.094 -32.387  1.00  0.00     0.164 HD
BRANCH  11  15
HETATM   15  C   UNL     1      -6.169   4.116 -33.957  1.00  0.00     0.036 A 
HETATM   16  C   UNL     1      -6.218   2.883 -33.305  1.00  0.00     0.032 A 
HETATM   17  C   UNL     1      -7.374   2.495 -32.618  1.00  0.00     0.039 A 
HETATM   18  C   UNL     1      -8.491   3.332 -32.584  1.00  0.00     0.076 A 
HETATM   19  C   UNL     1      -8.431   4.582 -33.202  1.00  0.00     0.039 A 
HETATM   20  C   UNL     1      -7.268   4.976 -33.870  1.00  0.00     0.032 A 
BRANCH  18  21
HETATM   21  O   UNL     1      -9.570   2.865 -31.863  1.00  0.00    -0.311 OA
BRANCH  21  22
HETATM   22  C   UNL     1     -10.718   2.589 -32.563  1.00  0.00     0.076 A 
HETATM   23  C   UNL     1     -10.817   1.408 -33.297  1.00  0.00     0.037 A 
HETATM   24  C   UNL     1     -12.002   1.114 -33.972  1.00  0.00     0.003 A 
HETATM   25  C   UNL     1     -13.081   1.998 -33.904  1.00  0.00     0.000 A 
HETATM   26  C   UNL     1     -12.983   3.169 -33.150  1.00  0.00     0.003 A 
HETATM   27  C   UNL     1     -11.805   3.460 -32.464  1.00  0.00     0.037 A 
ENDBRANCH  21  22
ENDBRANCH  18  21
ENDBRANCH  11  15
ENDBRANCH   4   9
BRANCH   1  28
HETATM   28  N   UNL     1       0.229   6.937 -28.747  1.00  0.00    -0.273 N 
HETATM   29  N   UNL     1       0.096   6.107 -27.700  1.00  0.00     0.005 NA
HETATM   30  N   UNL     1       0.534   6.751 -26.625  1.00  0.00    -0.158 NA
HETATM   31  C   UNL     1       0.968   7.997 -27.011  1.00  0.00     0.101 A 
HETATM   32  C   UNL     1       0.810   8.115 -28.373  1.00  0.00     0.142 A 
BRANCH  31  33
HETATM   33  C   UNL     1       1.503   8.997 -26.106  1.00  0.00    -0.005 A 
HETATM   34  C   UNL     1       2.513   8.648 -25.199  1.00  0.00     0.014 A 
HETATM   35  C   UNL     1       3.035   9.594 -24.313  1.00  0.00     0.001 A 
HETATM   36  C   UNL     1       2.551  10.900 -24.319  1.00  0.00     0.000 A 
HETATM   37  C   UNL     1       1.545  11.261 -25.211  1.00  0.00     0.001 A 
HETATM   38  C   UNL     1       1.024  10.317 -26.101  1.00  0.00     0.014 A 
ENDBRANCH  31  33
ENDBRANCH   1  28
TORSDOF 6
ENDMDL
MODEL 10
REMARK VINA RESULT:      -9.5      3.341     12.385
REMARK  6 active torsions:
REMARK  status: ('A' for Active; 'I' for Inactive)
REMARK    1  A    between atoms: C_4  and  C_5 
REMARK    2  A    between atoms: N_8  and  C_9 
REMARK    3  A    between atoms: C_12  and  N_13 
REMARK       I    between atoms: N_13  and  C_14 
REMARK       I    between atoms: C_14  and  N_15 
REMARK    4  A    between atoms: N_15  and  C_16 
REMARK    5  A    between atoms: C_19  and  O_20 
REMARK    6  A    between atoms: O_20  and  C_21 
ROOT
HETATM    1  C   UNL     1      -1.753   6.324 -31.300  1.00  0.00     0.161 C 
HETATM    2  C   UNL     1      -3.115   5.673 -31.109  1.00  0.00     0.179 C 
HETATM    3  C   UNL     1      -2.954   4.241 -31.599  1.00  0.00     0.177 C 
HETATM    4  C   UNL     1      -4.013   4.077 -32.685  1.00  0.00     0.141 C 
HETATM    5  C   UNL     1      -4.903   5.308 -32.509  1.00  0.00     0.196 C 
HETATM    6  O   UNL     1      -4.089   6.333 -31.934  1.00  0.00    -0.379 OA
HETATM    7  O   UNL     1      -1.616   4.131 -32.125  1.00  0.00    -0.379 OA
HETATM    8  C   UNL     1      -0.837   5.120 -31.423  1.00  0.00     0.198 C 
ENDROOT
BRANCH   4   9
HETATM    9  N   UNL     1      -4.767   2.826 -32.675  1.00  0.00    -0.334 N 
HETATM   10  C   UNL     1      -4.246   1.675 -32.162  1.00  0.00     0.321 C 
HETATM   11  N   UNL     1      -5.115   0.670 -31.871  1.00  0.00    -0.309 N 
HETATM   12  O   UNL     1      -3.063   1.561 -31.850  1.00  0.00    -0.247 OA
HETATM   13  H   UNL     1      -4.694  -0.005 -31.243  1.00  0.00     0.170 HD
HETATM   14  H   UNL     1      -5.761   2.930 -32.532  1.00  0.00     0.164 HD
BRANCH  11  15
HETATM   15  C   UNL     1      -6.466   0.473 -32.197  1.00  0.00     0.036 A 
HETATM   16  C   UNL     1      -6.898  -0.179 -33.353  1.00  0.00     0.032 A 
HETATM   17  C   UNL     1      -8.266  -0.327 -33.609  1.00  0.00     0.039 A 
HETATM   18  C   UNL     1      -9.211   0.181 -32.715  1.00  0.00     0.076 A 
HETATM   19  C   UNL     1      -8.782   0.797 -31.539  1.00  0.00     0.039 A 
HETATM   20  C   UNL     1      -7.415   0.926 -31.276  1.00  0.00     0.032 A 
BRANCH  18  21
HETATM   21  O   UNL     1     -10.531  -0.036 -33.050  1.00  0.00    -0.311 OA
BRANCH  21  22
HETATM   22  C   UNL     1     -11.187   0.978 -33.702  1.00  0.00     0.076 A 
HETATM   23  C   UNL     1     -10.465   2.055 -34.215  1.00  0.00     0.037 A 
HETATM   24  C   UNL     1     -11.133   3.061 -34.913  1.00  0.00     0.003 A 
HETATM   25  C   UNL     1     -12.515   2.982 -35.099  1.00  0.00     0.000 A 
HETATM   26  C   UNL     1     -13.229   1.891 -34.601  1.00  0.00     0.003 A 
HETATM   27  C   UNL     1     -12.563   0.877 -33.913  1.00  0.00     0.037 A 
ENDBRANCH  21  22
ENDBRANCH  18  21
ENDBRANCH  11  15
ENDBRANCH   4   9
BRANCH   1  28
HETATM   28  N   UNL     1      -1.436   7.269 -30.259  1.00  0.00    -0.273 N 
HETATM   29  N   UNL     1      -1.992   8.491 -30.218  1.00  0.00     0.005 NA
HETATM   30  N   UNL     1      -1.498   9.116 -29.156  1.00  0.00    -0.158 NA
HETATM   31  C   UNL     1      -0.635   8.263 -28.513  1.00  0.00     0.101 A 
HETATM   32  C   UNL     1      -0.613   7.065 -29.189  1.00  0.00     0.142 A 
BRANCH  31  33
HETATM   33  C   UNL     1       0.112   8.601 -27.315  1.00  0.00    -0.005 A 
HETATM   34  C   UNL     1       1.485   8.324 -27.248  1.00  0.00     0.014 A 
HETATM   35  C   UNL     1       2.220   8.633 -26.100  1.00  0.00     0.001 A 
HETATM   36  C   UNL     1       1.591   9.219 -25.004  1.00  0.00     0.000 A 
HETATM   37  C   UNL     1       0.228   9.497 -25.053  1.00  0.00     0.001 A 
HETATM   38  C   UNL     1      -0.508   9.191 -26.202  1.00  0.00     0.014 A 
ENDBRANCH  31  33
ENDBRANCH   1  28
TORSDOF 6
ENDMDL
