MODEL 1
REMARK VINA RESULT:      -8.5      0.000      0.000
REMARK  12 active torsions:
REMARK  status: ('A' for Active; 'I' for Inactive)
REMARK    1  A    between atoms: C_2  and  N_3 
REMARK    2  A    between atoms: N_3  and  C_5 
REMARK    3  A    between atoms: N_3  and  C_39 
REMARK    4  A    between atoms: C_5  and  C_6 
REMARK    5  A    between atoms: N_7  and  C_8 
REMARK    6  A    between atoms: C_12  and  N_13 
REMARK    7  A    between atoms: C_16  and  C_17 
REMARK       I    between atoms: C_17  and  N_18 
REMARK    8  A    between atoms: N_18  and  N_19 
REMARK    9  A    between atoms: C_20  and  C_21 
REMARK   10  A    between atoms: C_22  and  O_23 
REMARK   11  A    between atoms: O_23  and  C_24 
REMARK   12  A    between atoms: C_24  and  C_25 
ROOT
HETATM    1  C   UNL     1      -2.135   5.662 -34.690  1.00  0.00     0.294 C 
HETATM    2  N   UNL     1      -3.425   5.300 -35.032  1.00  0.00    -0.242 N 
HETATM    3  O   UNL     1      -1.176   5.218 -35.315  1.00  0.00    -0.264 OA
HETATM    4  H   UNL     1      -3.529   4.776 -35.896  1.00  0.00     0.192 HD
ENDROOT
BRANCH   1   5
HETATM    5  C   UNL     1      -1.966   6.583 -33.575  1.00  0.00     0.176 C 
HETATM    6  C   UNL     1      -1.940   6.329 -32.208  1.00  0.00     0.102 C 
HETATM    7  N   UNL     1      -1.877   7.604 -31.637  1.00  0.00    -0.191 N 
HETATM    8  N   UNL     1      -1.624   8.505 -32.622  1.00  0.00    -0.058 NA
HETATM    9  N   UNL     1      -1.700   7.903 -33.792  1.00  0.00    -0.124 NA
BRANCH   6  10
HETATM   10  C   UNL     1      -2.017   5.040 -31.485  1.00  0.00     0.296 C 
BRANCH  10  11
HETATM   11  N   UNL     1      -3.416   4.413 -31.405  1.00  0.00    -0.066 N 
HETATM   12  H   UNL     1      -3.777   4.525 -32.361  1.00  0.00     0.280 HD
BRANCH  11  13
HETATM   13  C   UNL     1      -4.378   5.146 -30.495  1.00  0.00     0.231 C 
HETATM   14  C   UNL     1      -5.423   4.187 -29.952  1.00  0.00     0.034 C 
ENDBRANCH  11  13
BRANCH  11  15
HETATM   15  C   UNL     1      -3.376   2.912 -31.178  1.00  0.00     0.231 C 
HETATM   16  C   UNL     1      -3.490   2.155 -32.490  1.00  0.00     0.034 C 
ENDBRANCH  11  15
ENDBRANCH  10  11
ENDBRANCH   6  10
BRANCH   7  17
HETATM   17  C   UNL     1      -1.996   8.013 -30.288  1.00  0.00     0.229 A 
HETATM   18  N   UNL     1      -3.141   8.519 -29.829  1.00  0.00    -0.081 NA
HETATM   19  O   UNL     1      -2.867   8.812 -28.492  1.00  0.00    -0.103 OA
HETATM   20  N   UNL     1      -1.572   8.447 -28.154  1.00  0.00    -0.083 NA
HETATM   21  C   UNL     1      -1.028   7.961 -29.268  1.00  0.00     0.201 A 
BRANCH  21  22
HETATM   22  N   UNL     1       0.223   7.480 -29.359  1.00  0.00    -0.379 N 
HETATM   23  H   UNL     1       0.751   7.285 -28.512  1.00  0.00     0.158 HD
HETATM   24  H   UNL     1       0.801   7.606 -30.189  1.00  0.00     0.158 HD
ENDBRANCH  21  22
ENDBRANCH   7  17
ENDBRANCH   1   5
BRANCH   2  25
HETATM   25  N   UNL     1      -4.512   5.577 -34.260  1.00  0.00    -0.183 NA
HETATM   26  C   UNL     1      -5.475   4.715 -34.338  1.00  0.00     0.153 C 
BRANCH  26  27
HETATM   27  C   UNL     1      -6.680   4.844 -33.504  1.00  0.00     0.018 A 
HETATM   28  C   UNL     1      -7.643   3.828 -33.409  1.00  0.00     0.081 A 
HETATM   29  C   UNL     1      -8.725   3.977 -32.539  1.00  0.00     0.039 A 
HETATM   30  C   UNL     1      -8.877   5.159 -31.812  1.00  0.00     0.026 A 
HETATM   31  C   UNL     1      -7.942   6.185 -31.948  1.00  0.00     0.035 A 
HETATM   32 CL   UNL     1      -8.140   7.644 -31.061  1.00  0.00    -0.084 Cl
HETATM   33  C   UNL     1      -6.842   6.036 -32.791  1.00  0.00     0.039 A 
BRANCH  28  34
HETATM   34  O   UNL     1      -7.595   2.674 -34.153  1.00  0.00    -0.346 OA
BRANCH  34  35
HETATM   35  C   UNL     1      -8.147   1.582 -33.398  1.00  0.00     0.219 C 
BRANCH  35  36
HETATM   36  C   UNL     1      -7.215   0.403 -33.476  1.00  0.00     0.026 A 
HETATM   37  C   UNL     1      -6.427  -0.014 -32.394  1.00  0.00     0.045 A 
HETATM   38 CL   UNL     1      -6.430   0.827 -30.886  1.00  0.00    -0.084 Cl
HETATM   39  C   UNL     1      -5.603  -1.142 -32.501  1.00  0.00     0.024 A 
HETATM   40  C   UNL     1      -5.555  -1.871 -33.689  1.00  0.00     0.005 A 
HETATM   41  C   UNL     1      -6.316  -1.458 -34.776  1.00  0.00     0.043 A 
HETATM   42  C   UNL     1      -7.123  -0.327 -34.665  1.00  0.00     0.126 A 
HETATM   43  F   UNL     1      -7.803   0.072 -35.751  1.00  0.00    -0.205 F 
ENDBRANCH  35  36
ENDBRANCH  34  35
ENDBRANCH  28  34
ENDBRANCH  26  27
ENDBRANCH   2  25
TORSDOF 12
ENDMDL
MODEL 2
REMARK VINA RESULT:      -8.2      5.454      8.464
REMARK  12 active torsions:
REMARK  status: ('A' for Active; 'I' for Inactive)
REMARK    1  A    between atoms: C_2  and  N_3 
REMARK    2  A    between atoms: N_3  and  C_5 
REMARK    3  A    between atoms: N_3  and  C_39 
REMARK    4  A    between atoms: C_5  and  C_6 
REMARK    5  A    between atoms: N_7  and  C_8 
REMARK    6  A    between atoms: C_12  and  N_13 
REMARK    7  A    between atoms: C_16  and  C_17 
REMARK       I    between atoms: C_17  and  N_18 
REMARK    8  A    between atoms: N_18  and  N_19 
REMARK    9  A    between atoms: C_20  and  C_21 
REMARK   10  A    between atoms: C_22  and  O_23 
REMARK   11  A    between atoms: O_23  and  C_24 
REMARK   12  A    between atoms: C_24  and  C_25 
ROOT
HETATM    1  C   UNL     1     -10.472   0.531 -32.851  1.00  0.00     0.294 C 
HETATM    2  N   UNL     1      -9.451   0.247 -31.963  1.00  0.00    -0.242 N 
HETATM    3  O   UNL     1     -11.382  -0.272 -33.034  1.00  0.00    -0.264 OA
HETATM    4  H   UNL     1      -9.578  -0.580 -31.385  1.00  0.00     0.192 HD
ENDROOT
BRANCH   1   5
HETATM    5  C   UNL     1     -10.424   1.809 -33.547  1.00  0.00     0.176 C 
HETATM    6  C   UNL     1     -11.276   2.905 -33.456  1.00  0.00     0.102 C 
HETATM    7  N   UNL     1     -10.802   3.773 -34.443  1.00  0.00    -0.191 N 
HETATM    8  N   UNL     1      -9.605   3.311 -34.887  1.00  0.00    -0.058 NA
HETATM    9  N   UNL     1      -9.382   2.118 -34.371  1.00  0.00    -0.124 NA
BRANCH   6  10
HETATM   10  C   UNL     1     -12.450   3.118 -32.580  1.00  0.00     0.296 C 
BRANCH  10  11
HETATM   11  N   UNL     1     -13.604   2.125 -32.774  1.00  0.00    -0.066 N 
HETATM   12  H   UNL     1     -13.244   1.262 -32.345  1.00  0.00     0.280 HD
BRANCH  11  13
HETATM   13  C   UNL     1     -13.906   1.791 -34.219  1.00  0.00     0.231 C 
HETATM   14  C   UNL     1     -14.846   0.601 -34.300  1.00  0.00     0.034 C 
ENDBRANCH  11  13
BRANCH  11  15
HETATM   15  C   UNL     1     -14.832   2.483 -31.955  1.00  0.00     0.231 C 
HETATM   16  C   UNL     1     -14.973   3.988 -31.803  1.00  0.00     0.034 C 
ENDBRANCH  11  15
ENDBRANCH  10  11
ENDBRANCH   6  10
BRANCH   7  17
HETATM   17  C   UNL     1     -11.352   4.974 -34.951  1.00  0.00     0.229 A 
HETATM   18  N   UNL     1     -12.587   4.998 -35.454  1.00  0.00    -0.081 NA
HETATM   19  O   UNL     1     -12.760   6.323 -35.858  1.00  0.00    -0.103 OA
HETATM   20  N   UNL     1     -11.641   7.088 -35.561  1.00  0.00    -0.083 NA
HETATM   21  C   UNL     1     -10.764   6.251 -35.008  1.00  0.00     0.201 A 
BRANCH  21  22
HETATM   22  N   UNL     1      -9.548   6.607 -34.562  1.00  0.00    -0.379 N 
HETATM   23  H   UNL     1      -9.111   6.078 -33.812  1.00  0.00     0.158 HD
HETATM   24  H   UNL     1      -9.174   7.548 -34.679  1.00  0.00     0.158 HD
ENDBRANCH  21  22
ENDBRANCH   7  17
ENDBRANCH   1   5
BRANCH   2  25
HETATM   25  N   UNL     1      -8.309   0.983 -31.870  1.00  0.00    -0.183 NA
HETATM   26  C   UNL     1      -7.247   0.312 -31.557  1.00  0.00     0.153 C 
BRANCH  26  27
HETATM   27  C   UNL     1      -5.929   0.962 -31.494  1.00  0.00     0.018 A 
HETATM   28  C   UNL     1      -4.737   0.276 -31.770  1.00  0.00     0.081 A 
HETATM   29  C   UNL     1      -3.523   0.967 -31.772  1.00  0.00     0.039 A 
HETATM   30  C   UNL     1      -3.492   2.323 -31.442  1.00  0.00     0.026 A 
HETATM   31  C   UNL     1      -4.676   2.988 -31.121  1.00  0.00     0.035 A 
HETATM   32 CL   UNL     1      -4.632   4.655 -30.704  1.00  0.00    -0.084 Cl
HETATM   33  C   UNL     1      -5.897   2.316 -31.145  1.00  0.00     0.039 A 
BRANCH  28  34
HETATM   34  O   UNL     1      -4.686  -1.073 -32.026  1.00  0.00    -0.346 OA
BRANCH  34  35
HETATM   35  C   UNL     1      -4.186  -1.301 -33.354  1.00  0.00     0.219 C 
BRANCH  35  36
HETATM   36  C   UNL     1      -4.879  -2.498 -33.947  1.00  0.00     0.026 A 
HETATM   37  C   UNL     1      -6.108  -2.408 -34.617  1.00  0.00     0.045 A 
HETATM   38 CL   UNL     1      -6.953  -0.911 -34.776  1.00  0.00    -0.084 Cl
HETATM   39  C   UNL     1      -6.697  -3.544 -35.187  1.00  0.00     0.024 A 
HETATM   40  C   UNL     1      -6.068  -4.785 -35.099  1.00  0.00     0.005 A 
HETATM   41  C   UNL     1      -4.859  -4.893 -34.422  1.00  0.00     0.043 A 
HETATM   42  C   UNL     1      -4.287  -3.761 -33.846  1.00  0.00     0.126 A 
HETATM   43  F   UNL     1      -3.146  -3.911 -33.155  1.00  0.00    -0.205 F 
ENDBRANCH  35  36
ENDBRANCH  34  35
ENDBRANCH  28  34
ENDBRANCH  26  27
ENDBRANCH   2  25
TORSDOF 12
ENDMDL
MODEL 3
REMARK VINA RESULT:      -8.0      1.824      2.910
REMARK  12 active torsions:
REMARK  status: ('A' for Active; 'I' for Inactive)
REMARK    1  A    between atoms: C_2  and  N_3 
REMARK    2  A    between atoms: N_3  and  C_5 
REMARK    3  A    between atoms: N_3  and  C_39 
REMARK    4  A    between atoms: C_5  and  C_6 
REMARK    5  A    between atoms: N_7  and  C_8 
REMARK    6  A    between atoms: C_12  and  N_13 
REMARK    7  A    between atoms: C_16  and  C_17 
REMARK       I    between atoms: C_17  and  N_18 
REMARK    8  A    between atoms: N_18  and  N_19 
REMARK    9  A    between atoms: C_20  and  C_21 
REMARK   10  A    between atoms: C_22  and  O_23 
REMARK   11  A    between atoms: O_23  and  C_24 
REMARK   12  A    between atoms: C_24  and  C_25 
ROOT
HETATM    1  C   UNL     1      -2.623   5.240 -34.344  1.00  0.00     0.294 C 
HETATM    2  N   UNL     1      -3.982   5.393 -34.544  1.00  0.00    -0.242 N 
HETATM    3  O   UNL     1      -1.853   5.195 -35.298  1.00  0.00    -0.264 OA
HETATM    4  H   UNL     1      -4.274   5.604 -35.495  1.00  0.00     0.192 HD
ENDROOT
BRANCH   1   5
HETATM    5  C   UNL     1      -2.150   5.141 -32.970  1.00  0.00     0.176 C 
HETATM    6  C   UNL     1      -1.822   6.146 -32.067  1.00  0.00     0.102 C 
HETATM    7  N   UNL     1      -1.318   5.449 -30.966  1.00  0.00    -0.191 N 
HETATM    8  N   UNL     1      -1.583   4.127 -31.134  1.00  0.00    -0.058 NA
HETATM    9  N   UNL     1      -2.061   3.931 -32.347  1.00  0.00    -0.124 NA
BRANCH   6  10
HETATM   10  C   UNL     1      -1.913   7.616 -32.215  1.00  0.00     0.296 C 
BRANCH  10  11
HETATM   11  N   UNL     1      -2.786   8.331 -31.175  1.00  0.00    -0.066 N 
HETATM   12  H   UNL     1      -2.444   7.950 -30.282  1.00  0.00     0.280 HD
BRANCH  11  13
HETATM   13  C   UNL     1      -4.258   7.987 -31.251  1.00  0.00     0.231 C 
HETATM   14  C   UNL     1      -4.714   7.332 -29.959  1.00  0.00     0.034 C 
ENDBRANCH  11  13
BRANCH  11  15
HETATM   15  C   UNL     1      -2.505   9.820 -31.094  1.00  0.00     0.231 C 
HETATM   16  C   UNL     1      -2.323  10.269 -29.654  1.00  0.00     0.034 C 
ENDBRANCH  11  15
ENDBRANCH  10  11
ENDBRANCH   6  10
BRANCH   7  17
HETATM   17  C   UNL     1      -0.666   5.918 -29.801  1.00  0.00     0.229 A 
HETATM   18  N   UNL     1      -1.130   6.980 -29.142  1.00  0.00    -0.081 NA
HETATM   19  O   UNL     1      -0.232   7.139 -28.085  1.00  0.00    -0.103 OA
HETATM   20  N   UNL     1       0.741   6.149 -28.101  1.00  0.00    -0.083 NA
HETATM   21  C   UNL     1       0.480   5.398 -29.169  1.00  0.00     0.201 A 
BRANCH  21  22
HETATM   22  N   UNL     1       1.189   4.317 -29.532  1.00  0.00    -0.379 N 
HETATM   23  H   UNL     1       1.302   4.095 -30.518  1.00  0.00     0.158 HD
HETATM   24  H   UNL     1       1.341   3.525 -28.908  1.00  0.00     0.158 HD
ENDBRANCH  21  22
ENDBRANCH   7  17
ENDBRANCH   1   5
BRANCH   2  25
HETATM   25  N   UNL     1      -4.909   5.237 -33.558  1.00  0.00    -0.183 NA
HETATM   26  C   UNL     1      -5.473   4.072 -33.514  1.00  0.00     0.153 C 
BRANCH  26  27
HETATM   27  C   UNL     1      -6.438   3.735 -32.456  1.00  0.00     0.018 A 
HETATM   28  C   UNL     1      -7.079   2.489 -32.392  1.00  0.00     0.081 A 
HETATM   29  C   UNL     1      -7.925   2.199 -31.318  1.00  0.00     0.039 A 
HETATM   30  C   UNL     1      -8.176   3.170 -30.347  1.00  0.00     0.026 A 
HETATM   31  C   UNL     1      -7.573   4.424 -30.444  1.00  0.00     0.035 A 
HETATM   32 CL   UNL     1      -7.895   5.620 -29.253  1.00  0.00    -0.084 Cl
HETATM   33  C   UNL     1      -6.704   4.715 -31.495  1.00  0.00     0.039 A 
BRANCH  28  34
HETATM   34  O   UNL     1      -6.937   1.518 -33.353  1.00  0.00    -0.346 OA
BRANCH  34  35
HETATM   35  C   UNL     1      -7.281   0.234 -32.806  1.00  0.00     0.219 C 
BRANCH  35  36
HETATM   36  C   UNL     1      -6.207  -0.760 -33.160  1.00  0.00     0.026 A 
HETATM   37  C   UNL     1      -5.041  -0.921 -32.397  1.00  0.00     0.045 A 
HETATM   38 CL   UNL     1      -4.722   0.048 -31.004  1.00  0.00    -0.084 Cl
HETATM   39  C   UNL     1      -4.087  -1.886 -32.743  1.00  0.00     0.024 A 
HETATM   40  C   UNL     1      -4.282  -2.705 -33.854  1.00  0.00     0.005 A 
HETATM   41  C   UNL     1      -5.423  -2.544 -34.631  1.00  0.00     0.043 A 
HETATM   42  C   UNL     1      -6.361  -1.573 -34.287  1.00  0.00     0.126 A 
HETATM   43  F   UNL     1      -7.424  -1.409 -35.090  1.00  0.00    -0.205 F 
ENDBRANCH  35  36
ENDBRANCH  34  35
ENDBRANCH  28  34
ENDBRANCH  26  27
ENDBRANCH   2  25
TORSDOF 12
ENDMDL
MODEL 4
REMARK VINA RESULT:      -8.0      1.360      1.994
REMARK  12 active torsions:
REMARK  status: ('A' for Active; 'I' for Inactive)
REMARK    1  A    between atoms: C_2  and  N_3 
REMARK    2  A    between atoms: N_3  and  C_5 
REMARK    3  A    between atoms: N_3  and  C_39 
REMARK    4  A    between atoms: C_5  and  C_6 
REMARK    5  A    between atoms: N_7  and  C_8 
REMARK    6  A    between atoms: C_12  and  N_13 
REMARK    7  A    between atoms: C_16  and  C_17 
REMARK       I    between atoms: C_17  and  N_18 
REMARK    8  A    between atoms: N_18  and  N_19 
REMARK    9  A    between atoms: C_20  and  C_21 
REMARK   10  A    between atoms: C_22  and  O_23 
REMARK   11  A    between atoms: O_23  and  C_24 
REMARK   12  A    between atoms: C_24  and  C_25 
ROOT
HETATM    1  C   UNL     1      -2.178   5.591 -34.777  1.00  0.00     0.294 C 
HETATM    2  N   UNL     1      -3.494   5.330 -35.114  1.00  0.00    -0.242 N 
HETATM    3  O   UNL     1      -1.259   5.085 -35.414  1.00  0.00    -0.264 OA
HETATM    4  H   UNL     1      -3.642   4.826 -35.985  1.00  0.00     0.192 HD
ENDROOT
BRANCH   1   5
HETATM    5  C   UNL     1      -1.935   6.481 -33.651  1.00  0.00     0.176 C 
HETATM    6  C   UNL     1      -1.686   6.180 -32.316  1.00  0.00     0.102 C 
HETATM    7  N   UNL     1      -1.660   7.431 -31.695  1.00  0.00    -0.191 N 
HETATM    8  N   UNL     1      -1.638   8.390 -32.657  1.00  0.00    -0.058 NA
HETATM    9  N   UNL     1      -1.828   7.828 -33.834  1.00  0.00    -0.124 NA
BRANCH   6  10
HETATM   10  C   UNL     1      -1.537   4.863 -31.657  1.00  0.00     0.296 C 
BRANCH  10  11
HETATM   11  N   UNL     1      -2.775   4.360 -30.903  1.00  0.00    -0.066 N 
HETATM   12  H   UNL     1      -2.481   4.397 -29.918  1.00  0.00     0.280 HD
BRANCH  11  13
HETATM   13  C   UNL     1      -3.137   2.918 -31.187  1.00  0.00     0.231 C 
HETATM   14  C   UNL     1      -3.240   2.686 -32.685  1.00  0.00     0.034 C 
ENDBRANCH  11  13
BRANCH  11  15
HETATM   15  C   UNL     1      -3.949   5.319 -30.993  1.00  0.00     0.231 C 
HETATM   16  C   UNL     1      -5.120   4.835 -30.155  1.00  0.00     0.034 C 
ENDBRANCH  11  15
ENDBRANCH  10  11
ENDBRANCH   6  10
BRANCH   7  17
HETATM   17  C   UNL     1      -1.618   7.776 -30.323  1.00  0.00     0.229 A 
HETATM   18  N   UNL     1      -1.184   6.901 -29.415  1.00  0.00    -0.081 NA
HETATM   19  O   UNL     1      -1.305   7.586 -28.204  1.00  0.00    -0.103 OA
HETATM   20  N   UNL     1      -1.777   8.876 -28.403  1.00  0.00    -0.083 NA
HETATM   21  C   UNL     1      -1.981   8.992 -29.714  1.00  0.00     0.201 A 
BRANCH  21  22
HETATM   22  N   UNL     1      -2.426  10.104 -30.321  1.00  0.00    -0.379 N 
HETATM   23  H   UNL     1      -1.865  10.541 -31.048  1.00  0.00     0.158 HD
HETATM   24  H   UNL     1      -3.109  10.728 -29.892  1.00  0.00     0.158 HD
ENDBRANCH  21  22
ENDBRANCH   7  17
ENDBRANCH   1   5
BRANCH   2  25
HETATM   25  N   UNL     1      -4.553   5.676 -34.331  1.00  0.00    -0.183 NA
HETATM   26  C   UNL     1      -5.541   4.838 -34.342  1.00  0.00     0.153 C 
BRANCH  26  27
HETATM   27  C   UNL     1      -6.720   5.044 -33.487  1.00  0.00     0.018 A 
HETATM   28  C   UNL     1      -7.677   4.041 -33.271  1.00  0.00     0.081 A 
HETATM   29  C   UNL     1      -8.733   4.269 -32.385  1.00  0.00     0.039 A 
HETATM   30  C   UNL     1      -8.865   5.512 -31.763  1.00  0.00     0.026 A 
HETATM   31  C   UNL     1      -7.937   6.521 -32.021  1.00  0.00     0.035 A 
HETATM   32 CL   UNL     1      -8.111   8.054 -31.263  1.00  0.00    -0.084 Cl
HETATM   33  C   UNL     1      -6.863   6.295 -32.880  1.00  0.00     0.039 A 
BRANCH  28  34
HETATM   34  O   UNL     1      -7.650   2.824 -33.909  1.00  0.00    -0.346 OA
BRANCH  34  35
HETATM   35  C   UNL     1      -8.074   1.789 -33.006  1.00  0.00     0.219 C 
BRANCH  35  36
HETATM   36  C   UNL     1      -6.999   0.740 -32.913  1.00  0.00     0.026 A 
HETATM   37  C   UNL     1      -6.713  -0.148 -33.959  1.00  0.00     0.045 A 
HETATM   38 CL   UNL     1      -7.609  -0.139 -35.435  1.00  0.00    -0.084 Cl
HETATM   39  C   UNL     1      -5.676  -1.083 -33.841  1.00  0.00     0.024 A 
HETATM   40  C   UNL     1      -4.909  -1.143 -32.679  1.00  0.00     0.005 A 
HETATM   41  C   UNL     1      -5.193  -0.282 -31.626  1.00  0.00     0.043 A 
HETATM   42  C   UNL     1      -6.235   0.635 -31.746  1.00  0.00     0.126 A 
HETATM   43  F   UNL     1      -6.515   1.415 -30.690  1.00  0.00    -0.205 F 
ENDBRANCH  35  36
ENDBRANCH  34  35
ENDBRANCH  28  34
ENDBRANCH  26  27
ENDBRANCH   2  25
TORSDOF 12
ENDMDL
MODEL 5
REMARK VINA RESULT:      -7.7      2.134      3.201
REMARK  12 active torsions:
REMARK  status: ('A' for Active; 'I' for Inactive)
REMARK    1  A    between atoms: C_2  and  N_3 
REMARK    2  A    between atoms: N_3  and  C_5 
REMARK    3  A    between atoms: N_3  and  C_39 
REMARK    4  A    between atoms: C_5  and  C_6 
REMARK    5  A    between atoms: N_7  and  C_8 
REMARK    6  A    between atoms: C_12  and  N_13 
REMARK    7  A    between atoms: C_16  and  C_17 
REMARK       I    between atoms: C_17  and  N_18 
REMARK    8  A    between atoms: N_18  and  N_19 
REMARK    9  A    between atoms: C_20  and  C_21 
REMARK   10  A    between atoms: C_22  and  O_23 
REMARK   11  A    between atoms: O_23  and  C_24 
REMARK   12  A    between atoms: C_24  and  C_25 
ROOT
HETATM    1  C   UNL     1      -1.859   5.325 -33.873  1.00  0.00     0.294 C 
HETATM    2  N   UNL     1      -3.170   4.933 -34.071  1.00  0.00    -0.242 N 
HETATM    3  O   UNL     1      -1.116   5.526 -34.829  1.00  0.00    -0.264 OA
HETATM    4  H   UNL     1      -3.505   4.963 -35.031  1.00  0.00     0.192 HD
ENDROOT
BRANCH   1   5
HETATM    5  C   UNL     1      -1.406   5.492 -32.499  1.00  0.00     0.176 C 
HETATM    6  C   UNL     1      -1.530   6.585 -31.647  1.00  0.00     0.102 C 
HETATM    7  N   UNL     1      -0.800   6.206 -30.517  1.00  0.00    -0.191 N 
HETATM    8  N   UNL     1      -0.500   4.885 -30.620  1.00  0.00    -0.058 NA
HETATM    9  N   UNL     1      -0.839   4.455 -31.819  1.00  0.00    -0.124 NA
BRANCH   6  10
HETATM   10  C   UNL     1      -2.212   7.880 -31.866  1.00  0.00     0.296 C 
BRANCH  10  11
HETATM   11  N   UNL     1      -3.363   8.190 -30.899  1.00  0.00    -0.066 N 
HETATM   12  H   UNL     1      -3.014   7.834 -29.999  1.00  0.00     0.280 HD
BRANCH  11  13
HETATM   13  C   UNL     1      -4.644   7.438 -31.190  1.00  0.00     0.231 C 
HETATM   14  C   UNL     1      -5.608   7.567 -30.024  1.00  0.00     0.034 C 
ENDBRANCH  11  13
BRANCH  11  15
HETATM   15  C   UNL     1      -3.560   9.679 -30.677  1.00  0.00     0.231 C 
HETATM   16  C   UNL     1      -2.611  10.208 -29.616  1.00  0.00     0.034 C 
ENDBRANCH  11  15
ENDBRANCH  10  11
ENDBRANCH   6  10
BRANCH   7  17
HETATM   17  C   UNL     1      -0.413   6.955 -29.381  1.00  0.00     0.229 A 
HETATM   18  N   UNL     1       0.759   7.590 -29.351  1.00  0.00    -0.081 NA
HETATM   19  O   UNL     1       0.786   8.187 -28.089  1.00  0.00    -0.103 OA
HETATM   20  N   UNL     1      -0.386   7.934 -27.389  1.00  0.00    -0.083 NA
HETATM   21  C   UNL     1      -1.125   7.162 -28.184  1.00  0.00     0.201 A 
BRANCH  21  22
HETATM   22  N   UNL     1      -2.350   6.705 -27.878  1.00  0.00    -0.379 N 
HETATM   23  H   UNL     1      -2.463   6.026 -27.130  1.00  0.00     0.158 HD
HETATM   24  H   UNL     1      -3.126   6.728 -28.539  1.00  0.00     0.158 HD
ENDBRANCH  21  22
ENDBRANCH   7  17
ENDBRANCH   1   5
BRANCH   2  25
HETATM   25  N   UNL     1      -3.981   4.488 -33.072  1.00  0.00    -0.183 NA
HETATM   26  C   UNL     1      -5.193   4.209 -33.432  1.00  0.00     0.153 C 
BRANCH  26  27
HETATM   27  C   UNL     1      -6.159   3.647 -32.475  1.00  0.00     0.018 A 
HETATM   28  C   UNL     1      -6.236   2.273 -32.202  1.00  0.00     0.081 A 
HETATM   29  C   UNL     1      -7.119   1.808 -31.225  1.00  0.00     0.039 A 
HETATM   30  C   UNL     1      -7.963   2.704 -30.565  1.00  0.00     0.026 A 
HETATM   31  C   UNL     1      -7.916   4.063 -30.877  1.00  0.00     0.035 A 
HETATM   32 CL   UNL     1      -8.966   5.160 -30.073  1.00  0.00    -0.084 Cl
HETATM   33  C   UNL     1      -7.018   4.542 -31.830  1.00  0.00     0.039 A 
BRANCH  28  34
HETATM   34  O   UNL     1      -5.490   1.331 -32.868  1.00  0.00    -0.346 OA
BRANCH  34  35
HETATM   35  C   UNL     1      -5.495   0.095 -32.133  1.00  0.00     0.219 C 
BRANCH  35  36
HETATM   36  C   UNL     1      -5.574  -1.057 -33.098  1.00  0.00     0.026 A 
HETATM   37  C   UNL     1      -6.759  -1.417 -33.754  1.00  0.00     0.045 A 
HETATM   38 CL   UNL     1      -8.247  -0.588 -33.470  1.00  0.00    -0.084 Cl
HETATM   39  C   UNL     1      -6.775  -2.473 -34.675  1.00  0.00     0.024 A 
HETATM   40  C   UNL     1      -5.609  -3.183 -34.955  1.00  0.00     0.005 A 
HETATM   41  C   UNL     1      -4.430  -2.850 -34.298  1.00  0.00     0.043 A 
HETATM   42  C   UNL     1      -4.426  -1.807 -33.374  1.00  0.00     0.126 A 
HETATM   43  F   UNL     1      -3.283  -1.548 -32.720  1.00  0.00    -0.205 F 
ENDBRANCH  35  36
ENDBRANCH  34  35
ENDBRANCH  28  34
ENDBRANCH  26  27
ENDBRANCH   2  25
TORSDOF 12
ENDMDL
MODEL 6
REMARK VINA RESULT:      -7.7      4.659      8.880
REMARK  12 active torsions:
REMARK  status: ('A' for Active; 'I' for Inactive)
REMARK    1  A    between atoms: C_2  and  N_3 
REMARK    2  A    between atoms: N_3  and  C_5 
REMARK    3  A    between atoms: N_3  and  C_39 
REMARK    4  A    between atoms: C_5  and  C_6 
REMARK    5  A    between atoms: N_7  and  C_8 
REMARK    6  A    between atoms: C_12  and  N_13 
REMARK    7  A    between atoms: C_16  and  C_17 
REMARK       I    between atoms: C_17  and  N_18 
REMARK    8  A    between atoms: N_18  and  N_19 
REMARK    9  A    between atoms: C_20  and  C_21 
REMARK   10  A    between atoms: C_22  and  O_23 
REMARK   11  A    between atoms: O_23  and  C_24 
REMARK   12  A    between atoms: C_24  and  C_25 
ROOT
HETATM    1  C   UNL     1      -9.552   5.485 -34.176  1.00  0.00     0.294 C 
HETATM    2  N   UNL     1      -8.203   5.188 -34.124  1.00  0.00    -0.242 N 
HETATM    3  O   UNL     1      -9.939   6.646 -34.082  1.00  0.00    -0.264 OA
HETATM    4  H   UNL     1      -7.568   5.982 -34.147  1.00  0.00     0.192 HD
ENDROOT
BRANCH   1   5
HETATM    5  C   UNL     1     -10.480   4.377 -34.350  1.00  0.00     0.176 C 
HETATM    6  C   UNL     1     -10.938   3.446 -33.423  1.00  0.00     0.102 C 
HETATM    7  N   UNL     1     -11.699   2.562 -34.192  1.00  0.00    -0.191 N 
HETATM    8  N   UNL     1     -11.873   3.103 -35.426  1.00  0.00    -0.058 NA
HETATM    9  N   UNL     1     -11.123   4.182 -35.536  1.00  0.00    -0.124 NA
BRANCH   6  10
HETATM   10  C   UNL     1     -10.661   3.344 -31.972  1.00  0.00     0.296 C 
BRANCH  10  11
HETATM   11  N   UNL     1      -9.214   2.994 -31.601  1.00  0.00    -0.066 N 
HETATM   12  H   UNL     1      -8.682   3.291 -32.429  1.00  0.00     0.280 HD
BRANCH  11  13
HETATM   13  C   UNL     1      -8.953   1.512 -31.433  1.00  0.00     0.231 C 
HETATM   14  C   UNL     1      -7.617   1.287 -30.746  1.00  0.00     0.034 C 
ENDBRANCH  11  13
BRANCH  11  15
HETATM   15  C   UNL     1      -8.675   3.847 -30.466  1.00  0.00     0.231 C 
HETATM   16  C   UNL     1      -9.567   5.050 -30.211  1.00  0.00     0.034 C 
ENDBRANCH  11  15
ENDBRANCH  10  11
ENDBRANCH   6  10
BRANCH   7  17
HETATM   17  C   UNL     1     -12.282   1.318 -33.854  1.00  0.00     0.229 A 
HETATM   18  N   UNL     1     -11.526   0.306 -33.426  1.00  0.00    -0.081 NA
HETATM   19  O   UNL     1     -12.438  -0.729 -33.215  1.00  0.00    -0.103 OA
HETATM   20  N   UNL     1     -13.736  -0.318 -33.485  1.00  0.00    -0.083 NA
HETATM   21  C   UNL     1     -13.639   0.948 -33.890  1.00  0.00     0.201 A 
BRANCH  21  22
HETATM   22  N   UNL     1     -14.684   1.719 -34.235  1.00  0.00    -0.379 N 
HETATM   23  H   UNL     1     -15.200   1.517 -35.087  1.00  0.00     0.158 HD
HETATM   24  H   UNL     1     -14.796   2.673 -33.897  1.00  0.00     0.158 HD
ENDBRANCH  21  22
ENDBRANCH   7  17
ENDBRANCH   1   5
BRANCH   2  25
HETATM   25  N   UNL     1      -7.716   3.922 -34.005  1.00  0.00    -0.183 NA
HETATM   26  C   UNL     1      -6.456   3.842 -33.719  1.00  0.00     0.153 C 
BRANCH  26  27
HETATM   27  C   UNL     1      -5.811   2.540 -33.487  1.00  0.00     0.018 A 
HETATM   28  C   UNL     1      -4.681   2.396 -32.667  1.00  0.00     0.081 A 
HETATM   29  C   UNL     1      -4.161   1.123 -32.421  1.00  0.00     0.039 A 
HETATM   30  C   UNL     1      -4.730   0.007 -33.037  1.00  0.00     0.026 A 
HETATM   31  C   UNL     1      -5.823   0.163 -33.889  1.00  0.00     0.035 A 
HETATM   32 CL   UNL     1      -6.512  -1.212 -34.656  1.00  0.00    -0.084 Cl
HETATM   33  C   UNL     1      -6.368   1.426 -34.120  1.00  0.00     0.039 A 
BRANCH  28  34
HETATM   34  O   UNL     1      -4.026   3.459 -32.093  1.00  0.00    -0.346 OA
BRANCH  34  35
HETATM   35  C   UNL     1      -2.646   3.459 -32.495  1.00  0.00     0.219 C 
BRANCH  35  36
HETATM   36  C   UNL     1      -2.204   4.873 -32.754  1.00  0.00     0.026 A 
HETATM   37  C   UNL     1      -1.324   5.561 -31.905  1.00  0.00     0.045 A 
HETATM   38 CL   UNL     1      -0.708   4.847 -30.459  1.00  0.00    -0.084 Cl
HETATM   39  C   UNL     1      -0.910   6.864 -32.207  1.00  0.00     0.024 A 
HETATM   40  C   UNL     1      -1.365   7.500 -33.361  1.00  0.00     0.005 A 
HETATM   41  C   UNL     1      -2.253   6.839 -34.202  1.00  0.00     0.043 A 
HETATM   42  C   UNL     1      -2.670   5.548 -33.887  1.00  0.00     0.126 A 
HETATM   43  F   UNL     1      -3.568   4.960 -34.693  1.00  0.00    -0.205 F 
ENDBRANCH  35  36
ENDBRANCH  34  35
ENDBRANCH  28  34
ENDBRANCH  26  27
ENDBRANCH   2  25
TORSDOF 12
ENDMDL
MODEL 7
REMARK VINA RESULT:      -7.7      2.790      5.803
REMARK  12 active torsions:
REMARK  status: ('A' for Active; 'I' for Inactive)
REMARK    1  A    between atoms: C_2  and  N_3 
REMARK    2  A    between atoms: N_3  and  C_5 
REMARK    3  A    between atoms: N_3  and  C_39 
REMARK    4  A    between atoms: C_5  and  C_6 
REMARK    5  A    between atoms: N_7  and  C_8 
REMARK    6  A    between atoms: C_12  and  N_13 
REMARK    7  A    between atoms: C_16  and  C_17 
REMARK       I    between atoms: C_17  and  N_18 
REMARK    8  A    between atoms: N_18  and  N_19 
REMARK    9  A    between atoms: C_20  and  C_21 
REMARK   10  A    between atoms: C_22  and  O_23 
REMARK   11  A    between atoms: O_23  and  C_24 
REMARK   12  A    between atoms: C_24  and  C_25 
ROOT
HETATM    1  C   UNL     1      -5.609   3.938 -29.946  1.00  0.00     0.294 C 
HETATM    2  N   UNL     1      -6.544   2.962 -30.241  1.00  0.00    -0.242 N 
HETATM    3  O   UNL     1      -5.767   4.682 -28.983  1.00  0.00    -0.264 OA
HETATM    4  H   UNL     1      -7.270   2.813 -29.545  1.00  0.00     0.192 HD
ENDROOT
BRANCH   1   5
HETATM    5  C   UNL     1      -4.445   4.040 -30.814  1.00  0.00     0.176 C 
HETATM    6  C   UNL     1      -4.010   5.104 -31.598  1.00  0.00     0.102 C 
HETATM    7  N   UNL     1      -2.921   4.574 -32.297  1.00  0.00    -0.191 N 
HETATM    8  N   UNL     1      -2.602   3.371 -31.752  1.00  0.00    -0.058 NA
HETATM    9  N   UNL     1      -3.528   3.032 -30.877  1.00  0.00    -0.124 NA
BRANCH   6  10
HETATM   10  C   UNL     1      -4.571   6.466 -31.737  1.00  0.00     0.296 C 
BRANCH  10  11
HETATM   11  N   UNL     1      -5.840   6.572 -32.593  1.00  0.00    -0.066 N 
HETATM   12  H   UNL     1      -5.675   7.420 -33.152  1.00  0.00     0.280 HD
BRANCH  11  13
HETATM   13  C   UNL     1      -7.108   6.819 -31.805  1.00  0.00     0.231 C 
HETATM   14  C   UNL     1      -7.564   8.257 -31.976  1.00  0.00     0.034 C 
ENDBRANCH  11  13
BRANCH  11  15
HETATM   15  C   UNL     1      -5.956   5.453 -33.613  1.00  0.00     0.231 C 
HETATM   16  C   UNL     1      -7.367   4.890 -33.653  1.00  0.00     0.034 C 
ENDBRANCH  11  15
ENDBRANCH  10  11
ENDBRANCH   6  10
BRANCH   7  17
HETATM   17  C   UNL     1      -2.168   5.111 -33.368  1.00  0.00     0.229 A 
HETATM   18  N   UNL     1      -2.247   4.580 -34.588  1.00  0.00    -0.081 NA
HETATM   19  O   UNL     1      -1.369   5.354 -35.349  1.00  0.00    -0.103 OA
HETATM   20  N   UNL     1      -0.799   6.364 -34.585  1.00  0.00    -0.083 NA
HETATM   21  C   UNL     1      -1.286   6.208 -33.355  1.00  0.00     0.201 A 
BRANCH  21  22
HETATM   22  N   UNL     1      -0.990   7.001 -32.313  1.00  0.00    -0.379 N 
HETATM   23  H   UNL     1      -0.041   7.346 -32.194  1.00  0.00     0.158 HD
HETATM   24  H   UNL     1      -1.548   7.018 -31.460  1.00  0.00     0.158 HD
ENDBRANCH  21  22
ENDBRANCH   7  17
ENDBRANCH   1   5
BRANCH   2  25
HETATM   25  N   UNL     1      -6.547   2.251 -31.402  1.00  0.00    -0.183 NA
HETATM   26  C   UNL     1      -6.635   0.966 -31.259  1.00  0.00     0.153 C 
BRANCH  26  27
HETATM   27  C   UNL     1      -6.726   0.077 -32.428  1.00  0.00     0.018 A 
HETATM   28  C   UNL     1      -7.834   0.075 -33.288  1.00  0.00     0.081 A 
HETATM   29  C   UNL     1      -7.828  -0.735 -34.426  1.00  0.00     0.039 A 
HETATM   30  C   UNL     1      -6.745  -1.582 -34.672  1.00  0.00     0.026 A 
HETATM   31  C   UNL     1      -5.668  -1.611 -33.786  1.00  0.00     0.035 A 
HETATM   32 CL   UNL     1      -4.344  -2.665 -34.086  1.00  0.00    -0.084 Cl
HETATM   33  C   UNL     1      -5.651  -0.786 -32.663  1.00  0.00     0.039 A 
BRANCH  28  34
HETATM   34  O   UNL     1      -8.963   0.825 -33.063  1.00  0.00    -0.346 OA
BRANCH  34  35
HETATM   35  C   UNL     1      -9.433   1.385 -34.301  1.00  0.00     0.219 C 
BRANCH  35  36
HETATM   36  C   UNL     1     -10.926   1.560 -34.233  1.00  0.00     0.026 A 
HETATM   37  C   UNL     1     -11.582   2.688 -34.745  1.00  0.00     0.045 A 
HETATM   38 CL   UNL     1     -10.717   3.998 -35.464  1.00  0.00    -0.084 Cl
HETATM   39  C   UNL     1     -12.978   2.789 -34.693  1.00  0.00     0.024 A 
HETATM   40  C   UNL     1     -13.740   1.766 -34.131  1.00  0.00     0.005 A 
HETATM   41  C   UNL     1     -13.102   0.650 -33.601  1.00  0.00     0.043 A 
HETATM   42  C   UNL     1     -11.712   0.564 -33.644  1.00  0.00     0.126 A 
HETATM   43  F   UNL     1     -11.128  -0.502 -33.077  1.00  0.00    -0.205 F 
ENDBRANCH  35  36
ENDBRANCH  34  35
ENDBRANCH  28  34
ENDBRANCH  26  27
ENDBRANCH   2  25
TORSDOF 12
ENDMDL
MODEL 8
REMARK VINA RESULT:      -7.6      2.299      3.415
REMARK  12 active torsions:
REMARK  status: ('A' for Active; 'I' for Inactive)
REMARK    1  A    between atoms: C_2  and  N_3 
REMARK    2  A    between atoms: N_3  and  C_5 
REMARK    3  A    between atoms: N_3  and  C_39 
REMARK    4  A    between atoms: C_5  and  C_6 
REMARK    5  A    between atoms: N_7  and  C_8 
REMARK    6  A    between atoms: C_12  and  N_13 
REMARK    7  A    between atoms: C_16  and  C_17 
REMARK       I    between atoms: C_17  and  N_18 
REMARK    8  A    between atoms: N_18  and  N_19 
REMARK    9  A    between atoms: C_20  and  C_21 
REMARK   10  A    between atoms: C_22  and  O_23 
REMARK   11  A    between atoms: O_23  and  C_24 
REMARK   12  A    between atoms: C_24  and  C_25 
ROOT
HETATM    1  C   UNL     1      -1.087   5.147 -31.489  1.00  0.00     0.294 C 
HETATM    2  N   UNL     1      -2.055   4.159 -31.495  1.00  0.00    -0.242 N 
HETATM    3  O   UNL     1       0.105   4.853 -31.465  1.00  0.00    -0.264 OA
HETATM    4  H   UNL     1      -1.721   3.207 -31.623  1.00  0.00     0.192 HD
ENDROOT
BRANCH   1   5
HETATM    5  C   UNL     1      -1.536   6.532 -31.514  1.00  0.00     0.176 C 
HETATM    6  C   UNL     1      -1.978   7.343 -30.473  1.00  0.00     0.102 C 
HETATM    7  N   UNL     1      -2.389   8.512 -31.119  1.00  0.00    -0.191 N 
HETATM    8  N   UNL     1      -1.967   8.464 -32.410  1.00  0.00    -0.058 NA
HETATM    9  N   UNL     1      -1.476   7.266 -32.661  1.00  0.00    -0.124 NA
BRANCH   6  10
HETATM   10  C   UNL     1      -2.065   7.056 -29.024  1.00  0.00     0.296 C 
BRANCH  10  11
HETATM   11  N   UNL     1      -0.756   6.606 -28.362  1.00  0.00    -0.066 N 
HETATM   12  H   UNL     1      -0.647   5.638 -28.693  1.00  0.00     0.280 HD
BRANCH  11  13
HETATM   13  C   UNL     1      -0.811   6.537 -26.851  1.00  0.00     0.231 C 
HETATM   14  C   UNL     1      -2.202   6.893 -26.357  1.00  0.00     0.034 C 
ENDBRANCH  11  13
BRANCH  11  15
HETATM   15  C   UNL     1       0.459   7.339 -28.902  1.00  0.00     0.231 C 
HETATM   16  C   UNL     1       1.115   8.185 -27.824  1.00  0.00     0.034 C 
ENDBRANCH  11  15
ENDBRANCH  10  11
ENDBRANCH   6  10
BRANCH   7  17
HETATM   17  C   UNL     1      -3.086   9.639 -30.623  1.00  0.00     0.229 A 
HETATM   18  N   UNL     1      -4.250  10.008 -31.158  1.00  0.00    -0.081 NA
HETATM   19  O   UNL     1      -4.611  11.143 -30.428  1.00  0.00    -0.103 OA
HETATM   20  N   UNL     1      -3.676  11.421 -29.440  1.00  0.00    -0.083 NA
HETATM   21  C   UNL     1      -2.726  10.496 -29.566  1.00  0.00     0.201 A 
BRANCH  21  22
HETATM   22  N   UNL     1      -1.641  10.406 -28.780  1.00  0.00    -0.379 N 
HETATM   23  H   UNL     1      -1.748  10.416 -27.769  1.00  0.00     0.158 HD
HETATM   24  H   UNL     1      -0.708  10.661 -29.101  1.00  0.00     0.158 HD
ENDBRANCH  21  22
ENDBRANCH   7  17
ENDBRANCH   1   5
BRANCH   2  25
HETATM   25  N   UNL     1      -3.380   4.405 -31.304  1.00  0.00    -0.183 NA
HETATM   26  C   UNL     1      -4.095   3.365 -31.014  1.00  0.00     0.153 C 
BRANCH  26  27
HETATM   27  C   UNL     1      -5.529   3.491 -30.708  1.00  0.00     0.018 A 
HETATM   28  C   UNL     1      -6.497   2.650 -31.278  1.00  0.00     0.081 A 
HETATM   29  C   UNL     1      -7.833   2.766 -30.887  1.00  0.00     0.039 A 
HETATM   30  C   UNL     1      -8.209   3.755 -29.976  1.00  0.00     0.026 A 
HETATM   31  C   UNL     1      -7.248   4.619 -29.450  1.00  0.00     0.035 A 
HETATM   32 CL   UNL     1      -7.718   5.843 -28.339  1.00  0.00    -0.084 Cl
HETATM   33  C   UNL     1      -5.907   4.494 -29.811  1.00  0.00     0.039 A 
BRANCH  28  34
HETATM   34  O   UNL     1      -6.207   1.710 -32.236  1.00  0.00    -0.346 OA
BRANCH  34  35
HETATM   35  C   UNL     1      -6.502   0.395 -31.736  1.00  0.00     0.219 C 
BRANCH  35  36
HETATM   36  C   UNL     1      -6.113  -0.629 -32.768  1.00  0.00     0.026 A 
HETATM   37  C   UNL     1      -4.801  -1.105 -32.908  1.00  0.00     0.045 A 
HETATM   38 CL   UNL     1      -3.508  -0.517 -31.926  1.00  0.00    -0.084 Cl
HETATM   39  C   UNL     1      -4.494  -2.087 -33.858  1.00  0.00     0.024 A 
HETATM   40  C   UNL     1      -5.490  -2.610 -34.681  1.00  0.00     0.005 A 
HETATM   41  C   UNL     1      -6.791  -2.134 -34.568  1.00  0.00     0.043 A 
HETATM   42  C   UNL     1      -7.085  -1.147 -33.629  1.00  0.00     0.126 A 
HETATM   43  F   UNL     1      -8.340  -0.673 -33.584  1.00  0.00    -0.205 F 
ENDBRANCH  35  36
ENDBRANCH  34  35
ENDBRANCH  28  34
ENDBRANCH  26  27
ENDBRANCH   2  25
TORSDOF 12
ENDMDL
MODEL 9
REMARK VINA RESULT:      -7.6      4.249      8.765
REMARK  12 active torsions:
REMARK  status: ('A' for Active; 'I' for Inactive)
REMARK    1  A    between atoms: C_2  and  N_3 
REMARK    2  A    between atoms: N_3  and  C_5 
REMARK    3  A    between atoms: N_3  and  C_39 
REMARK    4  A    between atoms: C_5  and  C_6 
REMARK    5  A    between atoms: N_7  and  C_8 
REMARK    6  A    between atoms: C_12  and  N_13 
REMARK    7  A    between atoms: C_16  and  C_17 
REMARK       I    between atoms: C_17  and  N_18 
REMARK    8  A    between atoms: N_18  and  N_19 
REMARK    9  A    between atoms: C_20  and  C_21 
REMARK   10  A    between atoms: C_22  and  O_23 
REMARK   11  A    between atoms: O_23  and  C_24 
REMARK   12  A    between atoms: C_24  and  C_25 
ROOT
HETATM    1  C   UNL     1      -5.738   1.171 -29.923  1.00  0.00     0.294 C 
HETATM    2  N   UNL     1      -4.474   1.662 -30.196  1.00  0.00    -0.242 N 
HETATM    3  O   UNL     1      -5.890   0.245 -29.133  1.00  0.00    -0.264 OA
HETATM    4  H   UNL     1      -3.722   1.313 -29.608  1.00  0.00     0.192 HD
ENDROOT
BRANCH   1   5
HETATM    5  C   UNL     1      -6.864   1.794 -30.603  1.00  0.00     0.176 C 
HETATM    6  C   UNL     1      -7.564   1.377 -31.731  1.00  0.00     0.102 C 
HETATM    7  N   UNL     1      -8.444   2.434 -31.982  1.00  0.00    -0.191 N 
HETATM    8  N   UNL     1      -8.422   3.276 -30.916  1.00  0.00    -0.058 NA
HETATM    9  N   UNL     1      -7.457   2.912 -30.095  1.00  0.00    -0.124 NA
BRANCH   6  10
HETATM   10  C   UNL     1      -7.408   0.146 -32.538  1.00  0.00     0.296 C 
BRANCH  10  11
HETATM   11  N   UNL     1      -6.265   0.170 -33.561  1.00  0.00    -0.066 N 
HETATM   12  H   UNL     1      -5.614   0.864 -33.168  1.00  0.00     0.280 HD
BRANCH  11  13
HETATM   13  C   UNL     1      -6.661   0.681 -34.929  1.00  0.00     0.231 C 
HETATM   14  C   UNL     1      -7.925  -0.013 -35.405  1.00  0.00     0.034 C 
ENDBRANCH  11  13
BRANCH  11  15
HETATM   15  C   UNL     1      -5.476  -1.127 -33.592  1.00  0.00     0.231 C 
HETATM   16  C   UNL     1      -3.986  -0.868 -33.443  1.00  0.00     0.034 C 
ENDBRANCH  11  15
ENDBRANCH  10  11
ENDBRANCH   6  10
BRANCH   7  17
HETATM   17  C   UNL     1      -9.294   2.679 -33.086  1.00  0.00     0.229 A 
HETATM   18  N   UNL     1      -9.061   3.700 -33.911  1.00  0.00    -0.081 NA
HETATM   19  O   UNL     1     -10.098   3.624 -34.842  1.00  0.00    -0.103 OA
HETATM   20  N   UNL     1     -10.923   2.537 -34.587  1.00  0.00    -0.083 NA
HETATM   21  C   UNL     1     -10.431   1.956 -33.493  1.00  0.00     0.201 A 
BRANCH  21  22
HETATM   22  N   UNL     1     -10.940   0.851 -32.923  1.00  0.00    -0.379 N 
HETATM   23  H   UNL     1     -10.973   0.777 -31.910  1.00  0.00     0.158 HD
HETATM   24  H   UNL     1     -10.988  -0.044 -33.408  1.00  0.00     0.158 HD
ENDBRANCH  21  22
ENDBRANCH   7  17
ENDBRANCH   1   5
BRANCH   2  25
HETATM   25  N   UNL     1      -4.208   2.531 -31.210  1.00  0.00    -0.183 NA
HETATM   26  C   UNL     1      -3.070   3.143 -31.125  1.00  0.00     0.153 C 
BRANCH  26  27
HETATM   27  C   UNL     1      -2.616   4.053 -32.188  1.00  0.00     0.018 A 
HETATM   28  C   UNL     1      -1.393   4.737 -32.122  1.00  0.00     0.081 A 
HETATM   29  C   UNL     1      -0.980   5.525 -33.199  1.00  0.00     0.039 A 
HETATM   30  C   UNL     1      -1.811   5.678 -34.310  1.00  0.00     0.026 A 
HETATM   31  C   UNL     1      -3.048   5.035 -34.347  1.00  0.00     0.035 A 
HETATM   32 CL   UNL     1      -4.074   5.236 -35.712  1.00  0.00    -0.084 Cl
HETATM   33  C   UNL     1      -3.458   4.222 -33.292  1.00  0.00     0.039 A 
BRANCH  28  34
HETATM   34  O   UNL     1      -0.563   4.692 -31.028  1.00  0.00    -0.346 OA
BRANCH  34  35
HETATM   35  C   UNL     1       0.209   5.902 -30.950  1.00  0.00     0.219 C 
BRANCH  35  36
HETATM   36  C   UNL     1      -0.126   6.624 -29.673  1.00  0.00     0.026 A 
HETATM   37  C   UNL     1      -0.992   7.726 -29.629  1.00  0.00     0.045 A 
HETATM   38 CL   UNL     1      -1.713   8.376 -31.057  1.00  0.00    -0.084 Cl
HETATM   39  C   UNL     1      -1.305   8.342 -28.411  1.00  0.00     0.024 A 
HETATM   40  C   UNL     1      -0.761   7.867 -27.219  1.00  0.00     0.005 A 
HETATM   41  C   UNL     1       0.114   6.787 -27.248  1.00  0.00     0.043 A 
HETATM   42  C   UNL     1       0.431   6.189 -28.466  1.00  0.00     0.126 A 
HETATM   43  F   UNL     1       1.319   5.183 -28.463  1.00  0.00    -0.205 F 
ENDBRANCH  35  36
ENDBRANCH  34  35
ENDBRANCH  28  34
ENDBRANCH  26  27
ENDBRANCH   2  25
TORSDOF 12
ENDMDL
MODEL 10
REMARK VINA RESULT:      -7.6      2.493      4.827
REMARK  12 active torsions:
REMARK  status: ('A' for Active; 'I' for Inactive)
REMARK    1  A    between atoms: C_2  and  N_3 
REMARK    2  A    between atoms: N_3  and  C_5 
REMARK    3  A    between atoms: N_3  and  C_39 
REMARK    4  A    between atoms: C_5  and  C_6 
REMARK    5  A    between atoms: N_7  and  C_8 
REMARK    6  A    between atoms: C_12  and  N_13 
REMARK    7  A    between atoms: C_16  and  C_17 
REMARK       I    between atoms: C_17  and  N_18 
REMARK    8  A    between atoms: N_18  and  N_19 
REMARK    9  A    between atoms: C_20  and  C_21 
REMARK   10  A    between atoms: C_22  and  O_23 
REMARK   11  A    between atoms: O_23  and  C_24 
REMARK   12  A    between atoms: C_24  and  C_25 
ROOT
HETATM    1  C   UNL     1      -6.436   4.902 -29.124  1.00  0.00     0.294 C 
HETATM    2  N   UNL     1      -7.763   4.537 -29.256  1.00  0.00    -0.242 N 
HETATM    3  O   UNL     1      -6.031   5.413 -28.085  1.00  0.00    -0.264 OA
HETATM    4  H   UNL     1      -8.327   4.584 -28.411  1.00  0.00     0.192 HD
ENDROOT
BRANCH   1   5
HETATM    5  C   UNL     1      -5.553   4.655 -30.255  1.00  0.00     0.176 C 
HETATM    6  C   UNL     1      -5.023   5.547 -31.182  1.00  0.00     0.102 C 
HETATM    7  N   UNL     1      -4.362   4.720 -32.093  1.00  0.00    -0.191 N 
HETATM    8  N   UNL     1      -4.302   3.466 -31.574  1.00  0.00    -0.058 NA
HETATM    9  N   UNL     1      -5.038   3.413 -30.482  1.00  0.00    -0.124 NA
BRANCH   6  10
HETATM   10  C   UNL     1      -5.154   7.019 -31.258  1.00  0.00     0.296 C 
BRANCH  10  11
HETATM   11  N   UNL     1      -4.129   7.814 -30.438  1.00  0.00    -0.066 N 
HETATM   12  H   UNL     1      -4.712   8.305 -29.747  1.00  0.00     0.280 HD
BRANCH  11  13
HETATM   13  C   UNL     1      -3.397   8.884 -31.220  1.00  0.00     0.231 C 
HETATM   14  C   UNL     1      -2.180   8.293 -31.910  1.00  0.00     0.034 C 
ENDBRANCH  11  13
BRANCH  11  15
HETATM   15  C   UNL     1      -3.218   6.923 -29.612  1.00  0.00     0.231 C 
HETATM   16  C   UNL     1      -2.912   7.550 -28.262  1.00  0.00     0.034 C 
ENDBRANCH  11  15
ENDBRANCH  10  11
ENDBRANCH   6  10
BRANCH   7  17
HETATM   17  C   UNL     1      -3.774   5.018 -33.345  1.00  0.00     0.229 A 
HETATM   18  N   UNL     1      -4.531   5.346 -34.392  1.00  0.00    -0.081 NA
HETATM   19  O   UNL     1      -3.611   5.547 -35.423  1.00  0.00    -0.103 OA
HETATM   20  N   UNL     1      -2.310   5.372 -34.975  1.00  0.00    -0.083 NA
HETATM   21  C   UNL     1      -2.409   5.034 -33.690  1.00  0.00     0.201 A 
BRANCH  21  22
HETATM   22  N   UNL     1      -1.363   4.791 -32.883  1.00  0.00    -0.379 N 
HETATM   23  H   UNL     1      -1.419   4.043 -32.197  1.00  0.00     0.158 HD
HETATM   24  H   UNL     1      -0.656   5.494 -32.674  1.00  0.00     0.158 HD
ENDBRANCH  21  22
ENDBRANCH   7  17
ENDBRANCH   1   5
BRANCH   2  25
HETATM   25  N   UNL     1      -8.327   4.169 -30.440  1.00  0.00    -0.183 NA
HETATM   26  C   UNL     1      -8.808   2.967 -30.469  1.00  0.00     0.153 C 
BRANCH  26  27
HETATM   27  C   UNL     1      -9.514   2.460 -31.656  1.00  0.00     0.018 A 
HETATM   28  C   UNL     1      -9.100   1.309 -32.343  1.00  0.00     0.081 A 
HETATM   29  C   UNL     1      -9.857   0.831 -33.416  1.00  0.00     0.039 A 
HETATM   30  C   UNL     1     -10.988   1.534 -33.838  1.00  0.00     0.026 A 
HETATM   31  C   UNL     1     -11.365   2.705 -33.181  1.00  0.00     0.035 A 
HETATM   32 CL   UNL     1     -12.750   3.573 -33.712  1.00  0.00    -0.084 Cl
HETATM   33  C   UNL     1     -10.634   3.175 -32.091  1.00  0.00     0.039 A 
BRANCH  28  34
HETATM   34  O   UNL     1      -7.957   0.615 -32.029  1.00  0.00    -0.346 OA
BRANCH  34  35
HETATM   35  C   UNL     1      -6.898   0.985 -32.928  1.00  0.00     0.219 C 
BRANCH  35  36
HETATM   36  C   UNL     1      -6.155  -0.252 -33.357  1.00  0.00     0.026 A 
HETATM   37  C   UNL     1      -5.092  -0.792 -32.620  1.00  0.00     0.045 A 
HETATM   38 CL   UNL     1      -4.516  -0.050 -31.172  1.00  0.00    -0.084 Cl
HETATM   39  C   UNL     1      -4.456  -1.968 -33.038  1.00  0.00     0.024 A 
HETATM   40  C   UNL     1      -4.872  -2.623 -34.197  1.00  0.00     0.005 A 
HETATM   41  C   UNL     1      -5.913  -2.088 -34.948  1.00  0.00     0.043 A 
HETATM   42  C   UNL     1      -6.531  -0.911 -34.532  1.00  0.00     0.126 A 
HETATM   43  F   UNL     1      -7.495  -0.395 -35.310  1.00  0.00    -0.205 F 
ENDBRANCH  35  36
ENDBRANCH  34  35
ENDBRANCH  28  34
ENDBRANCH  26  27
ENDBRANCH   2  25
TORSDOF 12
ENDMDL
