MODEL 1
REMARK VINA RESULT:      -8.5      0.000      0.000
REMARK  9 active torsions:
REMARK  status: ('A' for Active; 'I' for Inactive)
REMARK    1  A    between atoms: O_2  and  C_3 
REMARK    2  A    between atoms: C_4  and  O_5 
REMARK    3  A    between atoms: O_5  and  C_6 
REMARK    4  A    between atoms: C_6  and  C_7 
REMARK    5  A    between atoms: C_7  and  C_8 
REMARK    6  A    between atoms: C_8  and  C_9 
REMARK    7  A    between atoms: C_9  and  N_10 
REMARK       I    between atoms: N_10  and  C_11 
REMARK    8  A    between atoms: C_11  and  C_12 
REMARK    9  A    between atoms: C_16  and  C_17 
ROOT
HETATM    1  N   UNL     1      -2.509   4.815 -31.090  1.00  0.00    -0.345 N 
HETATM    2  C   UNL     1      -1.245   5.295 -31.313  1.00  0.00     0.270 C 
HETATM    3  O   UNL     1      -0.717   5.272 -32.420  1.00  0.00    -0.266 OA
HETATM    4  H   UNL     1      -2.870   4.758 -30.150  1.00  0.00     0.163 HD
ENDROOT
BRANCH   2   5
HETATM    5  C   UNL     1      -0.572   5.821 -30.156  1.00  0.00     0.120 A 
HETATM    6  N   UNL     1       0.178   5.024 -29.340  1.00  0.00    -0.272 N 
HETATM    7  H   UNL     1       0.338   4.026 -29.446  1.00  0.00     0.189 HD
HETATM    8  N   UNL     1       0.741   5.667 -28.307  1.00  0.00    -0.174 NA
HETATM    9  C   UNL     1       0.357   6.945 -28.447  1.00  0.00     0.089 A 
HETATM   10  C   UNL     1      -0.472   7.081 -29.598  1.00  0.00     0.071 A 
BRANCH   9  11
HETATM   11  C   UNL     1       0.786   7.986 -27.502  1.00  0.00    -0.003 A 
HETATM   12  C   UNL     1       1.750   7.716 -26.517  1.00  0.00     0.053 A 
HETATM   13  C   UNL     1       2.109   8.734 -25.655  1.00  0.00     0.106 A 
HETATM   14  C   UNL     1       1.555   9.989 -25.736  1.00  0.00     0.105 A 
HETATM   15  O   UNL     1       3.022   8.634 -24.651  1.00  0.00    -0.323 OA
HETATM   16  O   UNL     1       2.047  10.836 -24.794  1.00  0.00    -0.323 OA
HETATM   17  C   UNL     1       0.609  10.298 -26.685  1.00  0.00     0.040 A 
HETATM   18  C   UNL     1       2.975   9.971 -24.108  1.00  0.00     0.352 A 
HETATM   19  C   UNL     1       0.225   9.286 -27.573  1.00  0.00     0.017 A 
ENDBRANCH   9  11
ENDBRANCH   2   5
BRANCH   1  20
HETATM   20  C   UNL     1      -3.264   4.211 -32.154  1.00  0.00     0.217 C 
BRANCH  20  21
HETATM   21  C   UNL     1      -3.355   2.713 -31.913  1.00  0.00    -0.085 C 
BRANCH  21  22
HETATM   22  C   UNL     1      -3.433   1.428 -31.707  1.00  0.00    -0.078 C 
BRANCH  22  23
HETATM   23  C   UNL     1      -3.524  -0.071 -31.466  1.00  0.00     0.269 C 
BRANCH  23  24
HETATM   24  O   UNL     1      -3.281  -0.789 -32.675  1.00  0.00    -0.337 OA
BRANCH  24  25
HETATM   25  C   UNL     1      -4.361  -1.301 -33.345  1.00  0.00     0.103 A 
HETATM   26  C   UNL     1      -4.383  -2.681 -33.614  1.00  0.00     0.101 A 
HETATM   27  C   UNL     1      -5.419  -3.222 -34.388  1.00  0.00     0.039 A 
HETATM   28  C   UNL     1      -6.446  -2.416 -34.873  1.00  0.00     0.003 A 
HETATM   29  C   UNL     1      -6.434  -1.053 -34.601  1.00  0.00     0.003 A 
HETATM   30  C   UNL     1      -5.393  -0.497 -33.851  1.00  0.00     0.040 A 
BRANCH  26  31
HETATM   31  O   UNL     1      -3.451  -3.612 -33.231  1.00  0.00    -0.353 OA
HETATM   32  C   UNL     1      -3.561  -4.901 -33.821  1.00  0.00     0.210 C 
ENDBRANCH  26  31
ENDBRANCH  24  25
ENDBRANCH  23  24
ENDBRANCH  22  23
ENDBRANCH  21  22
ENDBRANCH  20  21
ENDBRANCH   1  20
TORSDOF 9
ENDMDL
MODEL 2
REMARK VINA RESULT:      -8.5      4.196     12.402
REMARK  9 active torsions:
REMARK  status: ('A' for Active; 'I' for Inactive)
REMARK    1  A    between atoms: O_2  and  C_3 
REMARK    2  A    between atoms: C_4  and  O_5 
REMARK    3  A    between atoms: O_5  and  C_6 
REMARK    4  A    between atoms: C_6  and  C_7 
REMARK    5  A    between atoms: C_7  and  C_8 
REMARK    6  A    between atoms: C_8  and  C_9 
REMARK    7  A    between atoms: C_9  and  N_10 
REMARK       I    between atoms: N_10  and  C_11 
REMARK    8  A    between atoms: C_11  and  C_12 
REMARK    9  A    between atoms: C_16  and  C_17 
ROOT
HETATM    1  N   UNL     1      -5.849   3.910 -33.887  1.00  0.00    -0.345 N 
HETATM    2  C   UNL     1      -6.874   3.165 -33.365  1.00  0.00     0.270 C 
HETATM    3  O   UNL     1      -7.699   3.633 -32.587  1.00  0.00    -0.266 OA
HETATM    4  H   UNL     1      -5.133   3.468 -34.442  1.00  0.00     0.163 HD
ENDROOT
BRANCH   2   5
HETATM    5  C   UNL     1      -6.914   1.791 -33.787  1.00  0.00     0.120 A 
HETATM    6  N   UNL     1      -7.885   1.328 -34.629  1.00  0.00    -0.272 N 
HETATM    7  H   UNL     1      -8.647   1.867 -35.031  1.00  0.00     0.189 HD
HETATM    8  N   UNL     1      -7.780   0.026 -34.928  1.00  0.00    -0.174 NA
HETATM    9  C   UNL     1      -6.690  -0.393 -34.264  1.00  0.00     0.089 A 
HETATM   10  C   UNL     1      -6.121   0.689 -33.533  1.00  0.00     0.071 A 
BRANCH   9  11
HETATM   11  C   UNL     1      -6.227  -1.785 -34.346  1.00  0.00    -0.003 A 
HETATM   12  C   UNL     1      -4.935  -2.144 -33.927  1.00  0.00     0.053 A 
HETATM   13  C   UNL     1      -4.555  -3.468 -34.033  1.00  0.00     0.106 A 
HETATM   14  C   UNL     1      -5.399  -4.432 -34.531  1.00  0.00     0.105 A 
HETATM   15  O   UNL     1      -3.345  -3.974 -33.673  1.00  0.00    -0.323 OA
HETATM   16  O   UNL     1      -4.827  -5.664 -34.549  1.00  0.00    -0.323 OA
HETATM   17  C   UNL     1      -6.672  -4.126 -34.952  1.00  0.00     0.040 A 
HETATM   18  C   UNL     1      -3.524  -5.368 -34.006  1.00  0.00     0.352 A 
HETATM   19  C   UNL     1      -7.084  -2.791 -34.857  1.00  0.00     0.017 A 
ENDBRANCH   9  11
ENDBRANCH   2   5
BRANCH   1  20
HETATM   20  C   UNL     1      -5.668   5.283 -33.498  1.00  0.00     0.217 C 
BRANCH  20  21
HETATM   21  C   UNL     1      -4.227   5.690 -33.762  1.00  0.00    -0.085 C 
BRANCH  21  22
HETATM   22  C   UNL     1      -2.991   6.039 -33.989  1.00  0.00    -0.078 C 
BRANCH  22  23
HETATM   23  C   UNL     1      -1.550   6.446 -34.253  1.00  0.00     0.269 C 
BRANCH  23  24
HETATM   24  O   UNL     1      -1.231   7.647 -33.551  1.00  0.00    -0.337 OA
BRANCH  24  25
HETATM   25  C   UNL     1      -1.030   7.564 -32.198  1.00  0.00     0.103 A 
HETATM   26  C   UNL     1      -1.879   8.300 -31.353  1.00  0.00     0.101 A 
HETATM   27  C   UNL     1      -1.639   8.323 -29.973  1.00  0.00     0.039 A 
HETATM   28  C   UNL     1      -0.583   7.603 -29.419  1.00  0.00     0.003 A 
HETATM   29  C   UNL     1       0.254   6.865 -30.248  1.00  0.00     0.003 A 
HETATM   30  C   UNL     1       0.038   6.854 -31.630  1.00  0.00     0.040 A 
BRANCH  26  31
HETATM   31  O   UNL     1      -2.949   9.074 -31.729  1.00  0.00    -0.353 OA
HETATM   32  C   UNL     1      -4.094   9.024 -30.888  1.00  0.00     0.210 C 
ENDBRANCH  26  31
ENDBRANCH  24  25
ENDBRANCH  23  24
ENDBRANCH  22  23
ENDBRANCH  21  22
ENDBRANCH  20  21
ENDBRANCH   1  20
TORSDOF 9
ENDMDL
MODEL 3
REMARK VINA RESULT:      -8.4      1.186      1.948
REMARK  9 active torsions:
REMARK  status: ('A' for Active; 'I' for Inactive)
REMARK    1  A    between atoms: O_2  and  C_3 
REMARK    2  A    between atoms: C_4  and  O_5 
REMARK    3  A    between atoms: O_5  and  C_6 
REMARK    4  A    between atoms: C_6  and  C_7 
REMARK    5  A    between atoms: C_7  and  C_8 
REMARK    6  A    between atoms: C_8  and  C_9 
REMARK    7  A    between atoms: C_9  and  N_10 
REMARK       I    between atoms: N_10  and  C_11 
REMARK    8  A    between atoms: C_11  and  C_12 
REMARK    9  A    between atoms: C_16  and  C_17 
ROOT
HETATM    1  N   UNL     1      -2.037   4.545 -31.166  1.00  0.00    -0.345 N 
HETATM    2  C   UNL     1      -1.070   5.501 -31.340  1.00  0.00     0.270 C 
HETATM    3  O   UNL     1      -0.740   5.911 -32.448  1.00  0.00    -0.266 OA
HETATM    4  H   UNL     1      -2.210   4.161 -30.251  1.00  0.00     0.163 HD
ENDROOT
BRANCH   2   5
HETATM    5  C   UNL     1      -0.460   5.987 -30.132  1.00  0.00     0.120 A 
HETATM    6  N   UNL     1       0.105   5.139 -29.223  1.00  0.00    -0.272 N 
HETATM    7  H   UNL     1       0.157   4.126 -29.289  1.00  0.00     0.189 HD
HETATM    8  N   UNL     1       0.632   5.749 -28.152  1.00  0.00    -0.174 NA
HETATM    9  C   UNL     1       0.416   7.058 -28.362  1.00  0.00     0.089 A 
HETATM   10  C   UNL     1      -0.271   7.246 -29.595  1.00  0.00     0.071 A 
BRANCH   9  11
HETATM   11  C   UNL     1       0.866   8.075 -27.401  1.00  0.00    -0.003 A 
HETATM   12  C   UNL     1       1.795   7.760 -26.395  1.00  0.00     0.053 A 
HETATM   13  C   UNL     1       2.176   8.758 -25.519  1.00  0.00     0.106 A 
HETATM   14  C   UNL     1       1.678  10.036 -25.606  1.00  0.00     0.105 A 
HETATM   15  O   UNL     1       3.060   8.615 -24.495  1.00  0.00    -0.323 OA
HETATM   16  O   UNL     1       2.183  10.857 -24.649  1.00  0.00    -0.323 OA
HETATM   17  C   UNL     1       0.768  10.389 -26.576  1.00  0.00     0.040 A 
HETATM   18  C   UNL     1       3.057   9.951 -23.946  1.00  0.00     0.352 A 
HETATM   19  C   UNL     1       0.363   9.397 -27.478  1.00  0.00     0.017 A 
ENDBRANCH   9  11
ENDBRANCH   2   5
BRANCH   1  20
HETATM   20  C   UNL     1      -2.681   3.938 -32.300  1.00  0.00     0.217 C 
BRANCH  20  21
HETATM   21  C   UNL     1      -3.294   2.614 -31.875  1.00  0.00    -0.085 C 
BRANCH  21  22
HETATM   22  C   UNL     1      -3.820   1.478 -31.511  1.00  0.00    -0.078 C 
BRANCH  22  23
HETATM   23  C   UNL     1      -4.434   0.153 -31.087  1.00  0.00     0.269 C 
BRANCH  23  24
HETATM   24  O   UNL     1      -5.641  -0.095 -31.808  1.00  0.00    -0.337 OA
BRANCH  24  25
HETATM   25  C   UNL     1      -5.591  -0.978 -32.855  1.00  0.00     0.103 A 
HETATM   26  C   UNL     1      -6.776  -1.230 -33.569  1.00  0.00     0.101 A 
HETATM   27  C   UNL     1      -6.788  -2.204 -34.577  1.00  0.00     0.039 A 
HETATM   28  C   UNL     1      -5.632  -2.911 -34.901  1.00  0.00     0.003 A 
HETATM   29  C   UNL     1      -4.456  -2.660 -34.205  1.00  0.00     0.003 A 
HETATM   30  C   UNL     1      -4.438  -1.707 -33.181  1.00  0.00     0.040 A 
BRANCH  26  31
HETATM   31  O   UNL     1      -7.999  -0.641 -33.372  1.00  0.00    -0.353 OA
HETATM   32  C   UNL     1      -8.320   0.455 -34.219  1.00  0.00     0.210 C 
ENDBRANCH  26  31
ENDBRANCH  24  25
ENDBRANCH  23  24
ENDBRANCH  22  23
ENDBRANCH  21  22
ENDBRANCH  20  21
ENDBRANCH   1  20
TORSDOF 9
ENDMDL
MODEL 4
REMARK VINA RESULT:      -8.3      4.054     11.710
REMARK  9 active torsions:
REMARK  status: ('A' for Active; 'I' for Inactive)
REMARK    1  A    between atoms: O_2  and  C_3 
REMARK    2  A    between atoms: C_4  and  O_5 
REMARK    3  A    between atoms: O_5  and  C_6 
REMARK    4  A    between atoms: C_6  and  C_7 
REMARK    5  A    between atoms: C_7  and  C_8 
REMARK    6  A    between atoms: C_8  and  C_9 
REMARK    7  A    between atoms: C_9  and  N_10 
REMARK       I    between atoms: N_10  and  C_11 
REMARK    8  A    between atoms: C_11  and  C_12 
REMARK    9  A    between atoms: C_16  and  C_17 
ROOT
HETATM    1  N   UNL     1      -6.778   4.839 -31.989  1.00  0.00    -0.345 N 
HETATM    2  C   UNL     1      -6.698   4.234 -33.216  1.00  0.00     0.270 C 
HETATM    3  O   UNL     1      -7.066   4.786 -34.248  1.00  0.00    -0.266 OA
HETATM    4  H   UNL     1      -6.562   4.319 -31.153  1.00  0.00     0.163 HD
ENDROOT
BRANCH   2   5
HETATM    5  C   UNL     1      -6.158   2.901 -33.212  1.00  0.00     0.120 A 
HETATM    6  N   UNL     1      -5.051   2.579 -32.480  1.00  0.00    -0.272 N 
HETATM    7  H   UNL     1      -4.511   3.205 -31.888  1.00  0.00     0.189 HD
HETATM    8  N   UNL     1      -4.677   1.296 -32.582  1.00  0.00    -0.174 NA
HETATM    9  C   UNL     1      -5.576   0.740 -33.409  1.00  0.00     0.089 A 
HETATM   10  C   UNL     1      -6.522   1.719 -33.828  1.00  0.00     0.071 A 
BRANCH   9  11
HETATM   11  C   UNL     1      -5.515  -0.684 -33.767  1.00  0.00    -0.003 A 
HETATM   12  C   UNL     1      -4.462  -1.499 -33.319  1.00  0.00     0.053 A 
HETATM   13  C   UNL     1      -4.457  -2.828 -33.693  1.00  0.00     0.106 A 
HETATM   14  C   UNL     1      -5.444  -3.369 -34.481  1.00  0.00     0.105 A 
HETATM   15  O   UNL     1      -3.512  -3.743 -33.345  1.00  0.00    -0.323 OA
HETATM   16  O   UNL     1      -5.246  -4.690 -34.730  1.00  0.00    -0.323 OA
HETATM   17  C   UNL     1      -6.494  -2.609 -34.942  1.00  0.00     0.040 A 
HETATM   18  C   UNL     1      -4.019  -4.922 -34.008  1.00  0.00     0.352 A 
HETATM   19  C   UNL     1      -6.525  -1.257 -34.578  1.00  0.00     0.017 A 
ENDBRANCH   9  11
ENDBRANCH   2   5
BRANCH   1  20
HETATM   20  C   UNL     1      -7.353   6.150 -31.853  1.00  0.00     0.217 C 
BRANCH  20  21
HETATM   21  C   UNL     1      -6.265   7.132 -31.449  1.00  0.00    -0.085 C 
BRANCH  21  22
HETATM   22  C   UNL     1      -5.332   7.974 -31.103  1.00  0.00    -0.078 C 
BRANCH  22  23
HETATM   23  C   UNL     1      -4.244   8.957 -30.699  1.00  0.00     0.269 C 
BRANCH  23  24
HETATM   24  O   UNL     1      -3.182   8.949 -31.652  1.00  0.00    -0.337 OA
BRANCH  24  25
HETATM   25  C   UNL     1      -2.021   8.305 -31.313  1.00  0.00     0.103 A 
HETATM   26  C   UNL     1      -1.271   7.702 -32.339  1.00  0.00     0.101 A 
HETATM   27  C   UNL     1      -0.136   6.946 -32.018  1.00  0.00     0.039 A 
HETATM   28  C   UNL     1       0.279   6.804 -30.696  1.00  0.00     0.003 A 
HETATM   29  C   UNL     1      -0.452   7.406 -29.679  1.00  0.00     0.003 A 
HETATM   30  C   UNL     1      -1.601   8.143 -29.984  1.00  0.00     0.040 A 
BRANCH  26  31
HETATM   31  O   UNL     1      -1.543   7.726 -33.683  1.00  0.00    -0.353 OA
HETATM   32  C   UNL     1      -2.325   6.653 -34.192  1.00  0.00     0.210 C 
ENDBRANCH  26  31
ENDBRANCH  24  25
ENDBRANCH  23  24
ENDBRANCH  22  23
ENDBRANCH  21  22
ENDBRANCH  20  21
ENDBRANCH   1  20
TORSDOF 9
ENDMDL
MODEL 5
REMARK VINA RESULT:      -8.2      4.476     11.226
REMARK  9 active torsions:
REMARK  status: ('A' for Active; 'I' for Inactive)
REMARK    1  A    between atoms: O_2  and  C_3 
REMARK    2  A    between atoms: C_4  and  O_5 
REMARK    3  A    between atoms: O_5  and  C_6 
REMARK    4  A    between atoms: C_6  and  C_7 
REMARK    5  A    between atoms: C_7  and  C_8 
REMARK    6  A    between atoms: C_8  and  C_9 
REMARK    7  A    between atoms: C_9  and  N_10 
REMARK       I    between atoms: N_10  and  C_11 
REMARK    8  A    between atoms: C_11  and  C_12 
REMARK    9  A    between atoms: C_16  and  C_17 
ROOT
HETATM    1  N   UNL     1      -6.548   3.467 -30.758  1.00  0.00    -0.345 N 
HETATM    2  C   UNL     1      -7.168   3.409 -31.978  1.00  0.00     0.270 C 
HETATM    3  O   UNL     1      -7.922   4.291 -32.377  1.00  0.00    -0.266 OA
HETATM    4  H   UNL     1      -6.017   2.679 -30.422  1.00  0.00     0.163 HD
ENDROOT
BRANCH   2   5
HETATM    5  C   UNL     1      -6.882   2.236 -32.761  1.00  0.00     0.120 A 
HETATM    6  N   UNL     1      -6.988   2.241 -34.122  1.00  0.00    -0.272 N 
HETATM    7  H   UNL     1      -7.265   3.024 -34.707  1.00  0.00     0.189 HD
HETATM    8  N   UNL     1      -6.684   1.071 -34.703  1.00  0.00    -0.174 NA
HETATM    9  C   UNL     1      -6.355   0.259 -33.686  1.00  0.00     0.089 A 
HETATM   10  C   UNL     1      -6.470   0.955 -32.449  1.00  0.00     0.071 A 
BRANCH   9  11
HETATM   11  C   UNL     1      -5.942  -1.133 -33.916  1.00  0.00    -0.003 A 
HETATM   12  C   UNL     1      -4.780  -1.652 -33.319  1.00  0.00     0.053 A 
HETATM   13  C   UNL     1      -4.442  -2.966 -33.577  1.00  0.00     0.106 A 
HETATM   14  C   UNL     1      -5.203  -3.770 -34.392  1.00  0.00     0.105 A 
HETATM   15  O   UNL     1      -3.354  -3.613 -33.079  1.00  0.00    -0.323 OA
HETATM   16  O   UNL     1      -4.691  -5.023 -34.511  1.00  0.00    -0.323 OA
HETATM   17  C   UNL     1      -6.347  -3.305 -34.996  1.00  0.00     0.040 A 
HETATM   18  C   UNL     1      -3.518  -4.917 -33.678  1.00  0.00     0.352 A 
HETATM   19  C   UNL     1      -6.715  -1.976 -34.753  1.00  0.00     0.017 A 
ENDBRANCH   9  11
ENDBRANCH   2   5
BRANCH   1  20
HETATM   20  C   UNL     1      -6.798   4.561 -29.858  1.00  0.00     0.217 C 
BRANCH  20  21
HETATM   21  C   UNL     1      -5.562   5.444 -29.792  1.00  0.00    -0.085 C 
BRANCH  21  22
HETATM   22  C   UNL     1      -4.502   6.201 -29.734  1.00  0.00    -0.078 C 
BRANCH  22  23
HETATM   23  C   UNL     1      -3.265   7.083 -29.668  1.00  0.00     0.269 C 
BRANCH  23  24
HETATM   24  O   UNL     1      -2.129   6.395 -30.191  1.00  0.00    -0.337 OA
BRANCH  24  25
HETATM   25  C   UNL     1      -2.018   6.284 -31.552  1.00  0.00     0.103 A 
HETATM   26  C   UNL     1      -1.988   4.995 -32.114  1.00  0.00     0.101 A 
HETATM   27  C   UNL     1      -1.770   4.840 -33.489  1.00  0.00     0.039 A 
HETATM   28  C   UNL     1      -1.610   5.949 -34.317  1.00  0.00     0.003 A 
HETATM   29  C   UNL     1      -1.649   7.226 -33.770  1.00  0.00     0.003 A 
HETATM   30  C   UNL     1      -1.841   7.392 -32.395  1.00  0.00     0.040 A 
BRANCH  26  31
HETATM   31  O   UNL     1      -2.112   3.802 -31.448  1.00  0.00    -0.353 OA
HETATM   32  C   UNL     1      -3.181   2.957 -31.853  1.00  0.00     0.210 C 
ENDBRANCH  26  31
ENDBRANCH  24  25
ENDBRANCH  23  24
ENDBRANCH  22  23
ENDBRANCH  21  22
ENDBRANCH  20  21
ENDBRANCH   1  20
TORSDOF 9
ENDMDL
MODEL 6
REMARK VINA RESULT:      -8.1      1.817      2.802
REMARK  9 active torsions:
REMARK  status: ('A' for Active; 'I' for Inactive)
REMARK    1  A    between atoms: O_2  and  C_3 
REMARK    2  A    between atoms: C_4  and  O_5 
REMARK    3  A    between atoms: O_5  and  C_6 
REMARK    4  A    between atoms: C_6  and  C_7 
REMARK    5  A    between atoms: C_7  and  C_8 
REMARK    6  A    between atoms: C_8  and  C_9 
REMARK    7  A    between atoms: C_9  and  N_10 
REMARK       I    between atoms: N_10  and  C_11 
REMARK    8  A    between atoms: C_11  and  C_12 
REMARK    9  A    between atoms: C_16  and  C_17 
ROOT
HETATM    1  N   UNL     1      -2.425   4.194 -31.296  1.00  0.00    -0.345 N 
HETATM    2  C   UNL     1      -1.340   5.009 -31.484  1.00  0.00     0.270 C 
HETATM    3  O   UNL     1      -0.928   5.311 -32.599  1.00  0.00    -0.266 OA
HETATM    4  H   UNL     1      -2.674   3.887 -30.369  1.00  0.00     0.163 HD
ENDROOT
BRANCH   2   5
HETATM    5  C   UNL     1      -0.709   5.483 -30.282  1.00  0.00     0.120 A 
HETATM    6  N   UNL     1       0.282   4.773 -29.666  1.00  0.00    -0.272 N 
HETATM    7  H   UNL     1       0.666   3.881 -29.966  1.00  0.00     0.189 HD
HETATM    8  N   UNL     1       0.767   5.351 -28.558  1.00  0.00    -0.174 NA
HETATM    9  C   UNL     1       0.076   6.495 -28.437  1.00  0.00     0.089 A 
HETATM   10  C   UNL     1      -0.864   6.612 -29.501  1.00  0.00     0.071 A 
BRANCH   9  11
HETATM   11  C   UNL     1       0.329   7.433 -27.334  1.00  0.00    -0.003 A 
HETATM   12  C   UNL     1      -0.731   7.970 -26.584  1.00  0.00     0.053 A 
HETATM   13  C   UNL     1      -0.431   8.850 -25.562  1.00  0.00     0.106 A 
HETATM   14  C   UNL     1       0.862   9.208 -25.263  1.00  0.00     0.105 A 
HETATM   15  O   UNL     1      -1.338   9.455 -24.749  1.00  0.00    -0.323 OA
HETATM   16  O   UNL     1       0.932  10.083 -24.225  1.00  0.00    -0.323 OA
HETATM   17  C   UNL     1       1.930   8.706 -25.969  1.00  0.00     0.040 A 
HETATM   18  C   UNL     1      -0.466  10.238 -23.905  1.00  0.00     0.352 A 
HETATM   19  C   UNL     1       1.655   7.812 -27.011  1.00  0.00     0.017 A 
ENDBRANCH   9  11
ENDBRANCH   2   5
BRANCH   1  20
HETATM   20  C   UNL     1      -3.108   3.610 -32.419  1.00  0.00     0.217 C 
BRANCH  20  21
HETATM   21  C   UNL     1      -3.445   2.163 -32.100  1.00  0.00    -0.085 C 
BRANCH  21  22
HETATM   22  C   UNL     1      -3.735   0.921 -31.826  1.00  0.00    -0.078 C 
BRANCH  22  23
HETATM   23  C   UNL     1      -4.072  -0.527 -31.507  1.00  0.00     0.269 C 
BRANCH  23  24
HETATM   24  O   UNL     1      -5.486  -0.721 -31.495  1.00  0.00    -0.337 OA
BRANCH  24  25
HETATM   25  C   UNL     1      -6.173  -0.507 -32.661  1.00  0.00     0.103 A 
HETATM   26  C   UNL     1      -7.260   0.384 -32.639  1.00  0.00     0.101 A 
HETATM   27  C   UNL     1      -8.049   0.547 -33.785  1.00  0.00     0.039 A 
HETATM   28  C   UNL     1      -7.756  -0.141 -34.960  1.00  0.00     0.003 A 
HETATM   29  C   UNL     1      -6.676  -1.016 -34.991  1.00  0.00     0.003 A 
HETATM   30  C   UNL     1      -5.896  -1.206 -33.846  1.00  0.00     0.040 A 
BRANCH  26  31
HETATM   31  O   UNL     1      -7.698   1.125 -31.571  1.00  0.00    -0.353 OA
HETATM   32  C   UNL     1      -7.170   2.440 -31.452  1.00  0.00     0.210 C 
ENDBRANCH  26  31
ENDBRANCH  24  25
ENDBRANCH  23  24
ENDBRANCH  22  23
ENDBRANCH  21  22
ENDBRANCH  20  21
ENDBRANCH   1  20
TORSDOF 9
ENDMDL
MODEL 7
REMARK VINA RESULT:      -7.9      1.953      2.638
REMARK  9 active torsions:
REMARK  status: ('A' for Active; 'I' for Inactive)
REMARK    1  A    between atoms: O_2  and  C_3 
REMARK    2  A    between atoms: C_4  and  O_5 
REMARK    3  A    between atoms: O_5  and  C_6 
REMARK    4  A    between atoms: C_6  and  C_7 
REMARK    5  A    between atoms: C_7  and  C_8 
REMARK    6  A    between atoms: C_8  and  C_9 
REMARK    7  A    between atoms: C_9  and  N_10 
REMARK       I    between atoms: N_10  and  C_11 
REMARK    8  A    between atoms: C_11  and  C_12 
REMARK    9  A    between atoms: C_16  and  C_17 
ROOT
HETATM    1  N   UNL     1      -2.878   6.022 -33.325  1.00  0.00    -0.345 N 
HETATM    2  C   UNL     1      -1.900   6.981 -33.289  1.00  0.00     0.270 C 
HETATM    3  O   UNL     1      -1.621   7.675 -34.261  1.00  0.00    -0.266 OA
HETATM    4  H   UNL     1      -3.011   5.404 -32.540  1.00  0.00     0.163 HD
ENDROOT
BRANCH   2   5
HETATM    5  C   UNL     1      -1.215   7.115 -32.031  1.00  0.00     0.120 A 
HETATM    6  N   UNL     1      -0.083   6.403 -31.754  1.00  0.00    -0.272 N 
HETATM    7  H   UNL     1       0.380   5.736 -32.365  1.00  0.00     0.189 HD
HETATM    8  N   UNL     1       0.436   6.644 -30.541  1.00  0.00    -0.174 NA
HETATM    9  C   UNL     1      -0.380   7.558 -29.993  1.00  0.00     0.089 A 
HETATM   10  C   UNL     1      -1.432   7.877 -30.900  1.00  0.00     0.071 A 
BRANCH   9  11
HETATM   11  C   UNL     1      -0.138   8.097 -28.648  1.00  0.00    -0.003 A 
HETATM   12  C   UNL     1       1.051   7.813 -27.957  1.00  0.00     0.053 A 
HETATM   13  C   UNL     1       1.219   8.345 -26.693  1.00  0.00     0.106 A 
HETATM   14  C   UNL     1       0.264   9.137 -26.102  1.00  0.00     0.105 A 
HETATM   15  O   UNL     1       2.307   8.164 -25.898  1.00  0.00    -0.323 OA
HETATM   16  O   UNL     1       0.629   9.553 -24.861  1.00  0.00    -0.323 OA
HETATM   17  C   UNL     1      -0.914   9.443 -26.742  1.00  0.00     0.040 A 
HETATM   18  C   UNL     1       1.925   8.931 -24.736  1.00  0.00     0.352 A 
HETATM   19  C   UNL     1      -1.112   8.916 -28.024  1.00  0.00     0.017 A 
ENDBRANCH   9  11
ENDBRANCH   2   5
BRANCH   1  20
HETATM   20  C   UNL     1      -3.597   5.752 -34.541  1.00  0.00     0.217 C 
BRANCH  20  21
HETATM   21  C   UNL     1      -4.643   4.682 -34.276  1.00  0.00    -0.085 C 
BRANCH  21  22
HETATM   22  C   UNL     1      -5.540   3.764 -34.047  1.00  0.00    -0.078 C 
BRANCH  22  23
HETATM   23  C   UNL     1      -6.586   2.693 -33.780  1.00  0.00     0.269 C 
BRANCH  23  24
HETATM   24  O   UNL     1      -6.074   1.702 -32.890  1.00  0.00    -0.337 OA
BRANCH  24  25
HETATM   25  C   UNL     1      -5.977   0.415 -33.351  1.00  0.00     0.103 A 
HETATM   26  C   UNL     1      -4.756  -0.262 -33.184  1.00  0.00     0.101 A 
HETATM   27  C   UNL     1      -4.587  -1.539 -33.735  1.00  0.00     0.039 A 
HETATM   28  C   UNL     1      -5.624  -2.163 -34.425  1.00  0.00     0.003 A 
HETATM   29  C   UNL     1      -6.837  -1.503 -34.585  1.00  0.00     0.003 A 
HETATM   30  C   UNL     1      -7.010  -0.219 -34.060  1.00  0.00     0.040 A 
BRANCH  26  31
HETATM   31  O   UNL     1      -3.633   0.207 -32.552  1.00  0.00    -0.353 OA
HETATM   32  C   UNL     1      -3.507  -0.101 -31.169  1.00  0.00     0.210 C 
ENDBRANCH  26  31
ENDBRANCH  24  25
ENDBRANCH  23  24
ENDBRANCH  22  23
ENDBRANCH  21  22
ENDBRANCH  20  21
ENDBRANCH   1  20
TORSDOF 9
ENDMDL
MODEL 8
REMARK VINA RESULT:      -7.8      3.340     11.175
REMARK  9 active torsions:
REMARK  status: ('A' for Active; 'I' for Inactive)
REMARK    1  A    between atoms: O_2  and  C_3 
REMARK    2  A    between atoms: C_4  and  O_5 
REMARK    3  A    between atoms: O_5  and  C_6 
REMARK    4  A    between atoms: C_6  and  C_7 
REMARK    5  A    between atoms: C_7  and  C_8 
REMARK    6  A    between atoms: C_8  and  C_9 
REMARK    7  A    between atoms: C_9  and  N_10 
REMARK       I    between atoms: N_10  and  C_11 
REMARK    8  A    between atoms: C_11  and  C_12 
REMARK    9  A    between atoms: C_16  and  C_17 
ROOT
HETATM    1  N   UNL     1      -5.681   4.687 -28.400  1.00  0.00    -0.345 N 
HETATM    2  C   UNL     1      -6.001   4.420 -29.706  1.00  0.00     0.270 C 
HETATM    3  O   UNL     1      -6.373   5.292 -30.485  1.00  0.00    -0.266 OA
HETATM    4  H   UNL     1      -5.477   3.932 -27.764  1.00  0.00     0.163 HD
ENDROOT
BRANCH   2   5
HETATM    5  C   UNL     1      -5.879   3.043 -30.101  1.00  0.00     0.120 A 
HETATM    6  N   UNL     1      -6.390   2.031 -29.339  1.00  0.00    -0.272 N 
HETATM    7  H   UNL     1      -6.886   2.126 -28.457  1.00  0.00     0.189 HD
HETATM    8  N   UNL     1      -6.195   0.806 -29.847  1.00  0.00    -0.174 NA
HETATM    9  C   UNL     1      -5.535   1.012 -30.997  1.00  0.00     0.089 A 
HETATM   10  C   UNL     1      -5.315   2.406 -31.190  1.00  0.00     0.071 A 
BRANCH   9  11
HETATM   11  C   UNL     1      -5.142  -0.104 -31.869  1.00  0.00    -0.003 A 
HETATM   12  C   UNL     1      -5.969  -0.525 -32.924  1.00  0.00     0.053 A 
HETATM   13  C   UNL     1      -5.547  -1.582 -33.706  1.00  0.00     0.106 A 
HETATM   14  C   UNL     1      -4.354  -2.226 -33.482  1.00  0.00     0.105 A 
HETATM   15  O   UNL     1      -6.229  -2.107 -34.760  1.00  0.00    -0.323 OA
HETATM   16  O   UNL     1      -4.134  -3.236 -34.364  1.00  0.00    -0.323 OA
HETATM   17  C   UNL     1      -3.512  -1.848 -32.462  1.00  0.00     0.040 A 
HETATM   18  C   UNL     1      -5.327  -3.157 -35.170  1.00  0.00     0.352 A 
HETATM   19  C   UNL     1      -3.914  -0.778 -31.652  1.00  0.00     0.017 A 
ENDBRANCH   9  11
ENDBRANCH   2   5
BRANCH   1  20
HETATM   20  C   UNL     1      -5.817   6.016 -27.868  1.00  0.00     0.217 C 
BRANCH  20  21
HETATM   21  C   UNL     1      -4.436   6.624 -27.686  1.00  0.00    -0.085 C 
BRANCH  21  22
HETATM   22  C   UNL     1      -3.251   7.146 -27.531  1.00  0.00    -0.078 C 
BRANCH  22  23
HETATM   23  C   UNL     1      -1.870   7.755 -27.350  1.00  0.00     0.269 C 
BRANCH  23  24
HETATM   24  O   UNL     1      -1.329   8.157 -28.608  1.00  0.00    -0.337 OA
BRANCH  24  25
HETATM   25  C   UNL     1      -0.646   7.221 -29.340  1.00  0.00     0.103 A 
HETATM   26  C   UNL     1      -0.794   7.234 -30.739  1.00  0.00     0.101 A 
HETATM   27  C   UNL     1      -0.196   6.229 -31.511  1.00  0.00     0.039 A 
HETATM   28  C   UNL     1       0.569   5.229 -30.915  1.00  0.00     0.003 A 
HETATM   29  C   UNL     1       0.727   5.217 -29.534  1.00  0.00     0.003 A 
HETATM   30  C   UNL     1       0.115   6.200 -28.751  1.00  0.00     0.040 A 
BRANCH  26  31
HETATM   31  O   UNL     1      -1.520   8.129 -31.484  1.00  0.00    -0.353 OA
HETATM   32  C   UNL     1      -2.861   7.764 -31.783  1.00  0.00     0.210 C 
ENDBRANCH  26  31
ENDBRANCH  24  25
ENDBRANCH  23  24
ENDBRANCH  22  23
ENDBRANCH  21  22
ENDBRANCH  20  21
ENDBRANCH   1  20
TORSDOF 9
ENDMDL
MODEL 9
REMARK VINA RESULT:      -7.8      6.817     11.197
REMARK  9 active torsions:
REMARK  status: ('A' for Active; 'I' for Inactive)
REMARK    1  A    between atoms: O_2  and  C_3 
REMARK    2  A    between atoms: C_4  and  O_5 
REMARK    3  A    between atoms: O_5  and  C_6 
REMARK    4  A    between atoms: C_6  and  C_7 
REMARK    5  A    between atoms: C_7  and  C_8 
REMARK    6  A    between atoms: C_8  and  C_9 
REMARK    7  A    between atoms: C_9  and  N_10 
REMARK       I    between atoms: N_10  and  C_11 
REMARK    8  A    between atoms: C_11  and  C_12 
REMARK    9  A    between atoms: C_16  and  C_17 
ROOT
HETATM    1  N   UNL     1      -5.699   3.774 -32.633  1.00  0.00    -0.345 N 
HETATM    2  C   UNL     1      -6.284   4.425 -33.688  1.00  0.00     0.270 C 
HETATM    3  O   UNL     1      -5.630   4.986 -34.561  1.00  0.00    -0.266 OA
HETATM    4  H   UNL     1      -6.267   3.412 -31.883  1.00  0.00     0.163 HD
ENDROOT
BRANCH   2   5
HETATM    5  C   UNL     1      -7.722   4.412 -33.699  1.00  0.00     0.120 A 
HETATM    6  N   UNL     1      -8.446   5.518 -34.042  1.00  0.00    -0.272 N 
HETATM    7  H   UNL     1      -8.076   6.425 -34.312  1.00  0.00     0.189 HD
HETATM    8  N   UNL     1      -9.774   5.341 -34.005  1.00  0.00    -0.174 NA
HETATM    9  C   UNL     1      -9.940   4.063 -33.630  1.00  0.00     0.089 A 
HETATM   10  C   UNL     1      -8.672   3.447 -33.425  1.00  0.00     0.071 A 
BRANCH   9  11
HETATM   11  C   UNL     1     -11.278   3.472 -33.484  1.00  0.00    -0.003 A 
HETATM   12  C   UNL     1     -11.729   2.475 -34.365  1.00  0.00     0.053 A 
HETATM   13  C   UNL     1     -12.998   1.961 -34.180  1.00  0.00     0.106 A 
HETATM   14  C   UNL     1     -13.820   2.394 -33.167  1.00  0.00     0.105 A 
HETATM   15  O   UNL     1     -13.579   0.998 -34.943  1.00  0.00    -0.323 OA
HETATM   16  O   UNL     1     -15.021   1.759 -33.165  1.00  0.00    -0.323 OA
HETATM   17  C   UNL     1     -13.420   3.366 -32.281  1.00  0.00     0.040 A 
HETATM   18  C   UNL     1     -14.864   0.876 -34.295  1.00  0.00     0.352 A 
HETATM   19  C   UNL     1     -12.138   3.906 -32.445  1.00  0.00     0.017 A 
ENDBRANCH   9  11
ENDBRANCH   2   5
BRANCH   1  20
HETATM   20  C   UNL     1      -4.269   3.765 -32.478  1.00  0.00     0.217 C 
BRANCH  20  21
HETATM   21  C   UNL     1      -3.797   2.333 -32.288  1.00  0.00    -0.085 C 
BRANCH  21  22
HETATM   22  C   UNL     1      -3.393   1.104 -32.124  1.00  0.00    -0.078 C 
BRANCH  22  23
HETATM   23  C   UNL     1      -2.922  -0.329 -31.934  1.00  0.00     0.269 C 
BRANCH  23  24
HETATM   24  O   UNL     1      -4.034  -1.197 -31.713  1.00  0.00    -0.337 OA
BRANCH  24  25
HETATM   25  C   UNL     1      -4.927  -1.368 -32.737  1.00  0.00     0.103 A 
HETATM   26  C   UNL     1      -6.190  -0.761 -32.625  1.00  0.00     0.101 A 
HETATM   27  C   UNL     1      -7.166  -0.999 -33.602  1.00  0.00     0.039 A 
HETATM   28  C   UNL     1      -6.894  -1.810 -34.702  1.00  0.00     0.003 A 
HETATM   29  C   UNL     1      -5.644  -2.405 -34.823  1.00  0.00     0.003 A 
HETATM   30  C   UNL     1      -4.670  -2.194 -33.842  1.00  0.00     0.040 A 
BRANCH  26  31
HETATM   31  O   UNL     1      -6.630   0.048 -31.608  1.00  0.00    -0.353 OA
HETATM   32  C   UNL     1      -8.015   0.371 -31.608  1.00  0.00     0.210 C 
ENDBRANCH  26  31
ENDBRANCH  24  25
ENDBRANCH  23  24
ENDBRANCH  22  23
ENDBRANCH  21  22
ENDBRANCH  20  21
ENDBRANCH   1  20
TORSDOF 9
ENDMDL
MODEL 10
REMARK VINA RESULT:      -7.8      4.617     11.360
REMARK  9 active torsions:
REMARK  status: ('A' for Active; 'I' for Inactive)
REMARK    1  A    between atoms: O_2  and  C_3 
REMARK    2  A    between atoms: C_4  and  O_5 
REMARK    3  A    between atoms: O_5  and  C_6 
REMARK    4  A    between atoms: C_6  and  C_7 
REMARK    5  A    between atoms: C_7  and  C_8 
REMARK    6  A    between atoms: C_8  and  C_9 
REMARK    7  A    between atoms: C_9  and  N_10 
REMARK       I    between atoms: N_10  and  C_11 
REMARK    8  A    between atoms: C_11  and  C_12 
REMARK    9  A    between atoms: C_16  and  C_17 
ROOT
HETATM    1  N   UNL     1      -6.770   4.815 -32.307  1.00  0.00    -0.345 N 
HETATM    2  C   UNL     1      -7.537   3.974 -31.544  1.00  0.00     0.270 C 
HETATM    3  O   UNL     1      -8.302   4.384 -30.677  1.00  0.00    -0.266 OA
HETATM    4  H   UNL     1      -6.080   4.438 -32.938  1.00  0.00     0.163 HD
ENDROOT
BRANCH   2   5
HETATM    5  C   UNL     1      -7.379   2.572 -31.823  1.00  0.00     0.120 A 
HETATM    6  N   UNL     1      -8.163   1.629 -31.220  1.00  0.00    -0.272 N 
HETATM    7  H   UNL     1      -8.903   1.797 -30.545  1.00  0.00     0.189 HD
HETATM    8  N   UNL     1      -7.892   0.369 -31.590  1.00  0.00    -0.174 NA
HETATM    9  C   UNL     1      -6.894   0.479 -32.480  1.00  0.00     0.089 A 
HETATM   10  C   UNL     1      -6.542   1.849 -32.651  1.00  0.00     0.071 A 
BRANCH   9  11
HETATM   11  C   UNL     1      -6.315  -0.701 -33.137  1.00  0.00    -0.003 A 
HETATM   12  C   UNL     1      -7.133  -1.650 -33.772  1.00  0.00     0.053 A 
HETATM   13  C   UNL     1      -6.530  -2.741 -34.368  1.00  0.00     0.106 A 
HETATM   14  C   UNL     1      -5.168  -2.920 -34.356  1.00  0.00     0.105 A 
HETATM   15  O   UNL     1      -7.179  -3.744 -35.019  1.00  0.00    -0.323 OA
HETATM   16  O   UNL     1      -4.786  -4.056 -34.996  1.00  0.00    -0.323 OA
HETATM   17  C   UNL     1      -4.329  -2.016 -33.747  1.00  0.00     0.040 A 
HETATM   18  C   UNL     1      -6.066  -4.576 -35.413  1.00  0.00     0.352 A 
HETATM   19  C   UNL     1      -4.912  -0.900 -33.134  1.00  0.00     0.017 A 
ENDBRANCH   9  11
ENDBRANCH   2   5
BRANCH   1  20
HETATM   20  C   UNL     1      -6.795   6.235 -32.085  1.00  0.00     0.217 C 
BRANCH  20  21
HETATM   21  C   UNL     1      -5.555   6.640 -31.304  1.00  0.00    -0.085 C 
BRANCH  21  22
HETATM   22  C   UNL     1      -4.492   6.987 -30.634  1.00  0.00    -0.078 C 
BRANCH  22  23
HETATM   23  C   UNL     1      -3.251   7.393 -29.854  1.00  0.00     0.269 C 
BRANCH  23  24
HETATM   24  O   UNL     1      -2.123   6.622 -30.267  1.00  0.00    -0.337 OA
BRANCH  24  25
HETATM   25  C   UNL     1      -1.932   6.436 -31.611  1.00  0.00     0.103 A 
HETATM   26  C   UNL     1      -1.862   5.119 -32.097  1.00  0.00     0.101 A 
HETATM   27  C   UNL     1      -1.562   4.890 -33.447  1.00  0.00     0.039 A 
HETATM   28  C   UNL     1      -1.358   5.953 -34.324  1.00  0.00     0.003 A 
HETATM   29  C   UNL     1      -1.435   7.258 -33.851  1.00  0.00     0.003 A 
HETATM   30  C   UNL     1      -1.710   7.498 -32.501  1.00  0.00     0.040 A 
BRANCH  26  31
HETATM   31  O   UNL     1      -2.019   3.963 -31.375  1.00  0.00    -0.353 OA
HETATM   32  C   UNL     1      -3.265   3.293 -31.513  1.00  0.00     0.210 C 
ENDBRANCH  26  31
ENDBRANCH  24  25
ENDBRANCH  23  24
ENDBRANCH  22  23
ENDBRANCH  21  22
ENDBRANCH  20  21
ENDBRANCH   1  20
TORSDOF 9
ENDMDL
