MODEL 1
REMARK VINA RESULT:      -9.6      0.000      0.000
REMARK  5 active torsions:
REMARK  status: ('A' for Active; 'I' for Inactive)
REMARK    1  A    between atoms: C_2  and  O_4 
REMARK    2  A    between atoms: O_4  and  C_5 
REMARK    3  A    between atoms: C_10  and  C_11 
REMARK    4  A    between atoms: C_13  and  N_14 
REMARK    5  A    between atoms: N_14  and  C_15 
ROOT
HETATM    1  C   UNL     1      -9.777   1.510 -33.239  1.00  0.00     0.164 A 
HETATM    2  N   UNL     1      -8.798   0.999 -33.996  1.00  0.00    -0.215 NA
HETATM    3  C   UNL     1      -7.535   1.103 -33.548  1.00  0.00     0.122 A 
HETATM    4  C   UNL     1      -7.224   1.797 -32.362  1.00  0.00     0.033 A 
HETATM    5  C   UNL     1      -5.915   2.036 -31.863  1.00  0.00     0.017 A 
HETATM    6  C   UNL     1      -5.720   2.716 -30.663  1.00  0.00     0.001 A 
HETATM    7  C   UNL     1      -6.821   3.167 -29.948  1.00  0.00     0.002 A 
HETATM    8  C   UNL     1      -8.107   2.943 -30.446  1.00  0.00     0.032 A 
HETATM    9  C   UNL     1      -8.328   2.273 -31.643  1.00  0.00     0.072 A 
HETATM   10  N   UNL     1      -9.587   2.116 -32.056  1.00  0.00    -0.228 NA
ENDROOT
BRANCH   3  11
HETATM   11  N   UNL     1      -6.478   0.557 -34.338  1.00  0.00    -0.243 NA
HETATM   12  H   UNL     1      -5.687   1.194 -34.266  1.00  0.00     0.135 HD
BRANCH  11  13
HETATM   13  C   UNL     1      -5.943  -0.755 -34.210  1.00  0.00     0.015 A 
HETATM   14  C   UNL     1      -4.679  -0.999 -33.656  1.00  0.00     0.026 A 
HETATM   15  C   UNL     1      -4.118  -2.282 -33.619  1.00  0.00     0.034 A 
HETATM   16  C   UNL     1      -4.862  -3.313 -34.192  1.00  0.00     0.061 A 
HETATM   17  N   UNL     1      -4.615  -4.654 -34.316  1.00  0.00    -0.278 N 
HETATM   18  C   UNL     1      -6.100  -3.109 -34.788  1.00  0.00     0.013 A 
HETATM   19  H   UNL     1      -3.802  -5.164 -33.990  1.00  0.00     0.189 HD
HETATM   20  N   UNL     1      -5.585  -5.335 -34.953  1.00  0.00    -0.186 NA
HETATM   21  C   UNL     1      -6.489  -4.391 -35.236  1.00  0.00     0.152 A 
HETATM   22  C   UNL     1      -6.642  -1.812 -34.819  1.00  0.00     0.039 A 
ENDBRANCH  11  13
ENDBRANCH   3  11
BRANCH   1  23
HETATM   23  C   UNL     1     -11.163   1.357 -33.706  1.00  0.00     0.046 A 
HETATM   24  C   UNL     1     -11.810   2.315 -34.508  1.00  0.00     0.093 A 
HETATM   25  C   UNL     1     -13.139   2.164 -34.923  1.00  0.00     0.038 A 
HETATM   26  C   UNL     1     -13.844   1.017 -34.571  1.00  0.00     0.003 A 
HETATM   27  C   UNL     1     -13.231   0.042 -33.787  1.00  0.00     0.001 A 
HETATM   28  C   UNL     1     -11.910   0.215 -33.357  1.00  0.00     0.018 A 
BRANCH  24  29
HETATM   29  O   UNL     1     -11.160   3.524 -34.803  1.00  0.00    -0.278 OA
BRANCH  29  30
HETATM   30  C   UNL     1     -11.663   4.629 -34.123  1.00  0.00     0.260 C 
HETATM   31  C   UNL     1     -12.006   5.690 -35.126  1.00  0.00     0.126 C 
HETATM   32  O   UNL     1     -11.764   4.764 -32.910  1.00  0.00    -0.265 OA
ENDBRANCH  29  30
ENDBRANCH  24  29
ENDBRANCH   1  23
TORSDOF 5
ENDMDL
MODEL 2
REMARK VINA RESULT:      -9.4      4.020      7.188
REMARK  5 active torsions:
REMARK  status: ('A' for Active; 'I' for Inactive)
REMARK    1  A    between atoms: C_2  and  O_4 
REMARK    2  A    between atoms: O_4  and  C_5 
REMARK    3  A    between atoms: C_10  and  C_11 
REMARK    4  A    between atoms: C_13  and  N_14 
REMARK    5  A    between atoms: N_14  and  C_15 
ROOT
HETATM    1  C   UNL     1      -6.743   0.587 -33.475  1.00  0.00     0.164 A 
HETATM    2  N   UNL     1      -6.183   1.648 -34.069  1.00  0.00    -0.215 NA
HETATM    3  C   UNL     1      -6.595   2.871 -33.693  1.00  0.00     0.122 A 
HETATM    4  C   UNL     1      -7.641   3.049 -32.766  1.00  0.00     0.033 A 
HETATM    5  C   UNL     1      -8.203   4.296 -32.382  1.00  0.00     0.017 A 
HETATM    6  C   UNL     1      -9.222   4.360 -31.435  1.00  0.00     0.001 A 
HETATM    7  C   UNL     1      -9.695   3.189 -30.862  1.00  0.00     0.002 A 
HETATM    8  C   UNL     1      -9.152   1.961 -31.250  1.00  0.00     0.032 A 
HETATM    9  C   UNL     1      -8.139   1.870 -32.196  1.00  0.00     0.072 A 
HETATM   10  N   UNL     1      -7.687   0.657 -32.523  1.00  0.00    -0.228 NA
ENDROOT
BRANCH   3  11
HETATM   11  N   UNL     1      -6.004   4.016 -34.310  1.00  0.00    -0.243 NA
HETATM   12  H   UNL     1      -6.633   4.801 -34.154  1.00  0.00     0.135 HD
BRANCH  11  13
HETATM   13  C   UNL     1      -4.691   4.504 -34.061  1.00  0.00     0.015 A 
HETATM   14  C   UNL     1      -3.924   5.131 -35.053  1.00  0.00     0.026 A 
HETATM   15  C   UNL     1      -2.599   5.525 -34.829  1.00  0.00     0.034 A 
HETATM   16  C   UNL     1      -2.056   5.236 -33.578  1.00  0.00     0.061 A 
HETATM   17  N   UNL     1      -0.820   5.483 -33.041  1.00  0.00    -0.278 N 
HETATM   18  C   UNL     1      -2.766   4.579 -32.581  1.00  0.00     0.013 A 
HETATM   19  H   UNL     1      -0.039   5.952 -33.484  1.00  0.00     0.189 HD
HETATM   20  N   UNL     1      -0.668   5.031 -31.783  1.00  0.00    -0.186 NA
HETATM   21  C   UNL     1      -1.856   4.485 -31.506  1.00  0.00     0.152 A 
HETATM   22  C   UNL     1      -4.094   4.187 -32.828  1.00  0.00     0.039 A 
ENDBRANCH  11  13
ENDBRANCH   3  11
BRANCH   1  23
HETATM   23  C   UNL     1      -6.260  -0.750 -33.853  1.00  0.00     0.046 A 
HETATM   24  C   UNL     1      -4.922  -1.153 -33.694  1.00  0.00     0.093 A 
HETATM   25  C   UNL     1      -4.475  -2.422 -34.083  1.00  0.00     0.038 A 
HETATM   26  C   UNL     1      -5.381  -3.338 -34.611  1.00  0.00     0.003 A 
HETATM   27  C   UNL     1      -6.716  -2.977 -34.772  1.00  0.00     0.001 A 
HETATM   28  C   UNL     1      -7.147  -1.698 -34.403  1.00  0.00     0.018 A 
BRANCH  24  29
HETATM   29  O   UNL     1      -3.966  -0.225 -33.252  1.00  0.00    -0.278 OA
BRANCH  29  30
HETATM   30  C   UNL     1      -3.387  -0.535 -32.026  1.00  0.00     0.260 C 
HETATM   31  C   UNL     1      -4.220   0.074 -30.938  1.00  0.00     0.126 C 
HETATM   32  O   UNL     1      -2.342  -1.147 -31.838  1.00  0.00    -0.265 OA
ENDBRANCH  29  30
ENDBRANCH  24  29
ENDBRANCH   1  23
TORSDOF 5
ENDMDL
MODEL 3
REMARK VINA RESULT:      -9.3      3.133      7.163
REMARK  5 active torsions:
REMARK  status: ('A' for Active; 'I' for Inactive)
REMARK    1  A    between atoms: C_2  and  O_4 
REMARK    2  A    between atoms: O_4  and  C_5 
REMARK    3  A    between atoms: C_10  and  C_11 
REMARK    4  A    between atoms: C_13  and  N_14 
REMARK    5  A    between atoms: N_14  and  C_15 
ROOT
HETATM    1  C   UNL     1      -4.593  -0.351 -32.203  1.00  0.00     0.164 A 
HETATM    2  N   UNL     1      -5.868  -0.162 -31.841  1.00  0.00    -0.215 NA
HETATM    3  C   UNL     1      -6.250   1.082 -31.505  1.00  0.00     0.122 A 
HETATM    4  C   UNL     1      -5.332   2.150 -31.448  1.00  0.00     0.033 A 
HETATM    5  C   UNL     1      -5.625   3.471 -31.017  1.00  0.00     0.017 A 
HETATM    6  C   UNL     1      -4.645   4.461 -31.023  1.00  0.00     0.001 A 
HETATM    7  C   UNL     1      -3.365   4.148 -31.456  1.00  0.00     0.002 A 
HETATM    8  C   UNL     1      -3.073   2.845 -31.869  1.00  0.00     0.032 A 
HETATM    9  C   UNL     1      -4.031   1.840 -31.866  1.00  0.00     0.072 A 
HETATM   10  N   UNL     1      -3.666   0.618 -32.259  1.00  0.00    -0.228 NA
ENDROOT
BRANCH   3  11
HETATM   11  N   UNL     1      -7.608   1.306 -31.124  1.00  0.00    -0.243 NA
HETATM   12  H   UNL     1      -7.628   2.154 -30.560  1.00  0.00     0.135 HD
BRANCH  11  13
HETATM   13  C   UNL     1      -8.714   1.396 -32.015  1.00  0.00     0.015 A 
HETATM   14  C   UNL     1      -9.568   0.313 -32.261  1.00  0.00     0.026 A 
HETATM   15  C   UNL     1     -10.597   0.379 -33.209  1.00  0.00     0.034 A 
HETATM   16  C   UNL     1     -10.719   1.568 -33.929  1.00  0.00     0.061 A 
HETATM   17  N   UNL     1     -11.599   1.958 -34.902  1.00  0.00    -0.278 N 
HETATM   18  C   UNL     1      -9.868   2.651 -33.746  1.00  0.00     0.013 A 
HETATM   19  H   UNL     1     -12.367   1.421 -35.290  1.00  0.00     0.189 HD
HETATM   20  N   UNL     1     -11.383   3.200 -35.372  1.00  0.00    -0.186 NA
HETATM   21  C   UNL     1     -10.330   3.619 -34.664  1.00  0.00     0.152 A 
HETATM   22  C   UNL     1      -8.838   2.561 -32.793  1.00  0.00     0.039 A 
ENDBRANCH  11  13
ENDBRANCH   3  11
BRANCH   1  23
HETATM   23  C   UNL     1      -4.186  -1.703 -32.614  1.00  0.00     0.046 A 
HETATM   24  C   UNL     1      -4.492  -2.244 -33.876  1.00  0.00     0.093 A 
HETATM   25  C   UNL     1      -4.118  -3.543 -34.241  1.00  0.00     0.038 A 
HETATM   26  C   UNL     1      -3.387  -4.324 -33.350  1.00  0.00     0.003 A 
HETATM   27  C   UNL     1      -3.056  -3.817 -32.096  1.00  0.00     0.001 A 
HETATM   28  C   UNL     1      -3.456  -2.526 -31.732  1.00  0.00     0.018 A 
BRANCH  24  29
HETATM   29  O   UNL     1      -5.307  -1.519 -34.761  1.00  0.00    -0.278 OA
BRANCH  29  30
HETATM   30  C   UNL     1      -6.665  -1.799 -34.653  1.00  0.00     0.260 C 
HETATM   31  C   UNL     1      -7.437  -0.578 -35.057  1.00  0.00     0.126 C 
HETATM   32  O   UNL     1      -7.174  -2.836 -34.243  1.00  0.00    -0.265 OA
ENDBRANCH  29  30
ENDBRANCH  24  29
ENDBRANCH   1  23
TORSDOF 5
ENDMDL
MODEL 4
REMARK VINA RESULT:      -9.2      4.267      8.159
REMARK  5 active torsions:
REMARK  status: ('A' for Active; 'I' for Inactive)
REMARK    1  A    between atoms: C_2  and  O_4 
REMARK    2  A    between atoms: O_4  and  C_5 
REMARK    3  A    between atoms: C_10  and  C_11 
REMARK    4  A    between atoms: C_13  and  N_14 
REMARK    5  A    between atoms: N_14  and  C_15 
ROOT
HETATM    1  C   UNL     1      -4.394  -0.286 -31.964  1.00  0.00     0.164 A 
HETATM    2  N   UNL     1      -3.400   0.602 -31.840  1.00  0.00    -0.215 NA
HETATM    3  C   UNL     1      -3.694   1.813 -31.337  1.00  0.00     0.122 A 
HETATM    4  C   UNL     1      -5.017   2.183 -31.021  1.00  0.00     0.033 A 
HETATM    5  C   UNL     1      -5.433   3.465 -30.574  1.00  0.00     0.017 A 
HETATM    6  C   UNL     1      -6.767   3.718 -30.266  1.00  0.00     0.001 A 
HETATM    7  C   UNL     1      -7.702   2.702 -30.401  1.00  0.00     0.002 A 
HETATM    8  C   UNL     1      -7.295   1.444 -30.853  1.00  0.00     0.032 A 
HETATM    9  C   UNL     1      -5.971   1.168 -31.172  1.00  0.00     0.072 A 
HETATM   10  N   UNL     1      -5.669  -0.054 -31.614  1.00  0.00    -0.228 NA
ENDROOT
BRANCH   3  11
HETATM   11  N   UNL     1      -2.646   2.771 -31.190  1.00  0.00    -0.243 NA
HETATM   12  H   UNL     1      -1.764   2.271 -31.287  1.00  0.00     0.135 HD
BRANCH  11  13
HETATM   13  C   UNL     1      -2.507   3.969 -31.946  1.00  0.00     0.015 A 
HETATM   14  C   UNL     1      -2.448   3.969 -33.346  1.00  0.00     0.026 A 
HETATM   15  C   UNL     1      -2.219   5.140 -34.080  1.00  0.00     0.034 A 
HETATM   16  C   UNL     1      -2.016   6.313 -33.353  1.00  0.00     0.061 A 
HETATM   17  N   UNL     1      -1.777   7.601 -33.749  1.00  0.00    -0.278 N 
HETATM   18  C   UNL     1      -2.024   6.350 -31.964  1.00  0.00     0.013 A 
HETATM   19  H   UNL     1      -1.706   7.951 -34.698  1.00  0.00     0.189 HD
HETATM   20  N   UNL     1      -1.620   8.468 -32.732  1.00  0.00    -0.186 NA
HETATM   21  C   UNL     1      -1.775   7.703 -31.648  1.00  0.00     0.152 A 
HETATM   22  C   UNL     1      -2.252   5.162 -31.246  1.00  0.00     0.039 A 
ENDBRANCH  11  13
ENDBRANCH   3  11
BRANCH   1  23
HETATM   23  C   UNL     1      -4.064  -1.625 -32.472  1.00  0.00     0.046 A 
HETATM   24  C   UNL     1      -4.488  -2.092 -33.730  1.00  0.00     0.093 A 
HETATM   25  C   UNL     1      -4.185  -3.381 -34.187  1.00  0.00     0.038 A 
HETATM   26  C   UNL     1      -3.409  -4.226 -33.399  1.00  0.00     0.003 A 
HETATM   27  C   UNL     1      -2.962  -3.793 -32.153  1.00  0.00     0.001 A 
HETATM   28  C   UNL     1      -3.292  -2.512 -31.695  1.00  0.00     0.018 A 
BRANCH  24  29
HETATM   29  O   UNL     1      -5.349  -1.302 -34.508  1.00  0.00    -0.278 OA
BRANCH  29  30
HETATM   30  C   UNL     1      -6.655  -1.774 -34.582  1.00  0.00     0.260 C 
HETATM   31  C   UNL     1      -7.589  -0.638 -34.287  1.00  0.00     0.126 C 
HETATM   32  O   UNL     1      -7.011  -2.927 -34.791  1.00  0.00    -0.265 OA
ENDBRANCH  29  30
ENDBRANCH  24  29
ENDBRANCH   1  23
TORSDOF 5
ENDMDL
MODEL 5
REMARK VINA RESULT:      -9.2      3.071      7.262
REMARK  5 active torsions:
REMARK  status: ('A' for Active; 'I' for Inactive)
REMARK    1  A    between atoms: C_2  and  O_4 
REMARK    2  A    between atoms: O_4  and  C_5 
REMARK    3  A    between atoms: C_10  and  C_11 
REMARK    4  A    between atoms: C_13  and  N_14 
REMARK    5  A    between atoms: N_14  and  C_15 
ROOT
HETATM    1  C   UNL     1      -6.872  -0.336 -33.318  1.00  0.00     0.164 A 
HETATM    2  N   UNL     1      -7.681   0.366 -34.121  1.00  0.00    -0.215 NA
HETATM    3  C   UNL     1      -8.140   1.548 -33.676  1.00  0.00     0.122 A 
HETATM    4  C   UNL     1      -7.857   2.012 -32.377  1.00  0.00     0.033 A 
HETATM    5  C   UNL     1      -8.373   3.200 -31.791  1.00  0.00     0.017 A 
HETATM    6  C   UNL     1      -8.008   3.579 -30.501  1.00  0.00     0.001 A 
HETATM    7  C   UNL     1      -7.131   2.783 -29.780  1.00  0.00     0.002 A 
HETATM    8  C   UNL     1      -6.634   1.608 -30.351  1.00  0.00     0.032 A 
HETATM    9  C   UNL     1      -6.986   1.205 -31.633  1.00  0.00     0.072 A 
HETATM   10  N   UNL     1      -6.481   0.061 -32.097  1.00  0.00    -0.228 NA
ENDROOT
BRANCH   3  11
HETATM   11  N   UNL     1      -8.998   2.316 -34.522  1.00  0.00    -0.243 NA
HETATM   12  H   UNL     1      -8.677   2.183 -35.479  1.00  0.00     0.135 HD
BRANCH  11  13
HETATM   13  C   UNL     1     -10.417   2.223 -34.564  1.00  0.00     0.015 A 
HETATM   14  C   UNL     1     -11.229   3.311 -34.913  1.00  0.00     0.026 A 
HETATM   15  C   UNL     1     -12.628   3.241 -34.862  1.00  0.00     0.034 A 
HETATM   16  C   UNL     1     -13.185   2.044 -34.413  1.00  0.00     0.061 A 
HETATM   17  N   UNL     1     -14.486   1.648 -34.252  1.00  0.00    -0.278 N 
HETATM   18  C   UNL     1     -12.417   0.956 -34.018  1.00  0.00     0.013 A 
HETATM   19  H   UNL     1     -15.323   2.186 -34.446  1.00  0.00     0.189 HD
HETATM   20  N   UNL     1     -14.624   0.397 -33.775  1.00  0.00    -0.186 NA
HETATM   21  C   UNL     1     -13.363  -0.021 -33.638  1.00  0.00     0.152 A 
HETATM   22  C   UNL     1     -11.015   1.049 -34.072  1.00  0.00     0.039 A 
ENDBRANCH  11  13
ENDBRANCH   3  11
BRANCH   1  23
HETATM   23  C   UNL     1      -6.334  -1.608 -33.822  1.00  0.00     0.046 A 
HETATM   24  C   UNL     1      -4.962  -1.919 -33.804  1.00  0.00     0.093 A 
HETATM   25  C   UNL     1      -4.465  -3.126 -34.312  1.00  0.00     0.038 A 
HETATM   26  C   UNL     1      -5.348  -4.074 -34.819  1.00  0.00     0.003 A 
HETATM   27  C   UNL     1      -6.714  -3.806 -34.842  1.00  0.00     0.001 A 
HETATM   28  C   UNL     1      -7.198  -2.586 -34.355  1.00  0.00     0.018 A 
BRANCH  24  29
HETATM   29  O   UNL     1      -4.037  -0.948 -33.386  1.00  0.00    -0.278 OA
BRANCH  29  30
HETATM   30  C   UNL     1      -3.374  -1.258 -32.203  1.00  0.00     0.260 C 
HETATM   31  C   UNL     1      -3.079   0.020 -31.475  1.00  0.00     0.126 C 
HETATM   32  O   UNL     1      -3.024  -2.368 -31.823  1.00  0.00    -0.265 OA
ENDBRANCH  29  30
ENDBRANCH  24  29
ENDBRANCH   1  23
TORSDOF 5
ENDMDL
MODEL 6
REMARK VINA RESULT:      -8.9      3.009      5.800
REMARK  5 active torsions:
REMARK  status: ('A' for Active; 'I' for Inactive)
REMARK    1  A    between atoms: C_2  and  O_4 
REMARK    2  A    between atoms: O_4  and  C_5 
REMARK    3  A    between atoms: C_10  and  C_11 
REMARK    4  A    between atoms: C_13  and  N_14 
REMARK    5  A    between atoms: N_14  and  C_15 
ROOT
HETATM    1  C   UNL     1      -6.365   3.215 -33.697  1.00  0.00     0.164 A 
HETATM    2  N   UNL     1      -6.300   2.002 -34.260  1.00  0.00    -0.215 NA
HETATM    3  C   UNL     1      -7.446   1.319 -34.419  1.00  0.00     0.122 A 
HETATM    4  C   UNL     1      -8.676   1.812 -33.940  1.00  0.00     0.033 A 
HETATM    5  C   UNL     1      -9.917   1.122 -33.981  1.00  0.00     0.017 A 
HETATM    6  C   UNL     1     -11.082   1.713 -33.498  1.00  0.00     0.001 A 
HETATM    7  C   UNL     1     -11.027   2.994 -32.968  1.00  0.00     0.002 A 
HETATM    8  C   UNL     1      -9.803   3.668 -32.916  1.00  0.00     0.032 A 
HETATM    9  C   UNL     1      -8.627   3.098 -33.386  1.00  0.00     0.072 A 
HETATM   10  N   UNL     1      -7.499   3.802 -33.283  1.00  0.00    -0.228 NA
ENDROOT
BRANCH   3  11
HETATM   11  N   UNL     1      -7.399   0.027 -35.025  1.00  0.00    -0.243 NA
HETATM   12  H   UNL     1      -7.255   0.166 -36.024  1.00  0.00     0.135 HD
BRANCH  11  13
HETATM   13  C   UNL     1      -6.531  -1.035 -34.645  1.00  0.00     0.015 A 
HETATM   14  C   UNL     1      -5.288  -0.806 -34.040  1.00  0.00     0.026 A 
HETATM   15  C   UNL     1      -4.398  -1.849 -33.753  1.00  0.00     0.034 A 
HETATM   16  C   UNL     1      -4.789  -3.135 -34.127  1.00  0.00     0.061 A 
HETATM   17  N   UNL     1      -4.173  -4.350 -33.990  1.00  0.00    -0.278 N 
HETATM   18  C   UNL     1      -5.994  -3.401 -34.765  1.00  0.00     0.013 A 
HETATM   19  H   UNL     1      -3.274  -4.542 -33.564  1.00  0.00     0.189 HD
HETATM   20  N   UNL     1      -4.875  -5.381 -34.497  1.00  0.00    -0.186 NA
HETATM   21  C   UNL     1      -5.984  -4.799 -34.964  1.00  0.00     0.152 A 
HETATM   22  C   UNL     1      -6.870  -2.338 -35.049  1.00  0.00     0.039 A 
ENDBRANCH  11  13
ENDBRANCH   3  11
BRANCH   1  23
HETATM   23  C   UNL     1      -5.117   3.981 -33.563  1.00  0.00     0.046 A 
HETATM   24  C   UNL     1      -4.307   3.929 -32.414  1.00  0.00     0.093 A 
HETATM   25  C   UNL     1      -3.134   4.686 -32.294  1.00  0.00     0.038 A 
HETATM   26  C   UNL     1      -2.724   5.492 -33.352  1.00  0.00     0.003 A 
HETATM   27  C   UNL     1      -3.496   5.559 -34.510  1.00  0.00     0.001 A 
HETATM   28  C   UNL     1      -4.679   4.818 -34.609  1.00  0.00     0.018 A 
BRANCH  24  29
HETATM   29  O   UNL     1      -4.738   3.200 -31.294  1.00  0.00    -0.278 OA
BRANCH  29  30
HETATM   30  C   UNL     1      -4.156   1.944 -31.166  1.00  0.00     0.260 C 
HETATM   31  C   UNL     1      -5.230   0.953 -30.829  1.00  0.00     0.126 C 
HETATM   32  O   UNL     1      -2.964   1.672 -31.249  1.00  0.00    -0.265 OA
ENDBRANCH  29  30
ENDBRANCH  24  29
ENDBRANCH   1  23
TORSDOF 5
ENDMDL
MODEL 7
REMARK VINA RESULT:      -8.7      2.663      5.640
REMARK  5 active torsions:
REMARK  status: ('A' for Active; 'I' for Inactive)
REMARK    1  A    between atoms: C_2  and  O_4 
REMARK    2  A    between atoms: O_4  and  C_5 
REMARK    3  A    between atoms: C_10  and  C_11 
REMARK    4  A    between atoms: C_13  and  N_14 
REMARK    5  A    between atoms: N_14  and  C_15 
ROOT
HETATM    1  C   UNL     1      -8.176   0.448 -33.307  1.00  0.00     0.164 A 
HETATM    2  N   UNL     1      -7.464   0.960 -32.295  1.00  0.00    -0.215 NA
HETATM    3  C   UNL     1      -6.242   0.450 -32.063  1.00  0.00     0.122 A 
HETATM    4  C   UNL     1      -5.743  -0.643 -32.797  1.00  0.00     0.033 A 
HETATM    5  C   UNL     1      -4.508  -1.304 -32.561  1.00  0.00     0.017 A 
HETATM    6  C   UNL     1      -4.098  -2.365 -33.366  1.00  0.00     0.001 A 
HETATM    7  C   UNL     1      -4.910  -2.781 -34.410  1.00  0.00     0.002 A 
HETATM    8  C   UNL     1      -6.132  -2.140 -34.634  1.00  0.00     0.032 A 
HETATM    9  C   UNL     1      -6.565  -1.084 -33.843  1.00  0.00     0.072 A 
HETATM   10  N   UNL     1      -7.752  -0.538 -34.113  1.00  0.00    -0.228 NA
ENDROOT
BRANCH   3  11
HETATM   11  N   UNL     1      -5.464   0.988 -30.993  1.00  0.00    -0.243 NA
HETATM   12  H   UNL     1      -4.708   0.332 -30.809  1.00  0.00     0.135 HD
BRANCH  11  13
HETATM   13  C   UNL     1      -4.878   2.285 -30.967  1.00  0.00     0.015 A 
HETATM   14  C   UNL     1      -5.489   3.371 -30.326  1.00  0.00     0.026 A 
HETATM   15  C   UNL     1      -4.954   4.664 -30.382  1.00  0.00     0.034 A 
HETATM   16  C   UNL     1      -3.794   4.836 -31.138  1.00  0.00     0.061 A 
HETATM   17  N   UNL     1      -3.027   5.942 -31.391  1.00  0.00    -0.278 N 
HETATM   18  C   UNL     1      -3.179   3.796 -31.823  1.00  0.00     0.013 A 
HETATM   19  H   UNL     1      -3.174   6.885 -31.050  1.00  0.00     0.189 HD
HETATM   20  N   UNL     1      -1.972   5.706 -32.191  1.00  0.00    -0.186 NA
HETATM   21  C   UNL     1      -2.066   4.398 -32.449  1.00  0.00     0.152 A 
HETATM   22  C   UNL     1      -3.735   2.506 -31.756  1.00  0.00     0.039 A 
ENDBRANCH  11  13
ENDBRANCH   3  11
BRANCH   1  23
HETATM   23  C   UNL     1      -9.494   1.035 -33.590  1.00  0.00     0.046 A 
HETATM   24  C   UNL     1      -9.657   2.301 -34.181  1.00  0.00     0.093 A 
HETATM   25  C   UNL     1     -10.921   2.855 -34.420  1.00  0.00     0.038 A 
HETATM   26  C   UNL     1     -12.063   2.126 -34.101  1.00  0.00     0.003 A 
HETATM   27  C   UNL     1     -11.940   0.865 -33.524  1.00  0.00     0.001 A 
HETATM   28  C   UNL     1     -10.671   0.331 -33.267  1.00  0.00     0.018 A 
BRANCH  24  29
HETATM   29  O   UNL     1      -8.529   3.100 -34.430  1.00  0.00    -0.278 OA
BRANCH  29  30
HETATM   30  C   UNL     1      -8.631   4.403 -33.952  1.00  0.00     0.260 C 
HETATM   31  C   UNL     1      -8.445   4.380 -32.464  1.00  0.00     0.126 C 
HETATM   32  O   UNL     1      -8.886   5.409 -34.603  1.00  0.00    -0.265 OA
ENDBRANCH  29  30
ENDBRANCH  24  29
ENDBRANCH   1  23
TORSDOF 5
ENDMDL
MODEL 8
REMARK VINA RESULT:      -8.6     15.042     17.041
REMARK  5 active torsions:
REMARK  status: ('A' for Active; 'I' for Inactive)
REMARK    1  A    between atoms: C_2  and  O_4 
REMARK    2  A    between atoms: O_4  and  C_5 
REMARK    3  A    between atoms: C_10  and  C_11 
REMARK    4  A    between atoms: C_13  and  N_14 
REMARK    5  A    between atoms: N_14  and  C_15 
ROOT
HETATM    1  C   UNL     1      -5.017 -13.438 -38.697  1.00  0.00     0.164 A 
HETATM    2  N   UNL     1      -5.494 -14.137 -37.659  1.00  0.00    -0.215 NA
HETATM    3  C   UNL     1      -6.827 -14.250 -37.533  1.00  0.00     0.122 A 
HETATM    4  C   UNL     1      -7.713 -13.591 -38.408  1.00  0.00     0.033 A 
HETATM    5  C   UNL     1      -9.129 -13.578 -38.298  1.00  0.00     0.017 A 
HETATM    6  C   UNL     1      -9.915 -12.913 -39.235  1.00  0.00     0.001 A 
HETATM    7  C   UNL     1      -9.303 -12.252 -40.291  1.00  0.00     0.002 A 
HETATM    8  C   UNL     1      -7.909 -12.254 -40.393  1.00  0.00     0.032 A 
HETATM    9  C   UNL     1      -7.103 -12.906 -39.468  1.00  0.00     0.072 A 
HETATM   10  N   UNL     1      -5.780 -12.844 -39.628  1.00  0.00    -0.228 NA
ENDROOT
BRANCH   3  11
HETATM   11  N   UNL     1      -7.354 -14.998 -36.437  1.00  0.00    -0.243 NA
HETATM   12  H   UNL     1      -7.224 -15.984 -36.653  1.00  0.00     0.135 HD
BRANCH  11  13
HETATM   13  C   UNL     1      -6.983 -14.840 -35.072  1.00  0.00     0.015 A 
HETATM   14  C   UNL     1      -6.494 -13.628 -34.564  1.00  0.00     0.026 A 
HETATM   15  C   UNL     1      -6.043 -13.504 -33.243  1.00  0.00     0.034 A 
HETATM   16  C   UNL     1      -6.068 -14.655 -32.456  1.00  0.00     0.061 A 
HETATM   17  N   UNL     1      -5.712 -14.875 -31.152  1.00  0.00    -0.278 N 
HETATM   18  C   UNL     1      -6.505 -15.885 -32.932  1.00  0.00     0.013 A 
HETATM   19  H   UNL     1      -5.350 -14.199 -30.489  1.00  0.00     0.189 HD
HETATM   20  N   UNL     1      -5.873 -16.148 -30.747  1.00  0.00    -0.186 NA
HETATM   21  C   UNL     1      -6.359 -16.759 -31.832  1.00  0.00     0.152 A 
HETATM   22  C   UNL     1      -6.950 -15.989 -34.262  1.00  0.00     0.039 A 
ENDBRANCH  11  13
ENDBRANCH   3  11
BRANCH   1  23
HETATM   23  C   UNL     1      -3.559 -13.352 -38.860  1.00  0.00     0.046 A 
HETATM   24  C   UNL     1      -2.854 -14.076 -39.838  1.00  0.00     0.093 A 
HETATM   25  C   UNL     1      -1.461 -14.000 -39.963  1.00  0.00     0.038 A 
HETATM   26  C   UNL     1      -0.740 -13.157 -39.122  1.00  0.00     0.003 A 
HETATM   27  C   UNL     1      -1.406 -12.417 -38.148  1.00  0.00     0.001 A 
HETATM   28  C   UNL     1      -2.796 -12.519 -38.016  1.00  0.00     0.018 A 
BRANCH  24  29
HETATM   29  O   UNL     1      -3.538 -15.004 -40.640  1.00  0.00    -0.278 OA
BRANCH  29  30
HETATM   30  C   UNL     1      -3.605 -14.662 -41.987  1.00  0.00     0.260 C 
HETATM   31  C   UNL     1      -2.959 -15.753 -42.788  1.00  0.00     0.126 C 
HETATM   32  O   UNL     1      -4.055 -13.627 -42.463  1.00  0.00    -0.265 OA
ENDBRANCH  29  30
ENDBRANCH  24  29
ENDBRANCH   1  23
TORSDOF 5
ENDMDL
MODEL 9
REMARK VINA RESULT:      -8.6      2.247      5.566
REMARK  5 active torsions:
REMARK  status: ('A' for Active; 'I' for Inactive)
REMARK    1  A    between atoms: C_2  and  O_4 
REMARK    2  A    between atoms: O_4  and  C_5 
REMARK    3  A    between atoms: C_10  and  C_11 
REMARK    4  A    between atoms: C_13  and  N_14 
REMARK    5  A    between atoms: N_14  and  C_15 
ROOT
HETATM    1  C   UNL     1      -9.463   0.707 -33.331  1.00  0.00     0.164 A 
HETATM    2  N   UNL     1      -9.042   1.149 -32.139  1.00  0.00    -0.215 NA
HETATM    3  C   UNL     1      -7.806   0.807 -31.740  1.00  0.00     0.122 A 
HETATM    4  C   UNL     1      -6.993  -0.057 -32.500  1.00  0.00     0.033 A 
HETATM    5  C   UNL     1      -5.716  -0.545 -32.114  1.00  0.00     0.017 A 
HETATM    6  C   UNL     1      -4.984  -1.379 -32.955  1.00  0.00     0.001 A 
HETATM    7  C   UNL     1      -5.513  -1.740 -34.186  1.00  0.00     0.002 A 
HETATM    8  C   UNL     1      -6.776  -1.271 -34.560  1.00  0.00     0.032 A 
HETATM    9  C   UNL     1      -7.527  -0.442 -33.737  1.00  0.00     0.072 A 
HETATM   10  N   UNL     1      -8.731  -0.053 -34.161  1.00  0.00    -0.228 NA
ENDROOT
BRANCH   3  11
HETATM   11  N   UNL     1      -7.337   1.276 -30.475  1.00  0.00    -0.243 NA
HETATM   12  H   UNL     1      -6.640   0.611 -30.145  1.00  0.00     0.135 HD
BRANCH  11  13
HETATM   13  C   UNL     1      -6.803   2.570 -30.218  1.00  0.00     0.015 A 
HETATM   14  C   UNL     1      -7.525   3.556 -29.532  1.00  0.00     0.026 A 
HETATM   15  C   UNL     1      -7.032   4.856 -29.364  1.00  0.00     0.034 A 
HETATM   16  C   UNL     1      -5.795   5.143 -29.941  1.00  0.00     0.061 A 
HETATM   17  N   UNL     1      -5.041   6.286 -29.960  1.00  0.00    -0.278 N 
HETATM   18  C   UNL     1      -5.065   4.208 -30.664  1.00  0.00     0.013 A 
HETATM   19  H   UNL     1      -5.260   7.176 -29.528  1.00  0.00     0.189 HD
HETATM   20  N   UNL     1      -3.888   6.172 -30.644  1.00  0.00    -0.186 NA
HETATM   21  C   UNL     1      -3.905   4.905 -31.068  1.00  0.00     0.152 A 
HETATM   22  C   UNL     1      -5.581   2.910 -30.825  1.00  0.00     0.039 A 
ENDBRANCH  11  13
ENDBRANCH   3  11
BRANCH   1  23
HETATM   23  C   UNL     1     -10.798   1.118 -33.788  1.00  0.00     0.046 A 
HETATM   24  C   UNL     1     -11.028   2.300 -34.515  1.00  0.00     0.093 A 
HETATM   25  C   UNL     1     -12.311   2.688 -34.921  1.00  0.00     0.038 A 
HETATM   26  C   UNL     1     -13.400   1.870 -34.635  1.00  0.00     0.003 A 
HETATM   27  C   UNL     1     -13.208   0.686 -33.926  1.00  0.00     0.001 A 
HETATM   28  C   UNL     1     -11.925   0.320 -33.504  1.00  0.00     0.018 A 
BRANCH  24  29
HETATM   29  O   UNL     1      -9.967   3.193 -34.740  1.00  0.00    -0.278 OA
BRANCH  29  30
HETATM   30  C   UNL     1     -10.036   4.366 -33.997  1.00  0.00     0.260 C 
HETATM   31  C   UNL     1      -9.965   5.532 -34.938  1.00  0.00     0.126 C 
HETATM   32  O   UNL     1     -10.087   4.465 -32.777  1.00  0.00    -0.265 OA
ENDBRANCH  29  30
ENDBRANCH  24  29
ENDBRANCH   1  23
TORSDOF 5
ENDMDL
MODEL 10
REMARK VINA RESULT:      -8.6      3.580      7.504
REMARK  5 active torsions:
REMARK  status: ('A' for Active; 'I' for Inactive)
REMARK    1  A    between atoms: C_2  and  O_4 
REMARK    2  A    between atoms: O_4  and  C_5 
REMARK    3  A    between atoms: C_10  and  C_11 
REMARK    4  A    between atoms: C_13  and  N_14 
REMARK    5  A    between atoms: N_14  and  C_15 
ROOT
HETATM    1  C   UNL     1      -4.830   2.590 -31.531  1.00  0.00     0.164 A 
HETATM    2  N   UNL     1      -5.792   2.382 -32.438  1.00  0.00    -0.215 NA
HETATM    3  C   UNL     1      -5.868   1.168 -33.009  1.00  0.00     0.122 A 
HETATM    4  C   UNL     1      -4.923   0.159 -32.736  1.00  0.00     0.033 A 
HETATM    5  C   UNL     1      -4.870  -1.116 -33.359  1.00  0.00     0.017 A 
HETATM    6  C   UNL     1      -3.904  -2.051 -32.996  1.00  0.00     0.001 A 
HETATM    7  C   UNL     1      -2.979  -1.729 -32.014  1.00  0.00     0.002 A 
HETATM    8  C   UNL     1      -3.023  -0.469 -31.410  1.00  0.00     0.032 A 
HETATM    9  C   UNL     1      -3.973   0.482 -31.758  1.00  0.00     0.072 A 
HETATM   10  N   UNL     1      -3.934   1.667 -31.146  1.00  0.00    -0.228 NA
ENDROOT
BRANCH   3  11
HETATM   11  N   UNL     1      -6.894   0.923 -33.972  1.00  0.00    -0.243 NA
HETATM   12  H   UNL     1      -6.670   0.044 -34.435  1.00  0.00     0.135 HD
BRANCH  11  13
HETATM   13  C   UNL     1      -8.290   0.886 -33.703  1.00  0.00     0.015 A 
HETATM   14  C   UNL     1      -8.893  -0.176 -33.016  1.00  0.00     0.026 A 
HETATM   15  C   UNL     1     -10.280  -0.253 -32.836  1.00  0.00     0.034 A 
HETATM   16  C   UNL     1     -11.049   0.764 -33.403  1.00  0.00     0.061 A 
HETATM   17  N   UNL     1     -12.399   0.989 -33.409  1.00  0.00    -0.278 N 
HETATM   18  C   UNL     1     -10.496   1.812 -34.128  1.00  0.00     0.013 A 
HETATM   19  H   UNL     1     -13.121   0.427 -32.973  1.00  0.00     0.189 HD
HETATM   20  N   UNL     1     -12.768   2.092 -34.087  1.00  0.00    -0.186 NA
HETATM   21  C   UNL     1     -11.607   2.591 -34.519  1.00  0.00     0.152 A 
HETATM   22  C   UNL     1      -9.102   1.867 -34.301  1.00  0.00     0.039 A 
ENDBRANCH  11  13
ENDBRANCH   3  11
BRANCH   1  23
HETATM   23  C   UNL     1      -4.774   3.904 -30.873  1.00  0.00     0.046 A 
HETATM   24  C   UNL     1      -3.948   4.950 -31.323  1.00  0.00     0.093 A 
HETATM   25  C   UNL     1      -3.889   6.187 -30.669  1.00  0.00     0.038 A 
HETATM   26  C   UNL     1      -4.696   6.417 -29.558  1.00  0.00     0.003 A 
HETATM   27  C   UNL     1      -5.534   5.407 -29.091  1.00  0.00     0.001 A 
HETATM   28  C   UNL     1      -5.567   4.166 -29.738  1.00  0.00     0.018 A 
BRANCH  24  29
HETATM   29  O   UNL     1      -3.055   4.722 -32.382  1.00  0.00    -0.278 OA
BRANCH  29  30
HETATM   30  C   UNL     1      -1.712   4.823 -32.035  1.00  0.00     0.260 C 
HETATM   31  C   UNL     1      -1.042   5.767 -32.989  1.00  0.00     0.126 C 
HETATM   32  O   UNL     1      -1.133   4.213 -31.144  1.00  0.00    -0.265 OA
ENDBRANCH  29  30
ENDBRANCH  24  29
ENDBRANCH   1  23
TORSDOF 5
ENDMDL
