MODEL 1
REMARK VINA RESULT:     -11.0      0.000      0.000
REMARK  6 active torsions:
REMARK  status: ('A' for Active; 'I' for Inactive)
REMARK    1  A    between atoms: C_8  and  C_9 
REMARK    2  A    between atoms: C_9  and  C_10 
REMARK    3  A    between atoms: C_10  and  N_11 
REMARK       I    between atoms: N_11  and  C_12 
REMARK    4  A    between atoms: C_12  and  C_13 
REMARK    5  A    between atoms: C_18  and  C_19 
REMARK    6  A    between atoms: C_29  and  C_30 
ROOT
HETATM    1  C   UNL     1      -4.802   3.065 -32.019  1.00  0.00     0.148 A 
HETATM    2  N   UNL     1      -4.859   4.164 -32.809  1.00  0.00    -0.165 NA
HETATM    3  N   UNL     1      -3.719   4.813 -32.516  1.00  0.00    -0.240 N 
HETATM    4  C   UNL     1      -2.971   4.217 -31.542  1.00  0.00     0.123 A 
HETATM    5  N   UNL     1      -1.856   4.801 -31.058  1.00  0.00    -0.366 N 
HETATM    6  C   UNL     1      -1.512   6.192 -31.345  1.00  0.00     0.118 C 
HETATM    7  C   UNL     1      -2.694   6.952 -31.987  1.00  0.00     0.066 C 
HETATM    8  C   UNL     1      -3.404   6.117 -33.066  1.00  0.00     0.221 C 
HETATM    9  C   UNL     1      -3.616   3.052 -31.234  1.00  0.00     0.088 A 
HETATM   10  H   UNL     1      -1.306   4.353 -30.326  1.00  0.00     0.161 HD
ENDROOT
BRANCH   1  11
HETATM   11  C   UNL     1      -5.874   2.059 -31.981  1.00  0.00     0.272 C 
HETATM   12  N   UNL     1      -6.445   1.809 -33.209  1.00  0.00    -0.355 N 
HETATM   13  H   UNL     1      -5.932   2.182 -34.004  1.00  0.00     0.162 HD
HETATM   14  O   UNL     1      -6.223   1.499 -30.946  1.00  0.00    -0.266 OA
BRANCH  12  15
HETATM   15  C   UNL     1      -7.415   0.752 -33.387  1.00  0.00     0.127 C 
BRANCH  15  16
HETATM   16  C   UNL     1      -7.069  -0.198 -34.534  1.00  0.00     0.060 C 
BRANCH  16  17
HETATM   17  C   UNL     1      -5.922  -1.105 -34.208  1.00  0.00    -0.029 A 
HETATM   18  C   UNL     1      -5.844  -2.517 -34.433  1.00  0.00    -0.002 A 
HETATM   19  C   UNL     1      -6.723  -3.477 -34.974  1.00  0.00     0.014 A 
HETATM   20  C   UNL     1      -4.588  -2.940 -33.996  1.00  0.00     0.042 A 
HETATM   21  C   UNL     1      -6.317  -4.814 -35.060  1.00  0.00     0.001 A 
HETATM   22  C   UNL     1      -5.055  -5.203 -34.616  1.00  0.00     0.002 A 
HETATM   23  C   UNL     1      -4.165  -4.272 -34.074  1.00  0.00     0.030 A 
HETATM   24  N   UNL     1      -3.930  -1.831 -33.519  1.00  0.00    -0.365 N 
HETATM   25  H   UNL     1      -2.994  -1.840 -33.140  1.00  0.00     0.165 HD
HETATM   26  C   UNL     1      -4.724  -0.723 -33.637  1.00  0.00     0.096 A 
ENDBRANCH  16  17
ENDBRANCH  15  16
ENDBRANCH  12  15
ENDBRANCH   1  11
BRANCH   8  27
HETATM   27  C   UNL     1      -2.584   5.970 -34.326  1.00  0.00     0.409 C 
HETATM   28  F   UNL     1      -3.344   5.730 -35.416  1.00  0.00    -0.169 F 
HETATM   29  F   UNL     1      -1.916   7.129 -34.570  1.00  0.00    -0.169 F 
HETATM   30  F   UNL     1      -1.650   5.000 -34.252  1.00  0.00    -0.169 F 
ENDBRANCH   8  27
BRANCH   6  31
HETATM   31  C   UNL     1      -1.057   6.846 -30.050  1.00  0.00    -0.033 A 
HETATM   32  C   UNL     1      -1.989   7.165 -29.042  1.00  0.00     0.049 A 
HETATM   33  C   UNL     1      -1.526   7.721 -27.870  1.00  0.00     0.105 A 
HETATM   34  C   UNL     1      -0.191   7.963 -27.662  1.00  0.00     0.105 A 
HETATM   35  O   UNL     1      -2.292   8.078 -26.805  1.00  0.00    -0.323 OA
HETATM   36  O   UNL     1       0.054   8.502 -26.438  1.00  0.00    -0.323 OA
HETATM   37  C   UNL     1       0.757   7.663 -28.618  1.00  0.00     0.040 A 
HETATM   38  C   UNL     1      -1.281   8.565 -25.897  1.00  0.00     0.352 A 
HETATM   39  C   UNL     1       0.316   7.099 -29.821  1.00  0.00     0.012 A 
ENDBRANCH   6  31
TORSDOF 6
ENDMDL
MODEL 2
REMARK VINA RESULT:     -10.8      3.400     10.073
REMARK  6 active torsions:
REMARK  status: ('A' for Active; 'I' for Inactive)
REMARK    1  A    between atoms: C_8  and  C_9 
REMARK    2  A    between atoms: C_9  and  C_10 
REMARK    3  A    between atoms: C_10  and  N_11 
REMARK       I    between atoms: N_11  and  C_12 
REMARK    4  A    between atoms: C_12  and  C_13 
REMARK    5  A    between atoms: C_18  and  C_19 
REMARK    6  A    between atoms: C_29  and  C_30 
ROOT
HETATM    1  C   UNL     1      -5.256   3.993 -33.462  1.00  0.00     0.148 A 
HETATM    2  N   UNL     1      -6.389   3.849 -34.190  1.00  0.00    -0.165 NA
HETATM    3  N   UNL     1      -6.774   2.591 -33.915  1.00  0.00    -0.240 N 
HETATM    4  C   UNL     1      -5.917   1.910 -33.100  1.00  0.00     0.123 A 
HETATM    5  N   UNL     1      -6.104   0.605 -32.819  1.00  0.00    -0.366 N 
HETATM    6  C   UNL     1      -7.063  -0.224 -33.546  1.00  0.00     0.118 C 
HETATM    7  C   UNL     1      -7.580   0.484 -34.819  1.00  0.00     0.066 C 
HETATM    8  C   UNL     1      -7.908   1.965 -34.567  1.00  0.00     0.221 C 
HETATM    9  C   UNL     1      -4.948   2.806 -32.742  1.00  0.00     0.088 A 
HETATM   10  H   UNL     1      -5.456   0.101 -32.214  1.00  0.00     0.161 HD
ENDROOT
BRANCH   1  11
HETATM   11  C   UNL     1      -4.455   5.226 -33.477  1.00  0.00     0.272 C 
HETATM   12  N   UNL     1      -3.296   5.127 -34.215  1.00  0.00    -0.355 N 
HETATM   13  H   UNL     1      -3.239   4.308 -34.815  1.00  0.00     0.162 HD
HETATM   14  O   UNL     1      -4.793   6.246 -32.884  1.00  0.00    -0.266 OA
BRANCH  12  15
HETATM   15  C   UNL     1      -2.457   6.280 -34.457  1.00  0.00     0.127 C 
BRANCH  15  16
HETATM   16  C   UNL     1      -1.105   6.201 -33.749  1.00  0.00     0.060 C 
BRANCH  16  17
HETATM   17  C   UNL     1      -1.130   6.813 -32.382  1.00  0.00    -0.029 A 
HETATM   18  C   UNL     1      -0.480   6.326 -31.202  1.00  0.00    -0.002 A 
HETATM   19  C   UNL     1       0.329   5.207 -30.916  1.00  0.00     0.014 A 
HETATM   20  C   UNL     1      -0.761   7.222 -30.171  1.00  0.00     0.042 A 
HETATM   21  C   UNL     1       0.824   5.028 -29.619  1.00  0.00     0.001 A 
HETATM   22  C   UNL     1       0.526   5.943 -28.612  1.00  0.00     0.002 A 
HETATM   23  C   UNL     1      -0.274   7.059 -28.869  1.00  0.00     0.030 A 
HETATM   24  N   UNL     1      -1.556   8.213 -30.699  1.00  0.00    -0.365 N 
HETATM   25  H   UNL     1      -1.910   9.001 -30.177  1.00  0.00     0.165 HD
HETATM   26  C   UNL     1      -1.788   7.975 -32.026  1.00  0.00     0.096 A 
ENDBRANCH  16  17
ENDBRANCH  15  16
ENDBRANCH  12  15
ENDBRANCH   1  11
BRANCH   8  27
HETATM   27  C   UNL     1      -9.158   2.155 -33.740  1.00  0.00     0.409 C 
HETATM   28  F   UNL     1      -8.891   2.350 -32.432  1.00  0.00    -0.169 F 
HETATM   29  F   UNL     1      -9.821   3.263 -34.167  1.00  0.00    -0.169 F 
HETATM   30  F   UNL     1     -10.029   1.129 -33.836  1.00  0.00    -0.169 F 
ENDBRANCH   8  27
BRANCH   6  31
HETATM   31  C   UNL     1      -6.394  -1.550 -33.871  1.00  0.00    -0.033 A 
HETATM   32  C   UNL     1      -5.121  -1.858 -33.351  1.00  0.00     0.049 A 
HETATM   33  C   UNL     1      -4.572  -3.088 -33.640  1.00  0.00     0.105 A 
HETATM   34  C   UNL     1      -5.233  -4.012 -34.411  1.00  0.00     0.105 A 
HETATM   35  O   UNL     1      -3.362  -3.536 -33.212  1.00  0.00    -0.323 OA
HETATM   36  O   UNL     1      -4.523  -5.161 -34.565  1.00  0.00    -0.323 OA
HETATM   37  C   UNL     1      -6.481  -3.756 -34.936  1.00  0.00     0.040 A 
HETATM   38  C   UNL     1      -3.341  -4.856 -33.796  1.00  0.00     0.352 A 
HETATM   39  C   UNL     1      -7.064  -2.513 -34.662  1.00  0.00     0.012 A 
ENDBRANCH   6  31
TORSDOF 6
ENDMDL
MODEL 3
REMARK VINA RESULT:     -10.8      2.824     10.215
REMARK  6 active torsions:
REMARK  status: ('A' for Active; 'I' for Inactive)
REMARK    1  A    between atoms: C_8  and  C_9 
REMARK    2  A    between atoms: C_9  and  C_10 
REMARK    3  A    between atoms: C_10  and  N_11 
REMARK       I    between atoms: N_11  and  C_12 
REMARK    4  A    between atoms: C_12  and  C_13 
REMARK    5  A    between atoms: C_18  and  C_19 
REMARK    6  A    between atoms: C_29  and  C_30 
ROOT
HETATM    1  C   UNL     1      -3.173   3.853 -32.226  1.00  0.00     0.148 A 
HETATM    2  N   UNL     1      -4.184   4.188 -33.062  1.00  0.00    -0.165 NA
HETATM    3  N   UNL     1      -4.983   3.107 -33.030  1.00  0.00    -0.240 N 
HETATM    4  C   UNL     1      -4.505   2.082 -32.264  1.00  0.00     0.123 A 
HETATM    5  N   UNL     1      -5.133   0.891 -32.216  1.00  0.00    -0.366 N 
HETATM    6  C   UNL     1      -6.199   0.528 -33.149  1.00  0.00     0.118 C 
HETATM    7  C   UNL     1      -6.287   1.521 -34.330  1.00  0.00     0.066 C 
HETATM    8  C   UNL     1      -6.158   2.983 -33.870  1.00  0.00     0.221 C 
HETATM    9  C   UNL     1      -3.359   2.551 -31.684  1.00  0.00     0.088 A 
HETATM   10  H   UNL     1      -4.767   0.128 -31.648  1.00  0.00     0.161 HD
ENDROOT
BRANCH   1  11
HETATM   11  C   UNL     1      -2.027   4.739 -31.971  1.00  0.00     0.272 C 
HETATM   12  N   UNL     1      -2.131   5.970 -32.581  1.00  0.00    -0.355 N 
HETATM   13  H   UNL     1      -3.054   6.189 -32.949  1.00  0.00     0.162 HD
HETATM   14  O   UNL     1      -1.070   4.405 -31.279  1.00  0.00    -0.266 OA
BRANCH  12  15
HETATM   15  C   UNL     1      -1.168   7.018 -32.328  1.00  0.00     0.127 C 
BRANCH  15  16
HETATM   16  C   UNL     1      -1.695   8.111 -31.399  1.00  0.00     0.060 C 
BRANCH  16  17
HETATM   17  C   UNL     1      -1.872   7.636 -29.989  1.00  0.00    -0.029 A 
HETATM   18  C   UNL     1      -0.864   7.537 -28.975  1.00  0.00    -0.002 A 
HETATM   19  C   UNL     1       0.518   7.809 -28.933  1.00  0.00     0.014 A 
HETATM   20  C   UNL     1      -1.483   7.067 -27.816  1.00  0.00     0.042 A 
HETATM   21  C   UNL     1       1.226   7.605 -27.742  1.00  0.00     0.001 A 
HETATM   22  C   UNL     1       0.577   7.137 -26.602  1.00  0.00     0.002 A 
HETATM   23  C   UNL     1      -0.792   6.858 -26.618  1.00  0.00     0.030 A 
HETATM   24  N   UNL     1      -2.813   6.882 -28.113  1.00  0.00    -0.365 N 
HETATM   25  H   UNL     1      -3.505   6.549 -27.457  1.00  0.00     0.165 HD
HETATM   26  C   UNL     1      -3.057   7.215 -29.417  1.00  0.00     0.096 A 
ENDBRANCH  16  17
ENDBRANCH  15  16
ENDBRANCH  12  15
ENDBRANCH   1  11
BRANCH   8  27
HETATM   27  C   UNL     1      -7.382   3.475 -33.134  1.00  0.00     0.409 C 
HETATM   28  F   UNL     1      -7.639   4.780 -33.365  1.00  0.00    -0.169 F 
HETATM   29  F   UNL     1      -8.475   2.787 -33.559  1.00  0.00    -0.169 F 
HETATM   30  F   UNL     1      -7.317   3.297 -31.798  1.00  0.00    -0.169 F 
ENDBRANCH   8  27
BRANCH   6  31
HETATM   31  C   UNL     1      -5.949  -0.894 -33.625  1.00  0.00    -0.033 A 
HETATM   32  C   UNL     1      -4.784  -1.587 -33.237  1.00  0.00     0.049 A 
HETATM   33  C   UNL     1      -4.620  -2.887 -33.662  1.00  0.00     0.105 A 
HETATM   34  C   UNL     1      -5.558  -3.517 -34.441  1.00  0.00     0.105 A 
HETATM   35  O   UNL     1      -3.561  -3.688 -33.371  1.00  0.00    -0.323 OA
HETATM   36  O   UNL     1      -5.209  -4.797 -34.739  1.00  0.00    -0.323 OA
HETATM   37  C   UNL     1      -6.714  -2.880 -34.841  1.00  0.00     0.040 A 
HETATM   38  C   UNL     1      -3.946  -4.901 -34.050  1.00  0.00     0.352 A 
HETATM   39  C   UNL     1      -6.908  -1.557 -34.427  1.00  0.00     0.012 A 
ENDBRANCH   6  31
TORSDOF 6
ENDMDL
MODEL 4
REMARK VINA RESULT:     -10.5      1.590      2.255
REMARK  6 active torsions:
REMARK  status: ('A' for Active; 'I' for Inactive)
REMARK    1  A    between atoms: C_8  and  C_9 
REMARK    2  A    between atoms: C_9  and  C_10 
REMARK    3  A    between atoms: C_10  and  N_11 
REMARK       I    between atoms: N_11  and  C_12 
REMARK    4  A    between atoms: C_12  and  C_13 
REMARK    5  A    between atoms: C_18  and  C_19 
REMARK    6  A    between atoms: C_29  and  C_30 
ROOT
HETATM    1  C   UNL     1      -5.493   3.777 -31.945  1.00  0.00     0.148 A 
HETATM    2  N   UNL     1      -5.164   4.708 -32.871  1.00  0.00    -0.165 NA
HETATM    3  N   UNL     1      -3.877   4.980 -32.592  1.00  0.00    -0.240 N 
HETATM    4  C   UNL     1      -3.390   4.317 -31.502  1.00  0.00     0.123 A 
HETATM    5  N   UNL     1      -2.153   4.562 -31.026  1.00  0.00    -0.366 N 
HETATM    6  C   UNL     1      -1.357   5.706 -31.467  1.00  0.00     0.118 C 
HETATM    7  C   UNL     1      -2.203   6.714 -32.277  1.00  0.00     0.066 C 
HETATM    8  C   UNL     1      -3.133   6.015 -33.283  1.00  0.00     0.221 C 
HETATM    9  C   UNL     1      -4.394   3.486 -31.090  1.00  0.00     0.088 A 
HETATM   10  H   UNL     1      -1.798   4.068 -30.209  1.00  0.00     0.161 HD
ENDROOT
BRANCH   1  11
HETATM   11  C   UNL     1      -6.841   3.198 -31.847  1.00  0.00     0.272 C 
HETATM   12  N   UNL     1      -7.241   2.527 -32.982  1.00  0.00    -0.355 N 
HETATM   13  H   UNL     1      -6.499   2.339 -33.652  1.00  0.00     0.162 HD
HETATM   14  O   UNL     1      -7.540   3.306 -30.844  1.00  0.00    -0.266 OA
BRANCH  12  15
HETATM   15  C   UNL     1      -8.476   1.777 -33.016  1.00  0.00     0.127 C 
BRANCH  15  16
HETATM   16  C   UNL     1      -8.346   0.374 -32.424  1.00  0.00     0.060 C 
BRANCH  16  17
HETATM   17  C   UNL     1      -7.232  -0.414 -33.041  1.00  0.00    -0.029 A 
HETATM   18  C   UNL     1      -5.904  -0.583 -32.530  1.00  0.00    -0.002 A 
HETATM   19  C   UNL     1      -5.222  -0.115 -31.389  1.00  0.00     0.014 A 
HETATM   20  C   UNL     1      -5.217  -1.409 -33.421  1.00  0.00     0.042 A 
HETATM   21  C   UNL     1      -3.889  -0.488 -31.179  1.00  0.00     0.001 A 
HETATM   22  C   UNL     1      -3.232  -1.316 -32.087  1.00  0.00     0.002 A 
HETATM   23  C   UNL     1      -3.885  -1.793 -33.227  1.00  0.00     0.030 A 
HETATM   24  N   UNL     1      -6.089  -1.726 -34.436  1.00  0.00    -0.365 N 
HETATM   25  H   UNL     1      -5.861  -2.317 -35.222  1.00  0.00     0.165 HD
HETATM   26  C   UNL     1      -7.301  -1.130 -34.221  1.00  0.00     0.096 A 
ENDBRANCH  16  17
ENDBRANCH  15  16
ENDBRANCH  12  15
ENDBRANCH   1  11
BRANCH   8  27
HETATM   27  C   UNL     1      -2.388   5.427 -34.458  1.00  0.00     0.409 C 
HETATM   28  F   UNL     1      -1.274   6.123 -34.768  1.00  0.00    -0.169 F 
HETATM   29  F   UNL     1      -1.980   4.166 -34.153  1.00  0.00    -0.169 F 
HETATM   30  F   UNL     1      -3.136   5.325 -35.576  1.00  0.00    -0.169 F 
ENDBRANCH   8  27
BRANCH   6  31
HETATM   31  C   UNL     1      -0.732   6.351 -30.241  1.00  0.00    -0.033 A 
HETATM   32  C   UNL     1      -1.097   7.656 -29.852  1.00  0.00     0.049 A 
HETATM   33  C   UNL     1      -0.534   8.185 -28.712  1.00  0.00     0.105 A 
HETATM   34  C   UNL     1       0.361   7.474 -27.951  1.00  0.00     0.105 A 
HETATM   35  O   UNL     1      -0.785   9.420 -28.203  1.00  0.00    -0.323 OA
HETATM   36  O   UNL     1       0.786   8.172 -26.864  1.00  0.00    -0.323 OA
HETATM   37  C   UNL     1       0.743   6.194 -28.289  1.00  0.00     0.040 A 
HETATM   38  C   UNL     1       0.049   9.402 -27.025  1.00  0.00     0.352 A 
HETATM   39  C   UNL     1       0.190   5.630 -29.445  1.00  0.00     0.012 A 
ENDBRANCH   6  31
TORSDOF 6
ENDMDL
MODEL 5
REMARK VINA RESULT:     -10.4      2.039      2.856
REMARK  6 active torsions:
REMARK  status: ('A' for Active; 'I' for Inactive)
REMARK    1  A    between atoms: C_8  and  C_9 
REMARK    2  A    between atoms: C_9  and  C_10 
REMARK    3  A    between atoms: C_10  and  N_11 
REMARK       I    between atoms: N_11  and  C_12 
REMARK    4  A    between atoms: C_12  and  C_13 
REMARK    5  A    between atoms: C_18  and  C_19 
REMARK    6  A    between atoms: C_29  and  C_30 
ROOT
HETATM    1  C   UNL     1      -5.772   4.871 -32.301  1.00  0.00     0.148 A 
HETATM    2  N   UNL     1      -5.106   5.504 -33.297  1.00  0.00    -0.165 NA
HETATM    3  N   UNL     1      -3.866   5.645 -32.799  1.00  0.00    -0.240 N 
HETATM    4  C   UNL     1      -3.723   5.191 -31.519  1.00  0.00     0.123 A 
HETATM    5  N   UNL     1      -2.572   5.360 -30.839  1.00  0.00    -0.366 N 
HETATM    6  C   UNL     1      -1.506   6.242 -31.310  1.00  0.00     0.118 C 
HETATM    7  C   UNL     1      -1.982   7.145 -32.470  1.00  0.00     0.066 C 
HETATM    8  C   UNL     1      -2.825   6.372 -33.499  1.00  0.00     0.221 C 
HETATM    9  C   UNL     1      -4.925   4.632 -31.183  1.00  0.00     0.088 A 
HETATM   10  H   UNL     1      -2.474   5.024 -29.881  1.00  0.00     0.161 HD
ENDROOT
BRANCH   1  11
HETATM   11  C   UNL     1      -7.199   4.531 -32.391  1.00  0.00     0.272 C 
HETATM   12  N   UNL     1      -7.622   3.648 -31.423  1.00  0.00    -0.355 N 
HETATM   13  H   UNL     1      -6.967   3.505 -30.657  1.00  0.00     0.162 HD
HETATM   14  O   UNL     1      -7.939   4.994 -33.254  1.00  0.00    -0.266 OA
BRANCH  12  15
HETATM   15  C   UNL     1      -9.020   3.310 -31.271  1.00  0.00     0.127 C 
BRANCH  15  16
HETATM   16  C   UNL     1      -9.296   1.812 -31.402  1.00  0.00     0.060 C 
BRANCH  16  17
HETATM   17  C   UNL     1      -8.907   1.267 -32.743  1.00  0.00    -0.029 A 
HETATM   18  C   UNL     1      -7.793   0.417 -33.042  1.00  0.00    -0.002 A 
HETATM   19  C   UNL     1      -6.756  -0.153 -32.274  1.00  0.00     0.014 A 
HETATM   20  C   UNL     1      -7.832   0.144 -34.409  1.00  0.00     0.042 A 
HETATM   21  C   UNL     1      -5.805  -0.969 -32.898  1.00  0.00     0.001 A 
HETATM   22  C   UNL     1      -5.874  -1.223 -34.266  1.00  0.00     0.002 A 
HETATM   23  C   UNL     1      -6.891  -0.670 -35.049  1.00  0.00     0.030 A 
HETATM   24  N   UNL     1      -8.922   0.806 -34.924  1.00  0.00    -0.365 N 
HETATM   25  H   UNL     1      -9.199   0.785 -35.895  1.00  0.00     0.165 HD
HETATM   26  C   UNL     1      -9.573   1.488 -33.932  1.00  0.00     0.096 A 
ENDBRANCH  16  17
ENDBRANCH  15  16
ENDBRANCH  12  15
ENDBRANCH   1  11
BRANCH   8  27
HETATM   27  C   UNL     1      -2.000   5.425 -34.338  1.00  0.00     0.409 C 
HETATM   28  F   UNL     1      -1.766   4.249 -33.719  1.00  0.00    -0.169 F 
HETATM   29  F   UNL     1      -2.673   5.129 -35.483  1.00  0.00    -0.169 F 
HETATM   30  F   UNL     1      -0.810   5.936 -34.717  1.00  0.00    -0.169 F 
ENDBRANCH   8  27
BRANCH   6  31
HETATM   31  C   UNL     1      -1.008   7.059 -30.128  1.00  0.00    -0.033 A 
HETATM   32  C   UNL     1      -1.919   7.715 -29.275  1.00  0.00     0.049 A 
HETATM   33  C   UNL     1      -1.423   8.412 -28.195  1.00  0.00     0.105 A 
HETATM   34  C   UNL     1      -0.078   8.475 -27.931  1.00  0.00     0.105 A 
HETATM   35  O   UNL     1      -2.167   9.089 -27.280  1.00  0.00    -0.323 OA
HETATM   36  O   UNL     1       0.198   9.200 -26.814  1.00  0.00    -0.323 OA
HETATM   37  C   UNL     1       0.849   7.846 -28.734  1.00  0.00     0.040 A 
HETATM   38  C   UNL     1      -1.132   9.580 -26.402  1.00  0.00     0.352 A 
HETATM   39  C   UNL     1       0.376   7.132 -29.842  1.00  0.00     0.012 A 
ENDBRANCH   6  31
TORSDOF 6
ENDMDL
MODEL 6
REMARK VINA RESULT:     -10.3      4.885      9.270
REMARK  6 active torsions:
REMARK  status: ('A' for Active; 'I' for Inactive)
REMARK    1  A    between atoms: C_8  and  C_9 
REMARK    2  A    between atoms: C_9  and  C_10 
REMARK    3  A    between atoms: C_10  and  N_11 
REMARK       I    between atoms: N_11  and  C_12 
REMARK    4  A    between atoms: C_12  and  C_13 
REMARK    5  A    between atoms: C_18  and  C_19 
REMARK    6  A    between atoms: C_29  and  C_30 
ROOT
HETATM    1  C   UNL     1      -8.835   3.303 -32.414  1.00  0.00     0.148 A 
HETATM    2  N   UNL     1      -7.797   3.258 -31.546  1.00  0.00    -0.165 NA
HETATM    3  N   UNL     1      -6.900   2.481 -32.178  1.00  0.00    -0.240 N 
HETATM    4  C   UNL     1      -7.336   1.983 -33.373  1.00  0.00     0.123 A 
HETATM    5  N   UNL     1      -6.600   1.100 -34.075  1.00  0.00    -0.366 N 
HETATM    6  C   UNL     1      -5.430   0.430 -33.511  1.00  0.00     0.118 C 
HETATM    7  C   UNL     1      -5.342   0.626 -31.980  1.00  0.00     0.066 C 
HETATM    8  C   UNL     1      -5.653   2.073 -31.561  1.00  0.00     0.221 C 
HETATM    9  C   UNL     1      -8.567   2.540 -33.584  1.00  0.00     0.088 A 
HETATM   10  H   UNL     1      -6.934   0.727 -34.963  1.00  0.00     0.161 HD
ENDROOT
BRANCH   1  11
HETATM   11  C   UNL     1     -10.080   4.030 -32.124  1.00  0.00     0.272 C 
HETATM   12  N   UNL     1     -10.320   5.084 -32.978  1.00  0.00    -0.355 N 
HETATM   13  H   UNL     1      -9.735   5.103 -33.811  1.00  0.00     0.162 HD
HETATM   14  O   UNL     1     -10.831   3.722 -31.204  1.00  0.00    -0.266 OA
BRANCH  12  15
HETATM   15  C   UNL     1     -11.563   5.822 -32.932  1.00  0.00     0.127 C 
BRANCH  15  16
HETATM   16  C   UNL     1     -12.427   5.628 -34.178  1.00  0.00     0.060 C 
BRANCH  16  17
HETATM   17  C   UNL     1     -12.472   4.201 -34.634  1.00  0.00    -0.029 A 
HETATM   18  C   UNL     1     -13.227   3.131 -34.054  1.00  0.00    -0.002 A 
HETATM   19  C   UNL     1     -14.103   3.027 -32.954  1.00  0.00     0.014 A 
HETATM   20  C   UNL     1     -12.981   1.988 -34.815  1.00  0.00     0.042 A 
HETATM   21  C   UNL     1     -14.697   1.795 -32.659  1.00  0.00     0.001 A 
HETATM   22  C   UNL     1     -14.432   0.673 -33.441  1.00  0.00     0.002 A 
HETATM   23  C   UNL     1     -13.567   0.748 -34.535  1.00  0.00     0.030 A 
HETATM   24  N   UNL     1     -12.107   2.346 -35.815  1.00  0.00    -0.365 N 
HETATM   25  H   UNL     1     -11.756   1.716 -36.521  1.00  0.00     0.165 HD
HETATM   26  C   UNL     1     -11.791   3.673 -35.713  1.00  0.00     0.096 A 
ENDBRANCH  16  17
ENDBRANCH  15  16
ENDBRANCH  12  15
ENDBRANCH   1  11
BRANCH   8  27
HETATM   27  C   UNL     1      -4.549   3.037 -31.926  1.00  0.00     0.409 C 
HETATM   28  F   UNL     1      -4.790   3.691 -33.082  1.00  0.00    -0.169 F 
HETATM   29  F   UNL     1      -4.441   3.990 -30.961  1.00  0.00    -0.169 F 
HETATM   30  F   UNL     1      -3.335   2.456 -32.025  1.00  0.00    -0.169 F 
ENDBRANCH   8  27
BRANCH   6  31
HETATM   31  C   UNL     1      -5.496  -1.041 -33.888  1.00  0.00    -0.033 A 
HETATM   32  C   UNL     1      -4.409  -1.899 -33.626  1.00  0.00     0.049 A 
HETATM   33  C   UNL     1      -4.530  -3.232 -33.950  1.00  0.00     0.105 A 
HETATM   34  C   UNL     1      -5.677  -3.739 -34.510  1.00  0.00     0.105 A 
HETATM   35  O   UNL     1      -3.580  -4.184 -33.756  1.00  0.00    -0.323 OA
HETATM   36  O   UNL     1      -5.594  -5.077 -34.740  1.00  0.00    -0.323 OA
HETATM   37  C   UNL     1      -6.766  -2.939 -34.780  1.00  0.00     0.040 A 
HETATM   38  C   UNL     1      -4.265  -5.354 -34.252  1.00  0.00     0.352 A 
HETATM   39  C   UNL     1      -6.672  -1.578 -34.464  1.00  0.00     0.012 A 
ENDBRANCH   6  31
TORSDOF 6
ENDMDL
MODEL 7
REMARK VINA RESULT:     -10.1      3.494     10.289
REMARK  6 active torsions:
REMARK  status: ('A' for Active; 'I' for Inactive)
REMARK    1  A    between atoms: C_8  and  C_9 
REMARK    2  A    between atoms: C_9  and  C_10 
REMARK    3  A    between atoms: C_10  and  N_11 
REMARK       I    between atoms: N_11  and  C_12 
REMARK    4  A    between atoms: C_12  and  C_13 
REMARK    5  A    between atoms: C_18  and  C_19 
REMARK    6  A    between atoms: C_29  and  C_30 
ROOT
HETATM    1  C   UNL     1      -4.329   4.288 -31.698  1.00  0.00     0.148 A 
HETATM    2  N   UNL     1      -4.376   3.182 -30.918  1.00  0.00    -0.165 NA
HETATM    3  N   UNL     1      -5.186   2.356 -31.602  1.00  0.00    -0.240 N 
HETATM    4  C   UNL     1      -5.703   2.900 -32.744  1.00  0.00     0.123 A 
HETATM    5  N   UNL     1      -6.618   2.241 -33.482  1.00  0.00    -0.366 N 
HETATM    6  C   UNL     1      -7.298   1.041 -33.000  1.00  0.00     0.118 C 
HETATM    7  C   UNL     1      -7.068   0.822 -31.488  1.00  0.00     0.066 C 
HETATM    8  C   UNL     1      -5.606   1.070 -31.081  1.00  0.00     0.221 C 
HETATM    9  C   UNL     1      -5.126   4.133 -32.866  1.00  0.00     0.088 A 
HETATM   10  H   UNL     1      -7.004   2.656 -34.330  1.00  0.00     0.161 HD
ENDROOT
BRANCH   1  11
HETATM   11  C   UNL     1      -3.570   5.491 -31.324  1.00  0.00     0.272 C 
HETATM   12  N   UNL     1      -2.607   5.847 -32.242  1.00  0.00    -0.355 N 
HETATM   13  H   UNL     1      -2.676   5.375 -33.140  1.00  0.00     0.162 HD
HETATM   14  O   UNL     1      -3.779   6.113 -30.287  1.00  0.00    -0.266 OA
BRANCH  12  15
HETATM   15  C   UNL     1      -1.861   7.079 -32.110  1.00  0.00     0.127 C 
BRANCH  15  16
HETATM   16  C   UNL     1      -0.359   6.858 -31.929  1.00  0.00     0.060 C 
BRANCH  16  17
HETATM   17  C   UNL     1      -0.009   6.347 -30.565  1.00  0.00    -0.029 A 
HETATM   18  C   UNL     1      -0.200   7.018 -29.314  1.00  0.00    -0.002 A 
HETATM   19  C   UNL     1      -0.722   8.274 -28.940  1.00  0.00     0.014 A 
HETATM   20  C   UNL     1       0.251   6.162 -28.309  1.00  0.00     0.042 A 
HETATM   21  C   UNL     1      -0.774   8.624 -27.586  1.00  0.00     0.001 A 
HETATM   22  C   UNL     1      -0.317   7.745 -26.607  1.00  0.00     0.002 A 
HETATM   23  C   UNL     1       0.205   6.495 -26.950  1.00  0.00     0.030 A 
HETATM   24  N   UNL     1       0.704   5.018 -28.923  1.00  0.00    -0.365 N 
HETATM   25  H   UNL     1       1.086   4.220 -28.436  1.00  0.00     0.165 HD
HETATM   26  C   UNL     1       0.557   5.120 -30.279  1.00  0.00     0.096 A 
ENDBRANCH  16  17
ENDBRANCH  15  16
ENDBRANCH  12  15
ENDBRANCH   1  11
BRANCH   8  27
HETATM   27  C   UNL     1      -4.673  -0.018 -31.561  1.00  0.00     0.409 C 
HETATM   28  F   UNL     1      -3.682  -0.278 -30.682  1.00  0.00    -0.169 F 
HETATM   29  F   UNL     1      -5.368  -1.177 -31.712  1.00  0.00    -0.169 F 
HETATM   30  F   UNL     1      -4.106   0.245 -32.757  1.00  0.00    -0.169 F 
ENDBRANCH   8  27
BRANCH   6  31
HETATM   31  C   UNL     1      -8.777   1.167 -33.333  1.00  0.00    -0.033 A 
HETATM   32  C   UNL     1      -9.245   2.233 -34.128  1.00  0.00     0.049 A 
HETATM   33  C   UNL     1     -10.587   2.284 -34.435  1.00  0.00     0.105 A 
HETATM   34  C   UNL     1     -11.467   1.327 -33.994  1.00  0.00     0.105 A 
HETATM   35  O   UNL     1     -11.190   3.239 -35.192  1.00  0.00    -0.323 OA
HETATM   36  O   UNL     1     -12.738   1.557 -34.418  1.00  0.00    -0.323 OA
HETATM   37  C   UNL     1     -11.053   0.265 -33.218  1.00  0.00     0.040 A 
HETATM   38  C   UNL     1     -12.554   2.766 -35.184  1.00  0.00     0.352 A 
HETATM   39  C   UNL     1      -9.695   0.188 -32.887  1.00  0.00     0.012 A 
ENDBRANCH   6  31
TORSDOF 6
ENDMDL
MODEL 8
REMARK VINA RESULT:      -9.9      4.183     10.559
REMARK  6 active torsions:
REMARK  status: ('A' for Active; 'I' for Inactive)
REMARK    1  A    between atoms: C_8  and  C_9 
REMARK    2  A    between atoms: C_9  and  C_10 
REMARK    3  A    between atoms: C_10  and  N_11 
REMARK       I    between atoms: N_11  and  C_12 
REMARK    4  A    between atoms: C_12  and  C_13 
REMARK    5  A    between atoms: C_18  and  C_19 
REMARK    6  A    between atoms: C_29  and  C_30 
ROOT
HETATM    1  C   UNL     1      -4.734   3.949 -33.228  1.00  0.00     0.148 A 
HETATM    2  N   UNL     1      -4.922   3.390 -32.009  1.00  0.00    -0.165 NA
HETATM    3  N   UNL     1      -5.921   2.516 -32.221  1.00  0.00    -0.240 N 
HETATM    4  C   UNL     1      -6.417   2.532 -33.493  1.00  0.00     0.123 A 
HETATM    5  N   UNL     1      -7.492   1.795 -33.837  1.00  0.00    -0.366 N 
HETATM    6  C   UNL     1      -8.341   1.139 -32.845  1.00  0.00     0.118 C 
HETATM    7  C   UNL     1      -8.038   1.636 -31.414  1.00  0.00     0.066 C 
HETATM    8  C   UNL     1      -6.528   1.754 -31.148  1.00  0.00     0.221 C 
HETATM    9  C   UNL     1      -5.634   3.411 -34.189  1.00  0.00     0.088 A 
HETATM   10  H   UNL     1      -7.860   1.816 -34.787  1.00  0.00     0.161 HD
ENDROOT
BRANCH   1  11
HETATM   11  C   UNL     1      -3.740   5.005 -33.472  1.00  0.00     0.272 C 
HETATM   12  N   UNL     1      -2.568   4.838 -32.767  1.00  0.00    -0.355 N 
HETATM   13  H   UNL     1      -2.453   3.922 -32.338  1.00  0.00     0.162 HD
HETATM   14  O   UNL     1      -3.942   5.945 -34.234  1.00  0.00    -0.266 OA
BRANCH  12  15
HETATM   15  C   UNL     1      -1.428   5.699 -32.988  1.00  0.00     0.127 C 
BRANCH  15  16
HETATM   16  C   UNL     1      -1.267   6.774 -31.913  1.00  0.00     0.060 C 
BRANCH  16  17
HETATM   17  C   UNL     1      -0.519   6.283 -30.711  1.00  0.00    -0.029 A 
HETATM   18  C   UNL     1      -0.339   6.966 -29.464  1.00  0.00    -0.002 A 
HETATM   19  C   UNL     1      -0.743   8.219 -28.962  1.00  0.00     0.014 A 
HETATM   20  C   UNL     1       0.403   6.126 -28.633  1.00  0.00     0.042 A 
HETATM   21  C   UNL     1      -0.395   8.585 -27.656  1.00  0.00     0.001 A 
HETATM   22  C   UNL     1       0.345   7.722 -26.851  1.00  0.00     0.002 A 
HETATM   23  C   UNL     1       0.760   6.475 -27.325  1.00  0.00     0.030 A 
HETATM   24  N   UNL     1       0.669   4.981 -29.346  1.00  0.00    -0.365 N 
HETATM   25  H   UNL     1       1.191   4.193 -28.989  1.00  0.00     0.165 HD
HETATM   26  C   UNL     1       0.124   5.066 -30.598  1.00  0.00     0.096 A 
ENDBRANCH  16  17
ENDBRANCH  15  16
ENDBRANCH  12  15
ENDBRANCH   1  11
BRANCH   8  27
HETATM   27  C   UNL     1      -5.852   0.409 -31.014  1.00  0.00     0.409 C 
HETATM   28  F   UNL     1      -5.310  -0.018 -32.174  1.00  0.00    -0.169 F 
HETATM   29  F   UNL     1      -4.829   0.502 -30.123  1.00  0.00    -0.169 F 
HETATM   30  F   UNL     1      -6.668  -0.563 -30.556  1.00  0.00    -0.169 F 
ENDBRANCH   8  27
BRANCH   6  31
HETATM   31  C   UNL     1      -9.793   1.379 -33.230  1.00  0.00    -0.033 A 
HETATM   32  C   UNL     1     -10.735   0.332 -33.165  1.00  0.00     0.049 A 
HETATM   33  C   UNL     1     -12.046   0.606 -33.486  1.00  0.00     0.105 A 
HETATM   34  C   UNL     1     -12.451   1.864 -33.858  1.00  0.00     0.105 A 
HETATM   35  O   UNL     1     -13.070  -0.287 -33.467  1.00  0.00    -0.323 OA
HETATM   36  O   UNL     1     -13.784   1.922 -34.120  1.00  0.00    -0.323 OA
HETATM   37  C   UNL     1     -11.566   2.918 -33.931  1.00  0.00     0.040 A 
HETATM   38  C   UNL     1     -14.172   0.557 -33.863  1.00  0.00     0.352 A 
HETATM   39  C   UNL     1     -10.226   2.670 -33.614  1.00  0.00     0.012 A 
ENDBRANCH   6  31
TORSDOF 6
ENDMDL
MODEL 9
REMARK VINA RESULT:      -9.8      3.681      9.441
REMARK  6 active torsions:
REMARK  status: ('A' for Active; 'I' for Inactive)
REMARK    1  A    between atoms: C_8  and  C_9 
REMARK    2  A    between atoms: C_9  and  C_10 
REMARK    3  A    between atoms: C_10  and  N_11 
REMARK       I    between atoms: N_11  and  C_12 
REMARK    4  A    between atoms: C_12  and  C_13 
REMARK    5  A    between atoms: C_18  and  C_19 
REMARK    6  A    between atoms: C_29  and  C_30 
ROOT
HETATM    1  C   UNL     1      -6.095   4.962 -30.703  1.00  0.00     0.148 A 
HETATM    2  N   UNL     1      -7.156   4.970 -31.545  1.00  0.00    -0.165 NA
HETATM    3  N   UNL     1      -7.430   3.665 -31.710  1.00  0.00    -0.240 N 
HETATM    4  C   UNL     1      -6.565   2.827 -31.066  1.00  0.00     0.123 A 
HETATM    5  N   UNL     1      -6.637   1.490 -31.220  1.00  0.00    -0.366 N 
HETATM    6  C   UNL     1      -7.456   0.864 -32.256  1.00  0.00     0.118 C 
HETATM    7  C   UNL     1      -7.955   1.896 -33.292  1.00  0.00     0.066 C 
HETATM    8  C   UNL     1      -8.448   3.193 -32.628  1.00  0.00     0.221 C 
HETATM    9  C   UNL     1      -5.718   3.634 -30.358  1.00  0.00     0.088 A 
HETATM   10  H   UNL     1      -5.984   0.871 -30.742  1.00  0.00     0.161 HD
ENDROOT
BRANCH   1  11
HETATM   11  C   UNL     1      -5.424   6.193 -30.260  1.00  0.00     0.272 C 
HETATM   12  N   UNL     1      -4.411   5.978 -29.352  1.00  0.00    -0.355 N 
HETATM   13  H   UNL     1      -4.118   5.008 -29.259  1.00  0.00     0.162 HD
HETATM   14  O   UNL     1      -5.743   7.306 -30.666  1.00  0.00    -0.266 OA
BRANCH  12  15
HETATM   15  C   UNL     1      -3.552   7.055 -28.914  1.00  0.00     0.127 C 
BRANCH  15  16
HETATM   16  C   UNL     1      -2.111   6.913 -29.404  1.00  0.00     0.060 C 
BRANCH  16  17
HETATM   17  C   UNL     1      -1.977   7.131 -30.880  1.00  0.00    -0.029 A 
HETATM   18  C   UNL     1      -2.066   6.142 -31.913  1.00  0.00    -0.002 A 
HETATM   19  C   UNL     1      -2.280   4.749 -31.926  1.00  0.00     0.014 A 
HETATM   20  C   UNL     1      -1.900   6.798 -33.134  1.00  0.00     0.042 A 
HETATM   21  C   UNL     1      -2.321   4.067 -33.148  1.00  0.00     0.001 A 
HETATM   22  C   UNL     1      -2.153   4.753 -34.349  1.00  0.00     0.002 A 
HETATM   23  C   UNL     1      -1.939   6.133 -34.364  1.00  0.00     0.030 A 
HETATM   24  N   UNL     1      -1.711   8.131 -32.855  1.00  0.00    -0.365 N 
HETATM   25  H   UNL     1      -1.567   8.847 -33.553  1.00  0.00     0.165 HD
HETATM   26  C   UNL     1      -1.750   8.342 -31.504  1.00  0.00     0.096 A 
ENDBRANCH  16  17
ENDBRANCH  15  16
ENDBRANCH  12  15
ENDBRANCH   1  11
BRANCH   8  27
HETATM   27  C   UNL     1      -9.763   3.018 -31.907  1.00  0.00     0.409 C 
HETATM   28  F   UNL     1     -10.537   4.123 -31.959  1.00  0.00    -0.169 F 
HETATM   29  F   UNL     1     -10.475   2.021 -32.497  1.00  0.00    -0.169 F 
HETATM   30  F   UNL     1      -9.626   2.671 -30.610  1.00  0.00    -0.169 F 
ENDBRANCH   8  27
BRANCH   6  31
HETATM   31  C   UNL     1      -6.636  -0.238 -32.908  1.00  0.00    -0.033 A 
HETATM   32  C   UNL     1      -7.271  -1.299 -33.586  1.00  0.00     0.049 A 
HETATM   33  C   UNL     1      -6.486  -2.254 -34.194  1.00  0.00     0.105 A 
HETATM   34  C   UNL     1      -5.115  -2.192 -34.161  1.00  0.00     0.105 A 
HETATM   35  O   UNL     1      -6.942  -3.330 -34.888  1.00  0.00    -0.323 OA
HETATM   36  O   UNL     1      -4.533  -3.222 -34.831  1.00  0.00    -0.323 OA
HETATM   37  C   UNL     1      -4.452  -1.171 -33.514  1.00  0.00     0.040 A 
HETATM   38  C   UNL     1      -5.697  -3.935 -35.296  1.00  0.00     0.352 A 
HETATM   39  C   UNL     1      -5.223  -0.187 -32.884  1.00  0.00     0.012 A 
ENDBRANCH   6  31
TORSDOF 6
ENDMDL
MODEL 10
REMARK VINA RESULT:      -9.7      6.705      9.508
REMARK  6 active torsions:
REMARK  status: ('A' for Active; 'I' for Inactive)
REMARK    1  A    between atoms: C_8  and  C_9 
REMARK    2  A    between atoms: C_9  and  C_10 
REMARK    3  A    between atoms: C_10  and  N_11 
REMARK       I    between atoms: N_11  and  C_12 
REMARK    4  A    between atoms: C_12  and  C_13 
REMARK    5  A    between atoms: C_18  and  C_19 
REMARK    6  A    between atoms: C_29  and  C_30 
ROOT
HETATM    1  C   UNL     1      -8.974   2.082 -32.864  1.00  0.00     0.148 A 
HETATM    2  N   UNL     1     -10.259   1.768 -32.573  1.00  0.00    -0.165 NA
HETATM    3  N   UNL     1     -10.954   2.379 -33.548  1.00  0.00    -0.240 N 
HETATM    4  C   UNL     1     -10.185   3.111 -34.407  1.00  0.00     0.123 A 
HETATM    5  N   UNL     1     -10.740   3.871 -35.372  1.00  0.00    -0.366 N 
HETATM    6  C   UNL     1     -12.172   4.164 -35.412  1.00  0.00     0.118 C 
HETATM    7  C   UNL     1     -12.874   3.766 -34.094  1.00  0.00     0.066 C 
HETATM    8  C   UNL     1     -12.403   2.396 -33.577  1.00  0.00     0.221 C 
HETATM    9  C   UNL     1      -8.890   2.897 -34.026  1.00  0.00     0.088 A 
HETATM   10  H   UNL     1     -10.161   4.420 -36.006  1.00  0.00     0.161 HD
ENDROOT
BRANCH   1  11
HETATM   11  C   UNL     1      -7.843   1.645 -32.031  1.00  0.00     0.272 C 
HETATM   12  N   UNL     1      -7.167   0.558 -32.538  1.00  0.00    -0.355 N 
HETATM   13  H   UNL     1      -7.392   0.325 -33.503  1.00  0.00     0.162 HD
HETATM   14  O   UNL     1      -7.537   2.203 -30.981  1.00  0.00    -0.266 OA
BRANCH  12  15
HETATM   15  C   UNL     1      -5.946   0.079 -31.928  1.00  0.00     0.127 C 
BRANCH  15  16
HETATM   16  C   UNL     1      -4.817  -0.143 -32.934  1.00  0.00     0.060 C 
BRANCH  16  17
HETATM   17  C   UNL     1      -4.443  -1.588 -33.074  1.00  0.00    -0.029 A 
HETATM   18  C   UNL     1      -5.114  -2.584 -33.855  1.00  0.00    -0.002 A 
HETATM   19  C   UNL     1      -6.256  -2.581 -34.683  1.00  0.00     0.014 A 
HETATM   20  C   UNL     1      -4.408  -3.777 -33.704  1.00  0.00     0.042 A 
HETATM   21  C   UNL     1      -6.645  -3.762 -35.326  1.00  0.00     0.001 A 
HETATM   22  C   UNL     1      -5.916  -4.937 -35.156  1.00  0.00     0.002 A 
HETATM   23  C   UNL     1      -4.782  -4.967 -34.340  1.00  0.00     0.030 A 
HETATM   24  N   UNL     1      -3.352  -3.520 -32.861  1.00  0.00    -0.365 N 
HETATM   25  H   UNL     1      -2.667  -4.205 -32.577  1.00  0.00     0.165 HD
HETATM   26  C   UNL     1      -3.366  -2.209 -32.472  1.00  0.00     0.096 A 
ENDBRANCH  16  17
ENDBRANCH  15  16
ENDBRANCH  12  15
ENDBRANCH   1  11
BRANCH   8  27
HETATM   27  C   UNL     1     -12.923   1.247 -34.409  1.00  0.00     0.409 C 
HETATM   28  F   UNL     1     -12.917   0.074 -33.739  1.00  0.00    -0.169 F 
HETATM   29  F   UNL     1     -14.216   1.485 -34.754  1.00  0.00    -0.169 F 
HETATM   30  F   UNL     1     -12.248   1.066 -35.564  1.00  0.00    -0.169 F 
ENDBRANCH   8  27
BRANCH   6  31
HETATM   31  C   UNL     1     -12.345   5.644 -35.717  1.00  0.00    -0.033 A 
HETATM   32  C   UNL     1     -13.553   6.128 -36.258  1.00  0.00     0.049 A 
HETATM   33  C   UNL     1     -13.678   7.482 -36.482  1.00  0.00     0.105 A 
HETATM   34  C   UNL     1     -12.664   8.360 -36.188  1.00  0.00     0.105 A 
HETATM   35  O   UNL     1     -14.775   8.103 -36.990  1.00  0.00    -0.323 OA
HETATM   36  O   UNL     1     -12.995   9.647 -36.473  1.00  0.00    -0.323 OA
HETATM   37  C   UNL     1     -11.467   7.932 -35.655  1.00  0.00     0.040 A 
HETATM   38  C   UNL     1     -14.338   9.478 -36.973  1.00  0.00     0.352 A 
HETATM   39  C   UNL     1     -11.310   6.561 -35.418  1.00  0.00     0.012 A 
ENDBRANCH   6  31
TORSDOF 6
ENDMDL
