MODEL 1
REMARK VINA RESULT:      -8.3      0.000      0.000
REMARK  5 active torsions:
REMARK  status: ('A' for Active; 'I' for Inactive)
REMARK    1  A    between atoms: C_2  and  N_3 
REMARK    2  A    between atoms: C_6  and  N_7 
REMARK       I    between atoms: N_7  and  C_8 
REMARK       I    between atoms: C_8  and  N_9 
REMARK    3  A    between atoms: N_9  and  C_10 
REMARK    4  A    between atoms: C_10  and  C_11 
REMARK    5  A    between atoms: C_12  and  C_13 
ROOT
HETATM    1  N   UNL     1      -8.631   0.604 -31.517  1.00  0.00    -0.306 N 
HETATM    2  C   UNL     1      -7.328   0.318 -31.770  1.00  0.00     0.321 C 
HETATM    3  N   UNL     1      -6.846   0.534 -33.025  1.00  0.00    -0.339 N 
HETATM    4  O   UNL     1      -6.640  -0.140 -30.859  1.00  0.00    -0.247 OA
HETATM    5  H   UNL     1      -8.902   0.327 -30.582  1.00  0.00     0.171 HD
HETATM    6  H   UNL     1      -7.521   0.388 -33.761  1.00  0.00     0.164 HD
ENDROOT
BRANCH   3   7
HETATM    7  C   UNL     1      -5.489   0.136 -33.345  1.00  0.00     0.163 C 
BRANCH   7   8
HETATM    8  C   UNL     1      -5.319  -1.337 -33.667  1.00  0.00    -0.022 A 
HETATM    9  C   UNL     1      -4.213  -2.059 -33.143  1.00  0.00     0.056 A 
HETATM   10  C   UNL     1      -4.030  -3.411 -33.502  1.00  0.00     0.020 A 
HETATM   11  C   UNL     1      -4.920  -4.047 -34.364  1.00  0.00     0.043 A 
HETATM   12  C   UNL     1      -5.993  -3.336 -34.878  1.00  0.00     0.117 A 
HETATM   13  F   UNL     1      -6.843  -3.941 -35.718  1.00  0.00    -0.206 F 
HETATM   14  C   UNL     1      -6.196  -1.999 -34.546  1.00  0.00     0.052 A 
BRANCH   9  15
HETATM   15  C   UNL     1      -3.194  -1.401 -32.230  1.00  0.00     0.418 C 
HETATM   16  F   UNL     1      -2.519  -0.388 -32.841  1.00  0.00    -0.166 F 
HETATM   17  F   UNL     1      -3.740  -0.852 -31.109  1.00  0.00    -0.166 F 
HETATM   18  F   UNL     1      -2.248  -2.275 -31.792  1.00  0.00    -0.166 F 
ENDBRANCH   9  15
ENDBRANCH   7   8
ENDBRANCH   3   7
BRANCH   1  19
HETATM   19  C   UNL     1      -9.597   1.241 -32.267  1.00  0.00     0.072 A 
HETATM   20  C   UNL     1     -10.061   2.570 -32.338  1.00  0.00     0.169 A 
HETATM   21  N   UNL     1     -11.029   2.729 -33.248  1.00  0.00    -0.183 NA
HETATM   22  N   UNL     1     -11.211   1.490 -33.742  1.00  0.00    -0.275 N 
HETATM   23  C   UNL     1     -10.385   0.563 -33.169  1.00  0.00     0.143 A 
BRANCH  22  24
HETATM   24  C   UNL     1     -12.220   1.262 -34.771  1.00  0.00     0.101 C 
HETATM   25  C   UNL     1     -12.575   2.561 -35.494  1.00  0.00     0.034 C 
HETATM   26  C   UNL     1     -13.469   0.585 -34.203  1.00  0.00     0.034 C 
ENDBRANCH  22  24
ENDBRANCH   1  19
TORSDOF 5
ENDMDL
MODEL 2
REMARK VINA RESULT:      -8.0      4.289      6.270
REMARK  5 active torsions:
REMARK  status: ('A' for Active; 'I' for Inactive)
REMARK    1  A    between atoms: C_2  and  N_3 
REMARK    2  A    between atoms: C_6  and  N_7 
REMARK       I    between atoms: N_7  and  C_8 
REMARK       I    between atoms: C_8  and  N_9 
REMARK    3  A    between atoms: N_9  and  C_10 
REMARK    4  A    between atoms: C_10  and  C_11 
REMARK    5  A    between atoms: C_12  and  C_13 
ROOT
HETATM    1  N   UNL     1      -5.671   4.025 -31.809  1.00  0.00    -0.306 N 
HETATM    2  C   UNL     1      -5.733   2.756 -31.333  1.00  0.00     0.321 C 
HETATM    3  N   UNL     1      -5.182   1.755 -32.074  1.00  0.00    -0.339 N 
HETATM    4  O   UNL     1      -6.300   2.559 -30.260  1.00  0.00    -0.247 OA
HETATM    5  H   UNL     1      -6.183   4.672 -31.224  1.00  0.00     0.171 HD
HETATM    6  H   UNL     1      -5.237   1.897 -33.072  1.00  0.00     0.164 HD
ENDROOT
BRANCH   3   7
HETATM    7  C   UNL     1      -5.329   0.380 -31.637  1.00  0.00     0.163 C 
BRANCH   7   8
HETATM    8  C   UNL     1      -5.600  -0.613 -32.753  1.00  0.00    -0.022 A 
HETATM    9  C   UNL     1      -6.918  -0.768 -33.265  1.00  0.00     0.056 A 
HETATM   10  C   UNL     1      -7.170  -1.740 -34.256  1.00  0.00     0.020 A 
HETATM   11  C   UNL     1      -6.144  -2.551 -34.736  1.00  0.00     0.043 A 
HETATM   12  C   UNL     1      -4.863  -2.400 -34.228  1.00  0.00     0.117 A 
HETATM   13  F   UNL     1      -3.879  -3.187 -34.680  1.00  0.00    -0.206 F 
HETATM   14  C   UNL     1      -4.586  -1.453 -33.246  1.00  0.00     0.052 A 
BRANCH   9  15
HETATM   15  C   UNL     1      -8.076   0.065 -32.746  1.00  0.00     0.418 C 
HETATM   16  F   UNL     1      -9.288  -0.451 -33.089  1.00  0.00    -0.166 F 
HETATM   17  F   UNL     1      -8.099   0.181 -31.388  1.00  0.00    -0.166 F 
HETATM   18  F   UNL     1      -8.056   1.337 -33.228  1.00  0.00    -0.166 F 
ENDBRANCH   9  15
ENDBRANCH   7   8
ENDBRANCH   3   7
BRANCH   1  19
HETATM   19  C   UNL     1      -5.001   4.576 -32.882  1.00  0.00     0.072 A 
HETATM   20  C   UNL     1      -5.241   4.614 -34.270  1.00  0.00     0.169 A 
HETATM   21  N   UNL     1      -4.301   5.293 -34.936  1.00  0.00    -0.183 NA
HETATM   22  N   UNL     1      -3.434   5.667 -33.976  1.00  0.00    -0.275 N 
HETATM   23  C   UNL     1      -3.806   5.242 -32.731  1.00  0.00     0.143 A 
BRANCH  22  24
HETATM   24  C   UNL     1      -2.245   6.433 -34.333  1.00  0.00     0.101 C 
HETATM   25  C   UNL     1      -1.099   5.512 -34.749  1.00  0.00     0.034 C 
HETATM   26  C   UNL     1      -1.817   7.375 -33.207  1.00  0.00     0.034 C 
ENDBRANCH  22  24
ENDBRANCH   1  19
TORSDOF 5
ENDMDL
MODEL 3
REMARK VINA RESULT:      -8.0      4.152      6.421
REMARK  5 active torsions:
REMARK  status: ('A' for Active; 'I' for Inactive)
REMARK    1  A    between atoms: C_2  and  N_3 
REMARK    2  A    between atoms: C_6  and  N_7 
REMARK       I    between atoms: N_7  and  C_8 
REMARK       I    between atoms: C_8  and  N_9 
REMARK    3  A    between atoms: N_9  and  C_10 
REMARK    4  A    between atoms: C_10  and  C_11 
REMARK    5  A    between atoms: C_12  and  C_13 
ROOT
HETATM    1  N   UNL     1      -6.755   4.474 -33.926  1.00  0.00    -0.306 N 
HETATM    2  C   UNL     1      -7.108   3.177 -33.732  1.00  0.00     0.321 C 
HETATM    3  N   UNL     1      -6.164   2.307 -33.278  1.00  0.00    -0.339 N 
HETATM    4  O   UNL     1      -8.262   2.838 -33.990  1.00  0.00    -0.247 OA
HETATM    5  H   UNL     1      -7.506   5.009 -34.343  1.00  0.00     0.171 HD
HETATM    6  H   UNL     1      -5.227   2.508 -33.594  1.00  0.00     0.164 HD
ENDROOT
BRANCH   3   7
HETATM    7  C   UNL     1      -6.488   0.898 -33.165  1.00  0.00     0.163 C 
BRANCH   7   8
HETATM    8  C   UNL     1      -5.304  -0.002 -32.865  1.00  0.00    -0.022 A 
HETATM    9  C   UNL     1      -5.216  -1.289 -33.464  1.00  0.00     0.056 A 
HETATM   10  C   UNL     1      -4.145  -2.142 -33.127  1.00  0.00     0.020 A 
HETATM   11  C   UNL     1      -3.173  -1.740 -32.214  1.00  0.00     0.043 A 
HETATM   12  C   UNL     1      -3.268  -0.488 -31.628  1.00  0.00     0.117 A 
HETATM   13  F   UNL     1      -2.342  -0.106 -30.739  1.00  0.00    -0.206 F 
HETATM   14  C   UNL     1      -4.317   0.373 -31.936  1.00  0.00     0.052 A 
BRANCH   9  15
HETATM   15  C   UNL     1      -6.271  -1.786 -34.436  1.00  0.00     0.418 C 
HETATM   16  F   UNL     1      -5.924  -2.962 -35.030  1.00  0.00    -0.166 F 
HETATM   17  F   UNL     1      -7.483  -2.013 -33.857  1.00  0.00    -0.166 F 
HETATM   18  F   UNL     1      -6.501  -0.906 -35.447  1.00  0.00    -0.166 F 
ENDBRANCH   9  15
ENDBRANCH   7   8
ENDBRANCH   3   7
BRANCH   1  19
HETATM   19  C   UNL     1      -5.612   5.176 -33.606  1.00  0.00     0.072 A 
HETATM   20  C   UNL     1      -5.210   5.932 -32.487  1.00  0.00     0.169 A 
HETATM   21  N   UNL     1      -3.975   6.430 -32.619  1.00  0.00    -0.183 NA
HETATM   22  N   UNL     1      -3.594   6.020 -33.844  1.00  0.00    -0.275 N 
HETATM   23  C   UNL     1      -4.552   5.280 -34.478  1.00  0.00     0.143 A 
BRANCH  22  24
HETATM   24  C   UNL     1      -2.278   6.390 -34.354  1.00  0.00     0.101 C 
HETATM   25  C   UNL     1      -1.495   5.158 -34.808  1.00  0.00     0.034 C 
HETATM   26  C   UNL     1      -1.482   7.207 -33.335  1.00  0.00     0.034 C 
ENDBRANCH  22  24
ENDBRANCH   1  19
TORSDOF 5
ENDMDL
MODEL 4
REMARK VINA RESULT:      -7.8      4.653      7.135
REMARK  5 active torsions:
REMARK  status: ('A' for Active; 'I' for Inactive)
REMARK    1  A    between atoms: C_2  and  N_3 
REMARK    2  A    between atoms: C_6  and  N_7 
REMARK       I    between atoms: N_7  and  C_8 
REMARK       I    between atoms: C_8  and  N_9 
REMARK    3  A    between atoms: N_9  and  C_10 
REMARK    4  A    between atoms: C_10  and  C_11 
REMARK    5  A    between atoms: C_12  and  C_13 
ROOT
HETATM    1  N   UNL     1      -4.095   3.617 -30.693  1.00  0.00    -0.306 N 
HETATM    2  C   UNL     1      -4.895   2.539 -30.892  1.00  0.00     0.321 C 
HETATM    3  N   UNL     1      -4.954   1.993 -32.139  1.00  0.00    -0.339 N 
HETATM    4  O   UNL     1      -5.547   2.109 -29.942  1.00  0.00    -0.247 OA
HETATM    5  H   UNL     1      -4.193   3.990 -29.758  1.00  0.00     0.171 HD
HETATM    6  H   UNL     1      -4.849   2.658 -32.890  1.00  0.00     0.164 HD
ENDROOT
BRANCH   3   7
HETATM    7  C   UNL     1      -5.881   0.908 -32.399  1.00  0.00     0.163 C 
BRANCH   7   8
HETATM    8  C   UNL     1      -5.226  -0.403 -32.795  1.00  0.00    -0.022 A 
HETATM    9  C   UNL     1      -5.763  -1.174 -33.862  1.00  0.00     0.056 A 
HETATM   10  C   UNL     1      -5.187  -2.422 -34.178  1.00  0.00     0.020 A 
HETATM   11  C   UNL     1      -4.098  -2.908 -33.457  1.00  0.00     0.043 A 
HETATM   12  C   UNL     1      -3.584  -2.154 -32.413  1.00  0.00     0.117 A 
HETATM   13  F   UNL     1      -2.546  -2.626 -31.710  1.00  0.00    -0.206 F 
HETATM   14  C   UNL     1      -4.136  -0.922 -32.075  1.00  0.00     0.052 A 
BRANCH   9  15
HETATM   15  C   UNL     1      -6.972  -0.706 -34.652  1.00  0.00     0.418 C 
HETATM   16  F   UNL     1      -8.003  -0.317 -33.852  1.00  0.00    -0.166 F 
HETATM   17  F   UNL     1      -6.715   0.360 -35.461  1.00  0.00    -0.166 F 
HETATM   18  F   UNL     1      -7.469  -1.678 -35.464  1.00  0.00    -0.166 F 
ENDBRANCH   9  15
ENDBRANCH   7   8
ENDBRANCH   3   7
BRANCH   1  19
HETATM   19  C   UNL     1      -3.158   4.230 -31.498  1.00  0.00     0.072 A 
HETATM   20  C   UNL     1      -2.540   3.886 -32.717  1.00  0.00     0.169 A 
HETATM   21  N   UNL     1      -1.684   4.822 -33.142  1.00  0.00    -0.183 NA
HETATM   22  N   UNL     1      -1.726   5.758 -32.175  1.00  0.00    -0.275 N 
HETATM   23  C   UNL     1      -2.584   5.435 -31.161  1.00  0.00     0.143 A 
BRANCH  22  24
HETATM   24  C   UNL     1      -0.894   6.952 -32.286  1.00  0.00     0.101 C 
HETATM   25  C   UNL     1       0.301   6.882 -31.336  1.00  0.00     0.034 C 
HETATM   26  C   UNL     1      -1.703   8.231 -32.065  1.00  0.00     0.034 C 
ENDBRANCH  22  24
ENDBRANCH   1  19
TORSDOF 5
ENDMDL
MODEL 5
REMARK VINA RESULT:      -7.7      4.179      5.935
REMARK  5 active torsions:
REMARK  status: ('A' for Active; 'I' for Inactive)
REMARK    1  A    between atoms: C_2  and  N_3 
REMARK    2  A    between atoms: C_6  and  N_7 
REMARK       I    between atoms: N_7  and  C_8 
REMARK       I    between atoms: C_8  and  N_9 
REMARK    3  A    between atoms: N_9  and  C_10 
REMARK    4  A    between atoms: C_10  and  C_11 
REMARK    5  A    between atoms: C_12  and  C_13 
ROOT
HETATM    1  N   UNL     1      -6.290   4.140 -34.149  1.00  0.00    -0.306 N 
HETATM    2  C   UNL     1      -6.665   3.057 -33.421  1.00  0.00     0.321 C 
HETATM    3  N   UNL     1      -5.724   2.420 -32.670  1.00  0.00    -0.339 N 
HETATM    4  O   UNL     1      -7.836   2.686 -33.482  1.00  0.00    -0.247 OA
HETATM    5  H   UNL     1      -7.044   4.481 -34.731  1.00  0.00     0.171 HD
HETATM    6  H   UNL     1      -4.796   2.434 -33.067  1.00  0.00     0.164 HD
ENDROOT
BRANCH   3   7
HETATM    7  C   UNL     1      -6.077   1.200 -31.970  1.00  0.00     0.163 C 
BRANCH   7   8
HETATM    8  C   UNL     1      -5.751  -0.078 -32.720  1.00  0.00    -0.022 A 
HETATM    9  C   UNL     1      -4.475  -0.688 -32.569  1.00  0.00     0.056 A 
HETATM   10  C   UNL     1      -4.160  -1.839 -33.321  1.00  0.00     0.020 A 
HETATM   11  C   UNL     1      -5.082  -2.384 -34.211  1.00  0.00     0.043 A 
HETATM   12  C   UNL     1      -6.321  -1.781 -34.360  1.00  0.00     0.117 A 
HETATM   13  F   UNL     1      -7.204  -2.295 -35.225  1.00  0.00    -0.206 F 
HETATM   14  C   UNL     1      -6.658  -0.641 -33.635  1.00  0.00     0.052 A 
BRANCH   9  15
HETATM   15  C   UNL     1      -3.423  -0.110 -31.640  1.00  0.00     0.418 C 
HETATM   16  F   UNL     1      -2.285  -0.858 -31.606  1.00  0.00    -0.166 F 
HETATM   17  F   UNL     1      -3.024   1.147 -31.983  1.00  0.00    -0.166 F 
HETATM   18  F   UNL     1      -3.857  -0.024 -30.354  1.00  0.00    -0.166 F 
ENDBRANCH   9  15
ENDBRANCH   7   8
ENDBRANCH   3   7
BRANCH   1  19
HETATM   19  C   UNL     1      -5.119   4.867 -34.183  1.00  0.00     0.072 A 
HETATM   20  C   UNL     1      -4.101   5.036 -35.142  1.00  0.00     0.169 A 
HETATM   21  N   UNL     1      -3.140   5.871 -34.731  1.00  0.00    -0.183 NA
HETATM   22  N   UNL     1      -3.525   6.216 -33.488  1.00  0.00    -0.275 N 
HETATM   23  C   UNL     1      -4.698   5.622 -33.112  1.00  0.00     0.143 A 
BRANCH  22  24
HETATM   24  C   UNL     1      -2.700   7.126 -32.700  1.00  0.00     0.101 C 
HETATM   25  C   UNL     1      -1.306   7.275 -33.309  1.00  0.00     0.034 C 
HETATM   26  C   UNL     1      -2.622   6.698 -31.234  1.00  0.00     0.034 C 
ENDBRANCH  22  24
ENDBRANCH   1  19
TORSDOF 5
ENDMDL
MODEL 6
REMARK VINA RESULT:      -7.3      5.120      6.811
REMARK  5 active torsions:
REMARK  status: ('A' for Active; 'I' for Inactive)
REMARK    1  A    between atoms: C_2  and  N_3 
REMARK    2  A    between atoms: C_6  and  N_7 
REMARK       I    between atoms: N_7  and  C_8 
REMARK       I    between atoms: C_8  and  N_9 
REMARK    3  A    between atoms: N_9  and  C_10 
REMARK    4  A    between atoms: C_10  and  C_11 
REMARK    5  A    between atoms: C_12  and  C_13 
ROOT
HETATM    1  N   UNL     1      -6.284   3.082 -29.458  1.00  0.00    -0.306 N 
HETATM    2  C   UNL     1      -5.522   4.178 -29.707  1.00  0.00     0.321 C 
HETATM    3  N   UNL     1      -4.605   4.119 -30.713  1.00  0.00    -0.339 N 
HETATM    4  O   UNL     1      -5.679   5.174 -29.003  1.00  0.00    -0.247 OA
HETATM    5  H   UNL     1      -6.867   3.207 -28.641  1.00  0.00     0.171 HD
HETATM    6  H   UNL     1      -4.194   3.207 -30.848  1.00  0.00     0.164 HD
ENDROOT
BRANCH   3   7
HETATM    7  C   UNL     1      -3.709   5.238 -30.927  1.00  0.00     0.163 C 
BRANCH   7   8
HETATM    8  C   UNL     1      -3.059   5.275 -32.298  1.00  0.00    -0.022 A 
HETATM    9  C   UNL     1      -1.656   5.475 -32.417  1.00  0.00     0.056 A 
HETATM   10  C   UNL     1      -1.073   5.573 -33.698  1.00  0.00     0.020 A 
HETATM   11  C   UNL     1      -1.855   5.478 -34.846  1.00  0.00     0.043 A 
HETATM   12  C   UNL     1      -3.223   5.290 -34.724  1.00  0.00     0.117 A 
HETATM   13  F   UNL     1      -3.978   5.212 -35.827  1.00  0.00    -0.206 F 
HETATM   14  C   UNL     1      -3.827   5.196 -33.474  1.00  0.00     0.052 A 
BRANCH   9  15
HETATM   15  C   UNL     1      -0.767   5.623 -31.195  1.00  0.00     0.418 C 
HETATM   16  F   UNL     1      -0.771   4.513 -30.407  1.00  0.00    -0.166 F 
HETATM   17  F   UNL     1       0.542   5.852 -31.497  1.00  0.00    -0.166 F 
HETATM   18  F   UNL     1      -1.151   6.655 -30.397  1.00  0.00    -0.166 F 
ENDBRANCH   9  15
ENDBRANCH   7   8
ENDBRANCH   3   7
BRANCH   1  19
HETATM   19  C   UNL     1      -6.440   1.894 -30.140  1.00  0.00     0.072 A 
HETATM   20  C   UNL     1      -5.894   0.603 -29.994  1.00  0.00     0.169 A 
HETATM   21  N   UNL     1      -6.362  -0.259 -30.903  1.00  0.00    -0.183 NA
HETATM   22  N   UNL     1      -7.189   0.488 -31.659  1.00  0.00    -0.275 N 
HETATM   23  C   UNL     1      -7.252   1.790 -31.247  1.00  0.00     0.143 A 
BRANCH  22  24
HETATM   24  C   UNL     1      -7.889  -0.121 -32.785  1.00  0.00     0.101 C 
HETATM   25  C   UNL     1      -6.957  -1.023 -33.592  1.00  0.00     0.034 C 
HETATM   26  C   UNL     1      -8.553   0.930 -33.676  1.00  0.00     0.034 C 
ENDBRANCH  22  24
ENDBRANCH   1  19
TORSDOF 5
ENDMDL
MODEL 7
REMARK VINA RESULT:      -7.1      3.205      4.451
REMARK  5 active torsions:
REMARK  status: ('A' for Active; 'I' for Inactive)
REMARK    1  A    between atoms: C_2  and  N_3 
REMARK    2  A    between atoms: C_6  and  N_7 
REMARK       I    between atoms: N_7  and  C_8 
REMARK       I    between atoms: C_8  and  N_9 
REMARK    3  A    between atoms: N_9  and  C_10 
REMARK    4  A    between atoms: C_10  and  C_11 
REMARK    5  A    between atoms: C_12  and  C_13 
ROOT
HETATM    1  N   UNL     1      -7.062   2.254 -29.499  1.00  0.00    -0.306 N 
HETATM    2  C   UNL     1      -6.092   1.644 -30.226  1.00  0.00     0.321 C 
HETATM    3  N   UNL     1      -5.844   2.093 -31.488  1.00  0.00    -0.339 N 
HETATM    4  O   UNL     1      -5.487   0.699 -29.722  1.00  0.00    -0.247 OA
HETATM    5  H   UNL     1      -7.219   1.788 -28.615  1.00  0.00     0.171 HD
HETATM    6  H   UNL     1      -6.657   2.444 -31.971  1.00  0.00     0.164 HD
ENDROOT
BRANCH   3   7
HETATM    7  C   UNL     1      -4.888   1.389 -32.320  1.00  0.00     0.163 C 
BRANCH   7   8
HETATM    8  C   UNL     1      -5.488   0.303 -33.195  1.00  0.00    -0.022 A 
HETATM    9  C   UNL     1      -4.865  -0.972 -33.277  1.00  0.00     0.056 A 
HETATM   10  C   UNL     1      -5.394  -1.951 -34.143  1.00  0.00     0.020 A 
HETATM   11  C   UNL     1      -6.518  -1.683 -34.920  1.00  0.00     0.043 A 
HETATM   12  C   UNL     1      -7.117  -0.436 -34.841  1.00  0.00     0.117 A 
HETATM   13  F   UNL     1      -8.191  -0.172 -35.598  1.00  0.00    -0.206 F 
HETATM   14  C   UNL     1      -6.614   0.552 -34.000  1.00  0.00     0.052 A 
BRANCH   9  15
HETATM   15  C   UNL     1      -3.615  -1.300 -32.479  1.00  0.00     0.418 C 
HETATM   16  F   UNL     1      -3.776  -1.091 -31.143  1.00  0.00    -0.166 F 
HETATM   17  F   UNL     1      -3.214  -2.596 -32.601  1.00  0.00    -0.166 F 
HETATM   18  F   UNL     1      -2.548  -0.544 -32.854  1.00  0.00    -0.166 F 
ENDBRANCH   9  15
ENDBRANCH   7   8
ENDBRANCH   3   7
BRANCH   1  19
HETATM   19  C   UNL     1      -7.801   3.397 -29.724  1.00  0.00     0.072 A 
HETATM   20  C   UNL     1      -8.992   3.669 -30.427  1.00  0.00     0.169 A 
HETATM   21  N   UNL     1      -9.348   4.956 -30.356  1.00  0.00    -0.183 NA
HETATM   22  N   UNL     1      -8.365   5.522 -29.631  1.00  0.00    -0.275 N 
HETATM   23  C   UNL     1      -7.406   4.626 -29.246  1.00  0.00     0.143 A 
BRANCH  22  24
HETATM   24  C   UNL     1      -8.404   6.954 -29.350  1.00  0.00     0.101 C 
HETATM   25  C   UNL     1      -8.117   7.771 -30.609  1.00  0.00     0.034 C 
HETATM   26  C   UNL     1      -7.455   7.336 -28.213  1.00  0.00     0.034 C 
ENDBRANCH  22  24
ENDBRANCH   1  19
TORSDOF 5
ENDMDL
MODEL 8
REMARK VINA RESULT:      -7.1      4.404      6.387
REMARK  5 active torsions:
REMARK  status: ('A' for Active; 'I' for Inactive)
REMARK    1  A    between atoms: C_2  and  N_3 
REMARK    2  A    between atoms: C_6  and  N_7 
REMARK       I    between atoms: N_7  and  C_8 
REMARK       I    between atoms: C_8  and  N_9 
REMARK    3  A    between atoms: N_9  and  C_10 
REMARK    4  A    between atoms: C_10  and  C_11 
REMARK    5  A    between atoms: C_12  and  C_13 
ROOT
HETATM    1  N   UNL     1      -5.172   3.726 -30.112  1.00  0.00    -0.306 N 
HETATM    2  C   UNL     1      -5.342   2.388 -30.265  1.00  0.00     0.321 C 
HETATM    3  N   UNL     1      -5.017   1.823 -31.461  1.00  0.00    -0.339 N 
HETATM    4  O   UNL     1      -5.798   1.743 -29.323  1.00  0.00    -0.247 OA
HETATM    5  H   UNL     1      -5.522   4.050 -29.219  1.00  0.00     0.171 HD
HETATM    6  H   UNL     1      -5.171   2.421 -32.259  1.00  0.00     0.164 HD
ENDROOT
BRANCH   3   7
HETATM    7  C   UNL     1      -5.290   0.416 -31.682  1.00  0.00     0.163 C 
BRANCH   7   8
HETATM    8  C   UNL     1      -6.181   0.125 -32.875  1.00  0.00    -0.022 A 
HETATM    9  C   UNL     1      -5.776  -0.824 -33.854  1.00  0.00     0.056 A 
HETATM   10  C   UNL     1      -6.582  -1.039 -34.992  1.00  0.00     0.020 A 
HETATM   11  C   UNL     1      -7.769  -0.331 -35.169  1.00  0.00     0.043 A 
HETATM   12  C   UNL     1      -8.155   0.597 -34.215  1.00  0.00     0.117 A 
HETATM   13  F   UNL     1      -9.289   1.288 -34.390  1.00  0.00    -0.206 F 
HETATM   14  C   UNL     1      -7.378   0.834 -33.085  1.00  0.00     0.052 A 
BRANCH   9  15
HETATM   15  C   UNL     1      -4.473  -1.592 -33.725  1.00  0.00     0.418 C 
HETATM   16  F   UNL     1      -4.322  -2.535 -34.695  1.00  0.00    -0.166 F 
HETATM   17  F   UNL     1      -3.365  -0.803 -33.806  1.00  0.00    -0.166 F 
HETATM   18  F   UNL     1      -4.374  -2.250 -32.539  1.00  0.00    -0.166 F 
ENDBRANCH   9  15
ENDBRANCH   7   8
ENDBRANCH   3   7
BRANCH   1  19
HETATM   19  C   UNL     1      -4.567   4.675 -30.909  1.00  0.00     0.072 A 
HETATM   20  C   UNL     1      -4.992   5.897 -31.467  1.00  0.00     0.169 A 
HETATM   21  N   UNL     1      -4.033   6.500 -32.178  1.00  0.00    -0.183 NA
HETATM   22  N   UNL     1      -2.994   5.646 -32.104  1.00  0.00    -0.275 N 
HETATM   23  C   UNL     1      -3.278   4.529 -31.367  1.00  0.00     0.143 A 
BRANCH  22  24
HETATM   24  C   UNL     1      -1.744   5.965 -32.785  1.00  0.00     0.101 C 
HETATM   25  C   UNL     1      -0.541   5.430 -32.009  1.00  0.00     0.034 C 
HETATM   26  C   UNL     1      -1.609   7.465 -33.051  1.00  0.00     0.034 C 
ENDBRANCH  22  24
ENDBRANCH   1  19
TORSDOF 5
ENDMDL
MODEL 9
REMARK VINA RESULT:      -6.8      4.811      6.910
REMARK  5 active torsions:
REMARK  status: ('A' for Active; 'I' for Inactive)
REMARK    1  A    between atoms: C_2  and  N_3 
REMARK    2  A    between atoms: C_6  and  N_7 
REMARK       I    between atoms: N_7  and  C_8 
REMARK       I    between atoms: C_8  and  N_9 
REMARK    3  A    between atoms: N_9  and  C_10 
REMARK    4  A    between atoms: C_10  and  C_11 
REMARK    5  A    between atoms: C_12  and  C_13 
ROOT
HETATM    1  N   UNL     1      -6.010   4.872 -30.420  1.00  0.00    -0.306 N 
HETATM    2  C   UNL     1      -6.317   3.570 -30.192  1.00  0.00     0.321 C 
HETATM    3  N   UNL     1      -5.301   2.666 -30.112  1.00  0.00    -0.339 N 
HETATM    4  O   UNL     1      -7.501   3.256 -30.083  1.00  0.00    -0.247 OA
HETATM    5  H   UNL     1      -6.840   5.438 -30.544  1.00  0.00     0.171 HD
HETATM    6  H   UNL     1      -4.510   2.877 -30.701  1.00  0.00     0.164 HD
ENDROOT
BRANCH   3   7
HETATM    7  C   UNL     1      -5.611   1.256 -29.976  1.00  0.00     0.163 C 
BRANCH   7   8
HETATM    8  C   UNL     1      -4.981   0.365 -31.031  1.00  0.00    -0.022 A 
HETATM    9  C   UNL     1      -5.773  -0.152 -32.093  1.00  0.00     0.056 A 
HETATM   10  C   UNL     1      -5.192  -1.032 -33.030  1.00  0.00     0.020 A 
HETATM   11  C   UNL     1      -3.853  -1.401 -32.927  1.00  0.00     0.043 A 
HETATM   12  C   UNL     1      -3.088  -0.899 -31.886  1.00  0.00     0.117 A 
HETATM   13  F   UNL     1      -1.804  -1.264 -31.777  1.00  0.00    -0.206 F 
HETATM   14  C   UNL     1      -3.635  -0.034 -30.943  1.00  0.00     0.052 A 
BRANCH   9  15
HETATM   15  C   UNL     1      -7.246   0.191 -32.226  1.00  0.00     0.418 C 
HETATM   16  F   UNL     1      -7.924   0.054 -31.053  1.00  0.00    -0.166 F 
HETATM   17  F   UNL     1      -7.474   1.471 -32.633  1.00  0.00    -0.166 F 
HETATM   18  F   UNL     1      -7.884  -0.605 -33.127  1.00  0.00    -0.166 F 
ENDBRANCH   9  15
ENDBRANCH   7   8
ENDBRANCH   3   7
BRANCH   1  19
HETATM   19  C   UNL     1      -4.807   5.545 -30.447  1.00  0.00     0.072 A 
HETATM   20  C   UNL     1      -4.153   6.416 -29.553  1.00  0.00     0.169 A 
HETATM   21  N   UNL     1      -2.962   6.822 -30.009  1.00  0.00    -0.183 NA
HETATM   22  N   UNL     1      -2.863   6.235 -31.216  1.00  0.00    -0.275 N 
HETATM   23  C   UNL     1      -3.956   5.473 -31.527  1.00  0.00     0.143 A 
BRANCH  22  24
HETATM   24  C   UNL     1      -1.678   6.460 -32.037  1.00  0.00     0.101 C 
HETATM   25  C   UNL     1      -1.868   7.660 -32.963  1.00  0.00     0.034 C 
HETATM   26  C   UNL     1      -1.285   5.209 -32.824  1.00  0.00     0.034 C 
ENDBRANCH  22  24
ENDBRANCH   1  19
TORSDOF 5
ENDMDL
MODEL 10
REMARK VINA RESULT:      -6.8     13.604     15.172
REMARK  5 active torsions:
REMARK  status: ('A' for Active; 'I' for Inactive)
REMARK    1  A    between atoms: C_2  and  N_3 
REMARK    2  A    between atoms: C_6  and  N_7 
REMARK       I    between atoms: N_7  and  C_8 
REMARK       I    between atoms: C_8  and  N_9 
REMARK    3  A    between atoms: N_9  and  C_10 
REMARK    4  A    between atoms: C_10  and  C_11 
REMARK    5  A    between atoms: C_12  and  C_13 
ROOT
HETATM    1  N   UNL     1      -6.083 -13.162 -37.205  1.00  0.00    -0.306 N 
HETATM    2  C   UNL     1      -4.871 -12.818 -37.710  1.00  0.00     0.321 C 
HETATM    3  N   UNL     1      -4.609 -13.095 -39.017  1.00  0.00    -0.339 N 
HETATM    4  O   UNL     1      -4.053 -12.284 -36.962  1.00  0.00    -0.247 OA
HETATM    5  H   UNL     1      -6.139 -12.988 -36.209  1.00  0.00     0.171 HD
HETATM    6  H   UNL     1      -5.053 -13.933 -39.362  1.00  0.00     0.164 HD
ENDROOT
BRANCH   3   7
HETATM    7  C   UNL     1      -3.285 -12.834 -39.550  1.00  0.00     0.163 C 
BRANCH   7   8
HETATM    8  C   UNL     1      -2.596 -14.043 -40.155  1.00  0.00    -0.022 A 
HETATM    9  C   UNL     1      -1.373 -14.516 -39.607  1.00  0.00     0.056 A 
HETATM   10  C   UNL     1      -0.708 -15.600 -40.219  1.00  0.00     0.020 A 
HETATM   11  C   UNL     1      -1.236 -16.211 -41.353  1.00  0.00     0.043 A 
HETATM   12  C   UNL     1      -2.426 -15.742 -41.887  1.00  0.00     0.117 A 
HETATM   13  F   UNL     1      -2.928 -16.320 -42.986  1.00  0.00    -0.206 F 
HETATM   14  C   UNL     1      -3.101 -14.670 -41.309  1.00  0.00     0.052 A 
BRANCH   9  15
HETATM   15  C   UNL     1      -0.738 -13.859 -38.395  1.00  0.00     0.418 C 
HETATM   16  F   UNL     1      -1.348 -14.209 -37.229  1.00  0.00    -0.166 F 
HETATM   17  F   UNL     1       0.577 -14.174 -38.229  1.00  0.00    -0.166 F 
HETATM   18  F   UNL     1      -0.790 -12.501 -38.455  1.00  0.00    -0.166 F 
ENDBRANCH   9  15
ENDBRANCH   7   8
ENDBRANCH   3   7
BRANCH   1  19
HETATM   19  C   UNL     1      -7.232 -13.632 -37.805  1.00  0.00     0.072 A 
HETATM   20  C   UNL     1      -7.788 -14.914 -37.983  1.00  0.00     0.169 A 
HETATM   21  N   UNL     1      -8.958 -14.883 -38.630  1.00  0.00    -0.183 NA
HETATM   22  N   UNL     1      -9.141 -13.576 -38.898  1.00  0.00    -0.275 N 
HETATM   23  C   UNL     1      -8.121 -12.792 -38.437  1.00  0.00     0.143 A 
BRANCH  22  24
HETATM   24  C   UNL     1     -10.333 -13.145 -39.623  1.00  0.00     0.101 C 
HETATM   25  C   UNL     1     -10.780 -14.205 -40.629  1.00  0.00     0.034 C 
HETATM   26  C   UNL     1     -10.126 -11.790 -40.301  1.00  0.00     0.034 C 
ENDBRANCH  22  24
ENDBRANCH   1  19
TORSDOF 5
ENDMDL
