MODEL 1
REMARK VINA RESULT:      -8.4      0.000      0.000
REMARK  5 active torsions:
REMARK  status: ('A' for Active; 'I' for Inactive)
REMARK    1  A    between atoms: C_2  and  C_3 
REMARK    2  A    between atoms: C_2  and  C_19 
REMARK       I    between atoms: C_3  and  N_4 
REMARK    3  A    between atoms: N_4  and  C_5 
REMARK    4  A    between atoms: C_8  and  O_9 
REMARK    5  A    between atoms: O_9  and  C_10 
ROOT
HETATM    1  C   UNL     1      -5.831   1.624 -32.393  1.00  0.00     0.234 C 
HETATM    2  N   UNL     1      -5.030   2.111 -31.370  1.00  0.00    -0.325 N 
HETATM    3  O   UNL     1      -5.964   2.164 -33.488  1.00  0.00    -0.272 OA
HETATM    4  H   UNL     1      -4.978   1.558 -30.522  1.00  0.00     0.169 HD
ENDROOT
BRANCH   2   5
HETATM    5  C   UNL     1      -4.335   3.338 -31.359  1.00  0.00     0.052 A 
HETATM    6  C   UNL     1      -4.896   4.580 -31.071  1.00  0.00     0.149 A 
HETATM    7  N   UNL     1      -4.193   5.741 -31.010  1.00  0.00    -0.235 NA
HETATM    8  C   UNL     1      -2.864   5.662 -31.217  1.00  0.00     0.169 A 
HETATM    9  C   UNL     1      -2.217   4.484 -31.556  1.00  0.00     0.060 A 
HETATM   10  C   UNL     1      -2.966   3.309 -31.631  1.00  0.00     0.035 A 
BRANCH   8  11
HETATM   11  O   UNL     1      -2.068   6.798 -31.158  1.00  0.00    -0.291 OA
BRANCH  11  12
HETATM   12  C   UNL     1      -1.309   7.052 -30.045  1.00  0.00     0.095 A 
HETATM   13  C   UNL     1      -2.003   7.349 -28.878  1.00  0.00     0.153 A 
HETATM   14  N   UNL     1      -1.421   7.681 -27.699  1.00  0.00    -0.270 NA
HETATM   15  C   UNL     1      -0.072   7.714 -27.686  1.00  0.00     0.116 A 
HETATM   16  C   UNL     1       0.713   7.452 -28.797  1.00  0.00     0.022 A 
HETATM   17  C   UNL     1       0.081   7.132 -29.998  1.00  0.00     0.040 A 
ENDBRANCH  11  12
ENDBRANCH   8  11
ENDBRANCH   2   5
BRANCH   1  18
HETATM   18  C   UNL     1      -6.595   0.315 -32.030  1.00  0.00     0.061 C 
HETATM   19  C   UNL     1      -6.334   0.018 -30.534  1.00  0.00     0.030 C 
HETATM   20  C   UNL     1      -8.116   0.556 -32.173  1.00  0.00     0.030 C 
BRANCH  18  21
HETATM   21  C   UNL     1      -6.196  -0.825 -32.985  1.00  0.00    -0.041 A 
HETATM   22  C   UNL     1      -7.186  -1.438 -33.783  1.00  0.00     0.011 A 
HETATM   23  C   UNL     1      -6.875  -2.498 -34.636  1.00  0.00     0.043 A 
HETATM   24  C   UNL     1      -5.569  -2.959 -34.703  1.00  0.00     0.116 A 
HETATM   25  F   UNL     1      -5.268  -3.980 -35.516  1.00  0.00    -0.206 F 
HETATM   26  C   UNL     1      -4.571  -2.377 -33.935  1.00  0.00     0.043 A 
HETATM   27  C   UNL     1      -4.881  -1.317 -33.077  1.00  0.00     0.011 A 
ENDBRANCH  18  21
ENDBRANCH   1  18
TORSDOF 5
ENDMDL
MODEL 2
REMARK VINA RESULT:      -8.3      5.217      8.642
REMARK  5 active torsions:
REMARK  status: ('A' for Active; 'I' for Inactive)
REMARK    1  A    between atoms: C_2  and  C_3 
REMARK    2  A    between atoms: C_2  and  C_19 
REMARK       I    between atoms: C_3  and  N_4 
REMARK    3  A    between atoms: N_4  and  C_5 
REMARK    4  A    between atoms: C_8  and  O_9 
REMARK    5  A    between atoms: O_9  and  C_10 
ROOT
HETATM    1  C   UNL     1      -6.489   0.701 -33.335  1.00  0.00     0.234 C 
HETATM    2  N   UNL     1      -7.641   0.712 -32.563  1.00  0.00    -0.325 N 
HETATM    3  O   UNL     1      -6.330   1.364 -34.357  1.00  0.00    -0.272 OA
HETATM    4  H   UNL     1      -7.639   0.145 -31.723  1.00  0.00     0.169 HD
ENDROOT
BRANCH   2   5
HETATM    5  C   UNL     1      -8.848   1.376 -32.866  1.00  0.00     0.052 A 
HETATM    6  C   UNL     1      -9.228   2.623 -32.375  1.00  0.00     0.149 A 
HETATM    7  N   UNL     1     -10.370   3.268 -32.727  1.00  0.00    -0.235 NA
HETATM    8  C   UNL     1     -11.162   2.659 -33.632  1.00  0.00     0.169 A 
HETATM    9  C   UNL     1     -10.898   1.399 -34.145  1.00  0.00     0.060 A 
HETATM   10  C   UNL     1      -9.728   0.750 -33.753  1.00  0.00     0.035 A 
BRANCH   8  11
HETATM   11  O   UNL     1     -12.341   3.256 -34.058  1.00  0.00    -0.291 OA
BRANCH  11  12
HETATM   12  C   UNL     1     -13.542   2.872 -33.521  1.00  0.00     0.095 A 
HETATM   13  C   UNL     1     -14.012   3.629 -32.454  1.00  0.00     0.153 A 
HETATM   14  N   UNL     1     -15.149   3.365 -31.763  1.00  0.00    -0.270 NA
HETATM   15  C   UNL     1     -15.855   2.287 -32.163  1.00  0.00     0.116 A 
HETATM   16  C   UNL     1     -15.467   1.457 -33.202  1.00  0.00     0.022 A 
HETATM   17  C   UNL     1     -14.282   1.748 -33.879  1.00  0.00     0.040 A 
ENDBRANCH  11  12
ENDBRANCH   8  11
ENDBRANCH   2   5
BRANCH   1  18
HETATM   18  C   UNL     1      -5.384  -0.263 -32.809  1.00  0.00     0.061 C 
HETATM   19  C   UNL     1      -4.028   0.476 -32.909  1.00  0.00     0.030 C 
HETATM   20  C   UNL     1      -5.623  -0.542 -31.306  1.00  0.00     0.030 C 
BRANCH  18  21
HETATM   21  C   UNL     1      -5.435  -1.605 -33.562  1.00  0.00    -0.041 A 
HETATM   22  C   UNL     1      -6.659  -2.043 -34.112  1.00  0.00     0.011 A 
HETATM   23  C   UNL     1      -6.759  -3.270 -34.772  1.00  0.00     0.043 A 
HETATM   24  C   UNL     1      -5.636  -4.073 -34.892  1.00  0.00     0.116 A 
HETATM   25  F   UNL     1      -5.730  -5.253 -35.519  1.00  0.00    -0.206 F 
HETATM   26  C   UNL     1      -4.417  -3.671 -34.366  1.00  0.00     0.043 A 
HETATM   27  C   UNL     1      -4.315  -2.445 -33.701  1.00  0.00     0.011 A 
ENDBRANCH  18  21
ENDBRANCH   1  18
TORSDOF 5
ENDMDL
MODEL 3
REMARK VINA RESULT:      -8.2      1.683      2.216
REMARK  5 active torsions:
REMARK  status: ('A' for Active; 'I' for Inactive)
REMARK    1  A    between atoms: C_2  and  C_3 
REMARK    2  A    between atoms: C_2  and  C_19 
REMARK       I    between atoms: C_3  and  N_4 
REMARK    3  A    between atoms: N_4  and  C_5 
REMARK    4  A    between atoms: C_8  and  O_9 
REMARK    5  A    between atoms: O_9  and  C_10 
ROOT
HETATM    1  C   UNL     1      -6.692   1.219 -33.032  1.00  0.00     0.234 C 
HETATM    2  N   UNL     1      -6.073   2.200 -33.792  1.00  0.00    -0.325 N 
HETATM    3  O   UNL     1      -6.815   1.259 -31.810  1.00  0.00    -0.272 OA
HETATM    4  H   UNL     1      -6.063   2.068 -34.796  1.00  0.00     0.169 HD
ENDROOT
BRANCH   2   5
HETATM    5  C   UNL     1      -5.389   3.333 -33.303  1.00  0.00     0.052 A 
HETATM    6  C   UNL     1      -4.274   3.304 -32.469  1.00  0.00     0.149 A 
HETATM    7  N   UNL     1      -3.597   4.408 -32.058  1.00  0.00    -0.235 NA
HETATM    8  C   UNL     1      -4.029   5.597 -32.521  1.00  0.00     0.169 A 
HETATM    9  C   UNL     1      -5.154   5.738 -33.318  1.00  0.00     0.060 A 
HETATM   10  C   UNL     1      -5.843   4.590 -33.709  1.00  0.00     0.035 A 
BRANCH   8  11
HETATM   11  O   UNL     1      -3.386   6.774 -32.164  1.00  0.00    -0.291 OA
BRANCH  11  12
HETATM   12  C   UNL     1      -2.164   6.732 -31.543  1.00  0.00     0.095 A 
HETATM   13  C   UNL     1      -2.171   6.835 -30.157  1.00  0.00     0.153 A 
HETATM   14  N   UNL     1      -1.059   6.868 -29.381  1.00  0.00    -0.270 NA
HETATM   15  C   UNL     1       0.124   6.793 -30.027  1.00  0.00     0.116 A 
HETATM   16  C   UNL     1       0.242   6.706 -31.405  1.00  0.00     0.022 A 
HETATM   17  C   UNL     1      -0.922   6.692 -32.173  1.00  0.00     0.040 A 
ENDBRANCH  11  12
ENDBRANCH   8  11
ENDBRANCH   2   5
BRANCH   1  18
HETATM   18  C   UNL     1      -7.215   0.010 -33.865  1.00  0.00     0.061 C 
HETATM   19  C   UNL     1      -8.577  -0.418 -33.268  1.00  0.00     0.030 C 
HETATM   20  C   UNL     1      -7.494   0.472 -35.314  1.00  0.00     0.030 C 
BRANCH  18  21
HETATM   21  C   UNL     1      -6.160  -1.110 -33.911  1.00  0.00    -0.041 A 
HETATM   22  C   UNL     1      -6.422  -2.277 -34.662  1.00  0.00     0.011 A 
HETATM   23  C   UNL     1      -5.509  -3.332 -34.703  1.00  0.00     0.043 A 
HETATM   24  C   UNL     1      -4.322  -3.235 -33.994  1.00  0.00     0.116 A 
HETATM   25  F   UNL     1      -3.446  -4.248 -34.026  1.00  0.00    -0.206 F 
HETATM   26  C   UNL     1      -4.032  -2.102 -33.248  1.00  0.00     0.043 A 
HETATM   27  C   UNL     1      -4.946  -1.045 -33.203  1.00  0.00     0.011 A 
ENDBRANCH  18  21
ENDBRANCH   1  18
TORSDOF 5
ENDMDL
MODEL 4
REMARK VINA RESULT:      -8.2      3.479      9.212
REMARK  5 active torsions:
REMARK  status: ('A' for Active; 'I' for Inactive)
REMARK    1  A    between atoms: C_2  and  C_3 
REMARK    2  A    between atoms: C_2  and  C_19 
REMARK       I    between atoms: C_3  and  N_4 
REMARK    3  A    between atoms: N_4  and  C_5 
REMARK    4  A    between atoms: C_8  and  O_9 
REMARK    5  A    between atoms: O_9  and  C_10 
ROOT
HETATM    1  C   UNL     1      -2.417   5.083 -32.855  1.00  0.00     0.234 C 
HETATM    2  N   UNL     1      -3.512   4.763 -32.065  1.00  0.00    -0.325 N 
HETATM    3  O   UNL     1      -1.966   4.363 -33.742  1.00  0.00    -0.272 OA
HETATM    4  H   UNL     1      -3.809   5.455 -31.387  1.00  0.00     0.169 HD
ENDROOT
BRANCH   2   5
HETATM    5  C   UNL     1      -4.213   3.539 -32.057  1.00  0.00     0.052 A 
HETATM    6  C   UNL     1      -5.267   3.209 -32.905  1.00  0.00     0.149 A 
HETATM    7  N   UNL     1      -5.889   2.001 -32.917  1.00  0.00    -0.235 NA
HETATM    8  C   UNL     1      -5.424   1.066 -32.066  1.00  0.00     0.169 A 
HETATM    9  C   UNL     1      -4.412   1.308 -31.150  1.00  0.00     0.060 A 
HETATM   10  C   UNL     1      -3.803   2.564 -31.146  1.00  0.00     0.035 A 
BRANCH   8  11
HETATM   11  O   UNL     1      -5.992  -0.200 -32.024  1.00  0.00    -0.291 OA
BRANCH  11  12
HETATM   12  C   UNL     1      -5.737  -1.105 -33.022  1.00  0.00     0.095 A 
HETATM   13  C   UNL     1      -6.833  -1.539 -33.757  1.00  0.00     0.153 A 
HETATM   14  N   UNL     1      -6.781  -2.471 -34.742  1.00  0.00    -0.270 NA
HETATM   15  C   UNL     1      -5.565  -2.993 -35.006  1.00  0.00     0.116 A 
HETATM   16  C   UNL     1      -4.413  -2.643 -34.321  1.00  0.00     0.022 A 
HETATM   17  C   UNL     1      -4.507  -1.695 -33.302  1.00  0.00     0.040 A 
ENDBRANCH  11  12
ENDBRANCH   8  11
ENDBRANCH   2   5
BRANCH   1  18
HETATM   18  C   UNL     1      -1.765   6.454 -32.507  1.00  0.00     0.061 C 
HETATM   19  C   UNL     1      -0.934   6.904 -33.733  1.00  0.00     0.030 C 
HETATM   20  C   UNL     1      -2.875   7.514 -32.314  1.00  0.00     0.030 C 
BRANCH  18  21
HETATM   21  C   UNL     1      -0.963   6.354 -31.197  1.00  0.00    -0.041 A 
HETATM   22  C   UNL     1      -0.973   7.439 -30.294  1.00  0.00     0.011 A 
HETATM   23  C   UNL     1      -0.231   7.405 -29.111  1.00  0.00     0.043 A 
HETATM   24  C   UNL     1       0.528   6.284 -28.815  1.00  0.00     0.116 A 
HETATM   25  F   UNL     1       1.246   6.250 -27.684  1.00  0.00    -0.206 F 
HETATM   26  C   UNL     1       0.558   5.199 -29.678  1.00  0.00     0.043 A 
HETATM   27  C   UNL     1      -0.180   5.232 -30.865  1.00  0.00     0.011 A 
ENDBRANCH  18  21
ENDBRANCH   1  18
TORSDOF 5
ENDMDL
MODEL 5
REMARK VINA RESULT:      -7.6      4.840      8.632
REMARK  5 active torsions:
REMARK  status: ('A' for Active; 'I' for Inactive)
REMARK    1  A    between atoms: C_2  and  C_3 
REMARK    2  A    between atoms: C_2  and  C_19 
REMARK       I    between atoms: C_3  and  N_4 
REMARK    3  A    between atoms: N_4  and  C_5 
REMARK    4  A    between atoms: C_8  and  O_9 
REMARK    5  A    between atoms: O_9  and  C_10 
ROOT
HETATM    1  C   UNL     1      -6.717   0.650 -32.170  1.00  0.00     0.234 C 
HETATM    2  N   UNL     1      -7.052   1.436 -33.263  1.00  0.00    -0.325 N 
HETATM    3  O   UNL     1      -7.531   0.090 -31.441  1.00  0.00    -0.272 OA
HETATM    4  H   UNL     1      -6.288   1.819 -33.807  1.00  0.00     0.169 HD
ENDROOT
BRANCH   2   5
HETATM    5  C   UNL     1      -8.351   1.817 -33.656  1.00  0.00     0.052 A 
HETATM    6  C   UNL     1      -9.311   0.968 -34.203  1.00  0.00     0.149 A 
HETATM    7  N   UNL     1     -10.576   1.347 -34.520  1.00  0.00    -0.235 NA
HETATM    8  C   UNL     1     -10.916   2.624 -34.256  1.00  0.00     0.169 A 
HETATM    9  C   UNL     1     -10.023   3.560 -33.756  1.00  0.00     0.060 A 
HETATM   10  C   UNL     1      -8.724   3.149 -33.458  1.00  0.00     0.035 A 
BRANCH   8  11
HETATM   11  O   UNL     1     -12.193   3.091 -34.534  1.00  0.00    -0.291 OA
BRANCH  11  12
HETATM   12  C   UNL     1     -13.238   2.782 -33.701  1.00  0.00     0.095 A 
HETATM   13  C   UNL     1     -14.034   1.708 -34.080  1.00  0.00     0.153 A 
HETATM   14  N   UNL     1     -15.140   1.295 -33.411  1.00  0.00    -0.270 NA
HETATM   15  C   UNL     1     -15.465   1.994 -32.303  1.00  0.00     0.116 A 
HETATM   16  C   UNL     1     -14.749   3.090 -31.850  1.00  0.00     0.022 A 
HETATM   17  C   UNL     1     -13.628   3.498 -32.571  1.00  0.00     0.040 A 
ENDBRANCH  11  12
ENDBRANCH   8  11
ENDBRANCH   2   5
BRANCH   1  18
HETATM   18  C   UNL     1      -5.184   0.550 -31.910  1.00  0.00     0.061 C 
HETATM   19  C   UNL     1      -4.516   1.790 -32.551  1.00  0.00     0.030 C 
HETATM   20  C   UNL     1      -4.917   0.642 -30.389  1.00  0.00     0.030 C 
BRANCH  18  21
HETATM   21  C   UNL     1      -4.638  -0.799 -32.413  1.00  0.00    -0.041 A 
HETATM   22  C   UNL     1      -5.140  -1.342 -33.616  1.00  0.00     0.011 A 
HETATM   23  C   UNL     1      -4.699  -2.579 -34.091  1.00  0.00     0.043 A 
HETATM   24  C   UNL     1      -3.751  -3.288 -33.371  1.00  0.00     0.116 A 
HETATM   25  F   UNL     1      -3.331  -4.478 -33.821  1.00  0.00    -0.206 F 
HETATM   26  C   UNL     1      -3.235  -2.781 -32.187  1.00  0.00     0.043 A 
HETATM   27  C   UNL     1      -3.677  -1.545 -31.707  1.00  0.00     0.011 A 
ENDBRANCH  18  21
ENDBRANCH   1  18
TORSDOF 5
ENDMDL
MODEL 6
REMARK VINA RESULT:      -7.5      3.758      6.460
REMARK  5 active torsions:
REMARK  status: ('A' for Active; 'I' for Inactive)
REMARK    1  A    between atoms: C_2  and  C_3 
REMARK    2  A    between atoms: C_2  and  C_19 
REMARK       I    between atoms: C_3  and  N_4 
REMARK    3  A    between atoms: N_4  and  C_5 
REMARK    4  A    between atoms: C_8  and  O_9 
REMARK    5  A    between atoms: O_9  and  C_10 
ROOT
HETATM    1  C   UNL     1      -1.239   5.379 -30.688  1.00  0.00     0.234 C 
HETATM    2  N   UNL     1      -1.486   6.359 -29.738  1.00  0.00    -0.325 N 
HETATM    3  O   UNL     1      -0.230   4.679 -30.719  1.00  0.00    -0.272 OA
HETATM    4  H   UNL     1      -2.371   6.849 -29.799  1.00  0.00     0.169 HD
ENDROOT
BRANCH   2   5
HETATM    5  C   UNL     1      -0.597   6.798 -28.734  1.00  0.00     0.052 A 
HETATM    6  C   UNL     1      -0.529   6.290 -27.440  1.00  0.00     0.149 A 
HETATM    7  N   UNL     1       0.375   6.689 -26.507  1.00  0.00    -0.235 NA
HETATM    8  C   UNL     1       1.274   7.619 -26.887  1.00  0.00     0.169 A 
HETATM    9  C   UNL     1       1.262   8.221 -28.136  1.00  0.00     0.060 A 
HETATM   10  C   UNL     1       0.311   7.806 -29.068  1.00  0.00     0.035 A 
BRANCH   8  11
HETATM   11  O   UNL     1       2.242   8.073 -26.002  1.00  0.00    -0.291 OA
BRANCH  11  12
HETATM   12  C   UNL     1       1.887   8.847 -24.928  1.00  0.00     0.095 A 
HETATM   13  C   UNL     1       2.695   8.749 -23.801  1.00  0.00     0.153 A 
HETATM   14  N   UNL     1       2.467   9.395 -22.630  1.00  0.00    -0.270 NA
HETATM   15  C   UNL     1       1.372  10.183 -22.586  1.00  0.00     0.116 A 
HETATM   16  C   UNL     1       0.492  10.336 -23.645  1.00  0.00     0.022 A 
HETATM   17  C   UNL     1       0.748   9.643 -24.828  1.00  0.00     0.040 A 
ENDBRANCH  11  12
ENDBRANCH   8  11
ENDBRANCH   2   5
BRANCH   1  18
HETATM   18  C   UNL     1      -2.359   5.244 -31.763  1.00  0.00     0.061 C 
HETATM   19  C   UNL     1      -2.961   6.651 -31.994  1.00  0.00     0.030 C 
HETATM   20  C   UNL     1      -1.728   4.809 -33.106  1.00  0.00     0.030 C 
BRANCH  18  21
HETATM   21  C   UNL     1      -3.384   4.174 -31.343  1.00  0.00    -0.041 A 
HETATM   22  C   UNL     1      -4.575   4.572 -30.697  1.00  0.00     0.011 A 
HETATM   23  C   UNL     1      -5.514   3.633 -30.267  1.00  0.00     0.043 A 
HETATM   24  C   UNL     1      -5.277   2.285 -30.479  1.00  0.00     0.116 A 
HETATM   25  F   UNL     1      -6.174   1.381 -30.062  1.00  0.00    -0.206 F 
HETATM   26  C   UNL     1      -4.119   1.859 -31.114  1.00  0.00     0.043 A 
HETATM   27  C   UNL     1      -3.174   2.797 -31.541  1.00  0.00     0.011 A 
ENDBRANCH  18  21
ENDBRANCH   1  18
TORSDOF 5
ENDMDL
MODEL 7
REMARK VINA RESULT:      -7.4     17.408     19.942
REMARK  5 active torsions:
REMARK  status: ('A' for Active; 'I' for Inactive)
REMARK    1  A    between atoms: C_2  and  C_3 
REMARK    2  A    between atoms: C_2  and  C_19 
REMARK       I    between atoms: C_3  and  N_4 
REMARK    3  A    between atoms: N_4  and  C_5 
REMARK    4  A    between atoms: C_8  and  O_9 
REMARK    5  A    between atoms: O_9  and  C_10 
ROOT
HETATM    1  C   UNL     1      -2.910 -13.816 -39.126  1.00  0.00     0.234 C 
HETATM    2  N   UNL     1      -3.763 -12.723 -39.122  1.00  0.00    -0.325 N 
HETATM    3  O   UNL     1      -3.268 -14.977 -39.310  1.00  0.00    -0.272 OA
HETATM    4  H   UNL     1      -3.343 -11.810 -38.990  1.00  0.00     0.169 HD
ENDROOT
BRANCH   2   5
HETATM    5  C   UNL     1      -5.170 -12.755 -39.210  1.00  0.00     0.052 A 
HETATM    6  C   UNL     1      -6.036 -13.102 -38.175  1.00  0.00     0.149 A 
HETATM    7  N   UNL     1      -7.391 -13.070 -38.268  1.00  0.00    -0.235 NA
HETATM    8  C   UNL     1      -7.913 -12.646 -39.435  1.00  0.00     0.169 A 
HETATM    9  C   UNL     1      -7.141 -12.322 -40.540  1.00  0.00     0.060 A 
HETATM   10  C   UNL     1      -5.752 -12.382 -40.424  1.00  0.00     0.035 A 
BRANCH   8  11
HETATM   11  O   UNL     1      -9.288 -12.567 -39.610  1.00  0.00    -0.291 OA
BRANCH  11  12
HETATM   12  C   UNL     1      -9.949 -13.531 -40.328  1.00  0.00     0.095 A 
HETATM   13  C   UNL     1     -11.314 -13.342 -40.506  1.00  0.00     0.153 A 
HETATM   14  N   UNL     1     -12.137 -14.216 -41.139  1.00  0.00    -0.270 NA
HETATM   15  C   UNL     1     -11.562 -15.338 -41.620  1.00  0.00     0.116 A 
HETATM   16  C   UNL     1     -10.215 -15.631 -41.480  1.00  0.00     0.022 A 
HETATM   17  C   UNL     1      -9.401 -14.719 -40.809  1.00  0.00     0.040 A 
ENDBRANCH  11  12
ENDBRANCH   8  11
ENDBRANCH   2   5
BRANCH   1  18
HETATM   18  C   UNL     1      -1.420 -13.458 -38.844  1.00  0.00     0.061 C 
HETATM   19  C   UNL     1      -0.648 -13.575 -40.180  1.00  0.00     0.030 C 
HETATM   20  C   UNL     1      -1.325 -11.976 -38.409  1.00  0.00     0.030 C 
BRANCH  18  21
HETATM   21  C   UNL     1      -0.861 -14.331 -37.706  1.00  0.00    -0.041 A 
HETATM   22  C   UNL     1      -1.471 -14.284 -36.434  1.00  0.00     0.011 A 
HETATM   23  C   UNL     1      -0.975 -15.032 -35.364  1.00  0.00     0.043 A 
HETATM   24  C   UNL     1       0.137 -15.837 -35.553  1.00  0.00     0.116 A 
HETATM   25  F   UNL     1       0.619 -16.552 -34.527  1.00  0.00    -0.206 F 
HETATM   26  C   UNL     1       0.759 -15.909 -36.791  1.00  0.00     0.043 A 
HETATM   27  C   UNL     1       0.266 -15.158 -37.862  1.00  0.00     0.011 A 
ENDBRANCH  18  21
ENDBRANCH   1  18
TORSDOF 5
ENDMDL
MODEL 8
REMARK VINA RESULT:      -7.3      5.355      8.302
REMARK  5 active torsions:
REMARK  status: ('A' for Active; 'I' for Inactive)
REMARK    1  A    between atoms: C_2  and  C_3 
REMARK    2  A    between atoms: C_2  and  C_19 
REMARK       I    between atoms: C_3  and  N_4 
REMARK    3  A    between atoms: N_4  and  C_5 
REMARK    4  A    between atoms: C_8  and  O_9 
REMARK    5  A    between atoms: O_9  and  C_10 
ROOT
HETATM    1  C   UNL     1      -7.456   0.538 -32.389  1.00  0.00     0.234 C 
HETATM    2  N   UNL     1      -8.010   1.222 -33.461  1.00  0.00    -0.325 N 
HETATM    3  O   UNL     1      -8.048   0.286 -31.344  1.00  0.00    -0.272 OA
HETATM    4  H   UNL     1      -7.429   1.341 -34.283  1.00  0.00     0.169 HD
ENDROOT
BRANCH   2   5
HETATM    5  C   UNL     1      -9.279   1.837 -33.499  1.00  0.00     0.052 A 
HETATM    6  C   UNL     1     -10.451   1.240 -33.957  1.00  0.00     0.149 A 
HETATM    7  N   UNL     1     -11.673   1.834 -33.930  1.00  0.00    -0.235 NA
HETATM    8  C   UNL     1     -11.740   3.069 -33.396  1.00  0.00     0.169 A 
HETATM    9  C   UNL     1     -10.627   3.768 -32.956  1.00  0.00     0.060 A 
HETATM   10  C   UNL     1      -9.381   3.143 -33.013  1.00  0.00     0.035 A 
BRANCH   8  11
HETATM   11  O   UNL     1     -12.952   3.742 -33.315  1.00  0.00    -0.291 OA
BRANCH  11  12
HETATM   12  C   UNL     1     -13.155   4.888 -34.040  1.00  0.00     0.095 A 
HETATM   13  C   UNL     1     -13.725   5.957 -33.358  1.00  0.00     0.153 A 
HETATM   14  N   UNL     1     -14.050   7.146 -33.924  1.00  0.00    -0.270 NA
HETATM   15  C   UNL     1     -13.788   7.273 -35.242  1.00  0.00     0.116 A 
HETATM   16  C   UNL     1     -13.238   6.264 -36.016  1.00  0.00     0.022 A 
HETATM   17  C   UNL     1     -12.933   5.048 -35.406  1.00  0.00     0.040 A 
ENDBRANCH  11  12
ENDBRANCH   8  11
ENDBRANCH   2   5
BRANCH   1  18
HETATM   18  C   UNL     1      -5.970   0.121 -32.605  1.00  0.00     0.061 C 
HETATM   19  C   UNL     1      -5.235   1.320 -33.253  1.00  0.00     0.030 C 
HETATM   20  C   UNL     1      -5.301  -0.115 -31.231  1.00  0.00     0.030 C 
BRANCH  18  21
HETATM   21  C   UNL     1      -5.888  -1.187 -33.413  1.00  0.00    -0.041 A 
HETATM   22  C   UNL     1      -4.623  -1.753 -33.685  1.00  0.00     0.011 A 
HETATM   23  C   UNL     1      -4.501  -2.919 -34.444  1.00  0.00     0.043 A 
HETATM   24  C   UNL     1      -5.640  -3.535 -34.938  1.00  0.00     0.116 A 
HETATM   25  F   UNL     1      -5.525  -4.650 -35.671  1.00  0.00    -0.206 F 
HETATM   26  C   UNL     1      -6.898  -3.006 -34.686  1.00  0.00     0.043 A 
HETATM   27  C   UNL     1      -7.023  -1.837 -33.930  1.00  0.00     0.011 A 
ENDBRANCH  18  21
ENDBRANCH   1  18
TORSDOF 5
ENDMDL
MODEL 9
REMARK VINA RESULT:      -7.3      4.150      9.384
REMARK  5 active torsions:
REMARK  status: ('A' for Active; 'I' for Inactive)
REMARK    1  A    between atoms: C_2  and  C_3 
REMARK    2  A    between atoms: C_2  and  C_19 
REMARK       I    between atoms: C_3  and  N_4 
REMARK    3  A    between atoms: N_4  and  C_5 
REMARK    4  A    between atoms: C_8  and  O_9 
REMARK    5  A    between atoms: O_9  and  C_10 
ROOT
HETATM    1  C   UNL     1      -3.053   5.978 -31.555  1.00  0.00     0.234 C 
HETATM    2  N   UNL     1      -3.326   4.620 -31.472  1.00  0.00    -0.325 N 
HETATM    3  O   UNL     1      -3.888   6.866 -31.409  1.00  0.00    -0.272 OA
HETATM    4  H   UNL     1      -2.544   3.985 -31.579  1.00  0.00     0.169 HD
ENDROOT
BRANCH   2   5
HETATM    5  C   UNL     1      -4.598   4.028 -31.325  1.00  0.00     0.052 A 
HETATM    6  C   UNL     1      -5.223   3.217 -32.269  1.00  0.00     0.149 A 
HETATM    7  N   UNL     1      -6.424   2.610 -32.080  1.00  0.00    -0.235 NA
HETATM    8  C   UNL     1      -7.020   2.793 -30.886  1.00  0.00     0.169 A 
HETATM    9  C   UNL     1      -6.504   3.617 -29.898  1.00  0.00     0.060 A 
HETATM   10  C   UNL     1      -5.279   4.244 -30.125  1.00  0.00     0.035 A 
BRANCH   8  11
HETATM   11  O   UNL     1      -8.242   2.197 -30.604  1.00  0.00    -0.291 OA
BRANCH  11  12
HETATM   12  C   UNL     1      -9.074   1.812 -31.623  1.00  0.00     0.095 A 
HETATM   13  C   UNL     1      -9.864   2.808 -32.185  1.00  0.00     0.153 A 
HETATM   14  N   UNL     1     -10.783   2.602 -33.162  1.00  0.00    -0.270 NA
HETATM   15  C   UNL     1     -10.918   1.333 -33.600  1.00  0.00     0.116 A 
HETATM   16  C   UNL     1     -10.193   0.266 -33.095  1.00  0.00     0.022 A 
HETATM   17  C   UNL     1      -9.269   0.510 -32.079  1.00  0.00     0.040 A 
ENDBRANCH  11  12
ENDBRANCH   8  11
ENDBRANCH   2   5
BRANCH   1  18
HETATM   18  C   UNL     1      -1.565   6.304 -31.883  1.00  0.00     0.061 C 
HETATM   19  C   UNL     1      -1.031   5.184 -32.809  1.00  0.00     0.030 C 
HETATM   20  C   UNL     1      -1.498   7.617 -32.698  1.00  0.00     0.030 C 
BRANCH  18  21
HETATM   21  C   UNL     1      -0.756   6.499 -30.588  1.00  0.00    -0.041 A 
HETATM   22  C   UNL     1      -0.030   5.411 -30.056  1.00  0.00     0.011 A 
HETATM   23  C   UNL     1       0.687   5.533 -28.864  1.00  0.00     0.043 A 
HETATM   24  C   UNL     1       0.691   6.745 -28.191  1.00  0.00     0.116 A 
HETATM   25  F   UNL     1       1.374   6.863 -27.045  1.00  0.00    -0.206 F 
HETATM   26  C   UNL     1      -0.009   7.834 -28.688  1.00  0.00     0.043 A 
HETATM   27  C   UNL     1      -0.732   7.714 -29.879  1.00  0.00     0.011 A 
ENDBRANCH  18  21
ENDBRANCH   1  18
TORSDOF 5
ENDMDL
MODEL 10
REMARK VINA RESULT:      -7.2      3.451      9.502
REMARK  5 active torsions:
REMARK  status: ('A' for Active; 'I' for Inactive)
REMARK    1  A    between atoms: C_2  and  C_3 
REMARK    2  A    between atoms: C_2  and  C_19 
REMARK       I    between atoms: C_3  and  N_4 
REMARK    3  A    between atoms: N_4  and  C_5 
REMARK    4  A    between atoms: C_8  and  O_9 
REMARK    5  A    between atoms: O_9  and  C_10 
ROOT
HETATM    1  C   UNL     1      -3.087   6.249 -31.374  1.00  0.00     0.234 C 
HETATM    2  N   UNL     1      -2.902   4.896 -31.618  1.00  0.00    -0.325 N 
HETATM    3  O   UNL     1      -4.179   6.780 -31.192  1.00  0.00    -0.272 OA
HETATM    4  H   UNL     1      -1.948   4.571 -31.721  1.00  0.00     0.169 HD
ENDROOT
BRANCH   2   5
HETATM    5  C   UNL     1      -3.914   3.932 -31.812  1.00  0.00     0.052 A 
HETATM    6  C   UNL     1      -4.513   3.626 -33.032  1.00  0.00     0.149 A 
HETATM    7  N   UNL     1      -5.444   2.652 -33.203  1.00  0.00    -0.235 NA
HETATM    8  C   UNL     1      -5.778   1.928 -32.117  1.00  0.00     0.169 A 
HETATM    9  C   UNL     1      -5.276   2.183 -30.851  1.00  0.00     0.060 A 
HETATM   10  C   UNL     1      -4.334   3.201 -30.699  1.00  0.00     0.035 A 
BRANCH   8  11
HETATM   11  O   UNL     1      -6.711   0.904 -32.207  1.00  0.00    -0.291 OA
BRANCH  11  12
HETATM   12  C   UNL     1      -6.447  -0.206 -32.968  1.00  0.00     0.095 A 
HETATM   13  C   UNL     1      -5.242  -0.852 -32.720  1.00  0.00     0.153 A 
HETATM   14  N   UNL     1      -4.788  -1.928 -33.410  1.00  0.00    -0.270 NA
HETATM   15  C   UNL     1      -5.585  -2.382 -34.401  1.00  0.00     0.116 A 
HETATM   16  C   UNL     1      -6.795  -1.800 -34.741  1.00  0.00     0.022 A 
HETATM   17  C   UNL     1      -7.222  -0.684 -34.022  1.00  0.00     0.040 A 
ENDBRANCH  11  12
ENDBRANCH   8  11
ENDBRANCH   2   5
BRANCH   1  18
HETATM   18  C   UNL     1      -1.767   7.077 -31.373  1.00  0.00     0.061 C 
HETATM   19  C   UNL     1      -0.823   6.458 -32.432  1.00  0.00     0.030 C 
HETATM   20  C   UNL     1      -2.069   8.519 -31.842  1.00  0.00     0.030 C 
BRANCH  18  21
HETATM   21  C   UNL     1      -1.174   7.146 -29.954  1.00  0.00    -0.041 A 
HETATM   22  C   UNL     1       0.228   7.180 -29.791  1.00  0.00     0.011 A 
HETATM   23  C   UNL     1       0.810   7.207 -28.522  1.00  0.00     0.043 A 
HETATM   24  C   UNL     1      -0.003   7.203 -27.400  1.00  0.00     0.116 A 
HETATM   25  F   UNL     1       0.552   7.222 -26.180  1.00  0.00    -0.206 F 
HETATM   26  C   UNL     1      -1.384   7.173 -27.524  1.00  0.00     0.043 A 
HETATM   27  C   UNL     1      -1.969   7.142 -28.794  1.00  0.00     0.011 A 
ENDBRANCH  18  21
ENDBRANCH   1  18
TORSDOF 5
ENDMDL
