MODEL 1
REMARK VINA RESULT:      -8.7      0.000      0.000
REMARK  8 active torsions:
REMARK  status: ('A' for Active; 'I' for Inactive)
REMARK    1  A    between atoms: O_2  and  C_3 
REMARK    2  A    between atoms: C_5  and  O_6 
REMARK    3  A    between atoms: C_8  and  C_9 
REMARK    4  A    between atoms: N_10  and  C_12 
REMARK    5  A    between atoms: C_12  and  C_13 
REMARK       I    between atoms: C_13  and  N_14 
REMARK    6  A    between atoms: N_14  and  C_15 
REMARK    7  A    between atoms: C_16  and  C_17 
REMARK    8  A    between atoms: C_17  and  C_18 
ROOT
HETATM    1  C   UNL     1      -3.938   2.238 -31.617  1.00  0.00     0.338 C 
ENDROOT
BRANCH   1   2
HETATM    2  N   UNL     1      -4.567   3.065 -32.736  1.00  0.00    -0.054 N 
HETATM    3  C   UNL     1      -4.403   4.587 -32.749  1.00  0.00     0.224 C 
HETATM    4  C   UNL     1      -5.806   5.075 -32.386  1.00  0.00     0.040 C 
HETATM    5  C   UNL     1      -6.686   4.128 -33.179  1.00  0.00     0.030 C 
HETATM    6  C   UNL     1      -6.047   2.770 -32.948  1.00  0.00     0.236 C 
HETATM    7  H   UNL     1      -4.061   2.765 -33.578  1.00  0.00     0.281 HD
BRANCH   3   8
HETATM    8  C   UNL     1      -3.210   5.172 -32.031  1.00  0.00     0.006 A 
HETATM    9  C   UNL     1      -1.919   5.073 -32.601  1.00  0.00     0.079 A 
HETATM   10  C   UNL     1      -0.803   5.585 -31.926  1.00  0.00     0.074 A 
HETATM   11  C   UNL     1      -0.958   6.236 -30.703  1.00  0.00     0.070 A 
HETATM   12  C   UNL     1      -2.237   6.408 -30.178  1.00  0.00     0.037 A 
HETATM   13  C   UNL     1      -3.353   5.882 -30.830  1.00  0.00     0.015 A 
BRANCH   9  14
HETATM   14  O   UNL     1      -1.861   4.417 -33.809  1.00  0.00    -0.355 OA
HETATM   15  C   UNL     1      -1.532   5.197 -34.960  1.00  0.00     0.210 C 
ENDBRANCH   9  14
BRANCH  11  16
HETATM   16  O   UNL     1       0.042   6.757 -29.934  1.00  0.00    -0.356 OA
HETATM   17  C   UNL     1       0.412   6.036 -28.764  1.00  0.00     0.210 C 
ENDBRANCH  11  16
ENDBRANCH   3   8
ENDBRANCH   1   2
BRANCH   1  18
HETATM   18  C   UNL     1      -4.303   0.752 -31.544  1.00  0.00     0.248 C 
HETATM   19  N   UNL     1      -3.755  -0.009 -32.550  1.00  0.00    -0.325 N 
HETATM   20  H   UNL     1      -3.381   0.519 -33.330  1.00  0.00     0.169 HD
HETATM   21  O   UNL     1      -5.043   0.387 -30.639  1.00  0.00    -0.271 OA
BRANCH  19  22
HETATM   22  C   UNL     1      -3.766  -1.409 -32.793  1.00  0.00     0.041 A 
HETATM   23  C   UNL     1      -4.448  -2.143 -33.785  1.00  0.00    -0.027 A 
HETATM   24  C   UNL     1      -4.301  -3.557 -33.791  1.00  0.00     0.010 A 
HETATM   25  C   UNL     1      -3.525  -4.235 -32.856  1.00  0.00     0.001 A 
HETATM   26  C   UNL     1      -2.863  -3.516 -31.882  1.00  0.00     0.002 A 
HETATM   27  C   UNL     1      -2.984  -2.127 -31.855  1.00  0.00     0.030 A 
BRANCH  23  28
HETATM   28  C   UNL     1      -5.363  -1.608 -34.870  1.00  0.00     0.079 C 
BRANCH  28  29
HETATM   29  C   UNL     1      -6.568  -0.806 -34.420  1.00  0.00    -0.054 A 
HETATM   30  C   UNL     1      -7.175   0.077 -35.329  1.00  0.00     0.007 A 
HETATM   31  C   UNL     1      -8.354   0.748 -35.002  1.00  0.00     0.001 A 
HETATM   32  C   UNL     1      -8.953   0.535 -33.765  1.00  0.00     0.000 A 
HETATM   33  C   UNL     1      -8.371  -0.345 -32.854  1.00  0.00     0.001 A 
HETATM   34  C   UNL     1      -7.189  -1.015 -33.181  1.00  0.00     0.007 A 
ENDBRANCH  28  29
ENDBRANCH  23  28
ENDBRANCH  19  22
ENDBRANCH   1  18
TORSDOF 8
ENDMDL
MODEL 2
REMARK VINA RESULT:      -8.5      1.752      4.289
REMARK  8 active torsions:
REMARK  status: ('A' for Active; 'I' for Inactive)
REMARK    1  A    between atoms: O_2  and  C_3 
REMARK    2  A    between atoms: C_5  and  O_6 
REMARK    3  A    between atoms: C_8  and  C_9 
REMARK    4  A    between atoms: N_10  and  C_12 
REMARK    5  A    between atoms: C_12  and  C_13 
REMARK       I    between atoms: C_13  and  N_14 
REMARK    6  A    between atoms: N_14  and  C_15 
REMARK    7  A    between atoms: C_16  and  C_17 
REMARK    8  A    between atoms: C_17  and  C_18 
ROOT
HETATM    1  C   UNL     1      -3.055   4.337 -31.649  1.00  0.00     0.338 C 
ENDROOT
BRANCH   1   2
HETATM    2  N   UNL     1      -1.889   4.522 -32.618  1.00  0.00    -0.054 N 
HETATM    3  C   UNL     1      -1.056   5.807 -32.579  1.00  0.00     0.224 C 
HETATM    4  C   UNL     1      -1.482   6.516 -33.864  1.00  0.00     0.040 C 
HETATM    5  C   UNL     1      -1.556   5.368 -34.851  1.00  0.00     0.030 C 
HETATM    6  C   UNL     1      -2.266   4.275 -34.074  1.00  0.00     0.236 C 
HETATM    7  H   UNL     1      -1.218   3.796 -32.337  1.00  0.00     0.281 HD
BRANCH   3   8
HETATM    8  C   UNL     1      -1.021   6.582 -31.283  1.00  0.00     0.006 A 
HETATM    9  C   UNL     1      -0.287   6.090 -30.180  1.00  0.00     0.079 A 
HETATM   10  C   UNL     1      -0.275   6.788 -28.964  1.00  0.00     0.074 A 
HETATM   11  C   UNL     1      -0.954   8.000 -28.844  1.00  0.00     0.070 A 
HETATM   12  C   UNL     1      -1.611   8.529 -29.952  1.00  0.00     0.037 A 
HETATM   13  C   UNL     1      -1.648   7.831 -31.160  1.00  0.00     0.015 A 
BRANCH   9  14
HETATM   14  O   UNL     1       0.354   4.890 -30.390  1.00  0.00    -0.355 OA
HETATM   15  C   UNL     1       1.262   4.448 -29.379  1.00  0.00     0.210 C 
ENDBRANCH   9  14
BRANCH  11  16
HETATM   16  O   UNL     1      -1.043   8.765 -27.716  1.00  0.00    -0.356 OA
HETATM   17  C   UNL     1      -0.582   8.191 -26.498  1.00  0.00     0.210 C 
ENDBRANCH  11  16
ENDBRANCH   3   8
ENDBRANCH   1   2
BRANCH   1  18
HETATM   18  C   UNL     1      -3.678   2.942 -31.549  1.00  0.00     0.248 C 
HETATM   19  N   UNL     1      -5.002   2.892 -31.921  1.00  0.00    -0.325 N 
HETATM   20  H   UNL     1      -5.460   3.793 -31.989  1.00  0.00     0.169 HD
HETATM   21  O   UNL     1      -2.975   2.027 -31.142  1.00  0.00    -0.271 OA
BRANCH  19  22
HETATM   22  C   UNL     1      -5.907   1.806 -32.062  1.00  0.00     0.041 A 
HETATM   23  C   UNL     1      -5.704   0.539 -32.646  1.00  0.00    -0.027 A 
HETATM   24  C   UNL     1      -6.800  -0.367 -32.678  1.00  0.00     0.010 A 
HETATM   25  C   UNL     1      -8.054  -0.045 -32.166  1.00  0.00     0.001 A 
HETATM   26  C   UNL     1      -8.252   1.198 -31.601  1.00  0.00     0.002 A 
HETATM   27  C   UNL     1      -7.194   2.104 -31.551  1.00  0.00     0.030 A 
BRANCH  23  28
HETATM   28  C   UNL     1      -4.437   0.004 -33.284  1.00  0.00     0.079 C 
BRANCH  28  29
HETATM   29  C   UNL     1      -4.142  -1.472 -33.096  1.00  0.00    -0.054 A 
HETATM   30  C   UNL     1      -4.466  -2.367 -34.130  1.00  0.00     0.007 A 
HETATM   31  C   UNL     1      -4.108  -3.713 -34.055  1.00  0.00     0.001 A 
HETATM   32  C   UNL     1      -3.407  -4.183 -32.949  1.00  0.00     0.000 A 
HETATM   33  C   UNL     1      -3.068  -3.308 -31.918  1.00  0.00     0.001 A 
HETATM   34  C   UNL     1      -3.429  -1.960 -31.993  1.00  0.00     0.007 A 
ENDBRANCH  28  29
ENDBRANCH  23  28
ENDBRANCH  19  22
ENDBRANCH   1  18
TORSDOF 8
ENDMDL
MODEL 3
REMARK VINA RESULT:      -8.4      2.126      4.561
REMARK  8 active torsions:
REMARK  status: ('A' for Active; 'I' for Inactive)
REMARK    1  A    between atoms: O_2  and  C_3 
REMARK    2  A    between atoms: C_5  and  O_6 
REMARK    3  A    between atoms: C_8  and  C_9 
REMARK    4  A    between atoms: N_10  and  C_12 
REMARK    5  A    between atoms: C_12  and  C_13 
REMARK       I    between atoms: C_13  and  N_14 
REMARK    6  A    between atoms: N_14  and  C_15 
REMARK    7  A    between atoms: C_16  and  C_17 
REMARK    8  A    between atoms: C_17  and  C_18 
ROOT
HETATM    1  C   UNL     1      -2.522   4.403 -31.326  1.00  0.00     0.338 C 
ENDROOT
BRANCH   1   2
HETATM    2  N   UNL     1      -1.642   4.843 -32.494  1.00  0.00    -0.054 N 
HETATM    3  C   UNL     1      -1.196   6.303 -32.610  1.00  0.00     0.224 C 
HETATM    4  C   UNL     1      -2.021   6.809 -33.794  1.00  0.00     0.040 C 
HETATM    5  C   UNL     1      -1.956   5.634 -34.750  1.00  0.00     0.030 C 
HETATM    6  C   UNL     1      -2.191   4.432 -33.855  1.00  0.00     0.236 C 
HETATM    7  H   UNL     1      -0.761   4.337 -32.342  1.00  0.00     0.281 HD
BRANCH   3   8
HETATM    8  C   UNL     1      -1.142   7.125 -31.343  1.00  0.00     0.006 A 
HETATM    9  C   UNL     1      -0.154   6.861 -30.367  1.00  0.00     0.079 A 
HETATM   10  C   UNL     1      -0.117   7.598 -29.175  1.00  0.00     0.074 A 
HETATM   11  C   UNL     1      -1.030   8.629 -28.958  1.00  0.00     0.070 A 
HETATM   12  C   UNL     1      -1.953   8.945 -29.951  1.00  0.00     0.037 A 
HETATM   13  C   UNL     1      -2.013   8.203 -31.132  1.00  0.00     0.015 A 
BRANCH   9  14
HETATM   14  O   UNL     1       0.705   5.829 -30.667  1.00  0.00    -0.355 OA
HETATM   15  C   UNL     1       0.858   4.800 -29.687  1.00  0.00     0.210 C 
ENDBRANCH   9  14
BRANCH  11  16
HETATM   16  O   UNL     1      -1.119   9.403 -27.837  1.00  0.00    -0.356 OA
HETATM   17  C   UNL     1       0.078   9.629 -27.101  1.00  0.00     0.210 C 
ENDBRANCH  11  16
ENDBRANCH   3   8
ENDBRANCH   1   2
BRANCH   1  18
HETATM   18  C   UNL     1      -4.039   4.526 -31.497  1.00  0.00     0.248 C 
HETATM   19  N   UNL     1      -4.709   3.326 -31.431  1.00  0.00    -0.325 N 
HETATM   20  H   UNL     1      -4.121   2.504 -31.510  1.00  0.00     0.169 HD
HETATM   21  O   UNL     1      -4.506   5.640 -31.693  1.00  0.00    -0.271 OA
BRANCH  19  22
HETATM   22  C   UNL     1      -6.094   3.011 -31.446  1.00  0.00     0.041 A 
HETATM   23  C   UNL     1      -6.857   2.366 -32.440  1.00  0.00    -0.027 A 
HETATM   24  C   UNL     1      -8.249   2.194 -32.209  1.00  0.00     0.010 A 
HETATM   25  C   UNL     1      -8.880   2.644 -31.052  1.00  0.00     0.001 A 
HETATM   26  C   UNL     1      -8.132   3.280 -30.083  1.00  0.00     0.002 A 
HETATM   27  C   UNL     1      -6.763   3.457 -30.280  1.00  0.00     0.030 A 
BRANCH  23  28
HETATM   28  C   UNL     1      -6.379   1.832 -33.776  1.00  0.00     0.079 C 
BRANCH  28  29
HETATM   29  C   UNL     1      -6.124   0.340 -33.870  1.00  0.00    -0.054 A 
HETATM   30  C   UNL     1      -6.999  -0.452 -34.632  1.00  0.00     0.007 A 
HETATM   31  C   UNL     1      -6.741  -1.807 -34.846  1.00  0.00     0.001 A 
HETATM   32  C   UNL     1      -5.595  -2.387 -34.312  1.00  0.00     0.000 A 
HETATM   33  C   UNL     1      -4.710  -1.614 -33.563  1.00  0.00     0.001 A 
HETATM   34  C   UNL     1      -4.969  -0.258 -33.347  1.00  0.00     0.007 A 
ENDBRANCH  28  29
ENDBRANCH  23  28
ENDBRANCH  19  22
ENDBRANCH   1  18
TORSDOF 8
ENDMDL
MODEL 4
REMARK VINA RESULT:      -8.2      2.227      8.575
REMARK  8 active torsions:
REMARK  status: ('A' for Active; 'I' for Inactive)
REMARK    1  A    between atoms: O_2  and  C_3 
REMARK    2  A    between atoms: C_5  and  O_6 
REMARK    3  A    between atoms: C_8  and  C_9 
REMARK    4  A    between atoms: N_10  and  C_12 
REMARK    5  A    between atoms: C_12  and  C_13 
REMARK       I    between atoms: C_13  and  N_14 
REMARK    6  A    between atoms: N_14  and  C_15 
REMARK    7  A    between atoms: C_16  and  C_17 
REMARK    8  A    between atoms: C_17  and  C_18 
ROOT
HETATM    1  C   UNL     1      -6.115   2.807 -33.542  1.00  0.00     0.338 C 
ENDROOT
BRANCH   1   2
HETATM    2  N   UNL     1      -6.573   2.477 -32.122  1.00  0.00    -0.054 N 
HETATM    3  C   UNL     1      -7.073   1.069 -31.786  1.00  0.00     0.224 C 
HETATM    4  C   UNL     1      -8.574   1.287 -31.599  1.00  0.00     0.040 C 
HETATM    5  C   UNL     1      -8.613   2.601 -30.843  1.00  0.00     0.030 C 
HETATM    6  C   UNL     1      -7.597   3.462 -31.572  1.00  0.00     0.236 C 
HETATM    7  H   UNL     1      -5.716   2.564 -31.562  1.00  0.00     0.281 HD
BRANCH   3   8
HETATM    8  C   UNL     1      -6.594  -0.073 -32.652  1.00  0.00     0.006 A 
HETATM    9  C   UNL     1      -5.242  -0.482 -32.603  1.00  0.00     0.079 A 
HETATM   10  C   UNL     1      -4.783  -1.520 -33.426  1.00  0.00     0.074 A 
HETATM   11  C   UNL     1      -5.667  -2.189 -34.273  1.00  0.00     0.070 A 
HETATM   12  C   UNL     1      -7.015  -1.842 -34.264  1.00  0.00     0.037 A 
HETATM   13  C   UNL     1      -7.478  -0.795 -33.466  1.00  0.00     0.015 A 
BRANCH   9  14
HETATM   14  O   UNL     1      -4.444   0.230 -31.738  1.00  0.00    -0.355 OA
HETATM   15  C   UNL     1      -3.257  -0.410 -31.266  1.00  0.00     0.210 C 
ENDBRANCH   9  14
BRANCH  11  16
HETATM   16  O   UNL     1      -5.348  -3.195 -35.138  1.00  0.00    -0.356 OA
HETATM   17  C   UNL     1      -6.151  -4.369 -35.103  1.00  0.00     0.210 C 
ENDBRANCH  11  16
ENDBRANCH   3   8
ENDBRANCH   1   2
BRANCH   1  18
HETATM   18  C   UNL     1      -5.254   4.058 -33.735  1.00  0.00     0.248 C 
HETATM   19  N   UNL     1      -3.958   3.919 -33.293  1.00  0.00    -0.325 N 
HETATM   20  H   UNL     1      -3.794   3.116 -32.697  1.00  0.00     0.169 HD
HETATM   21  O   UNL     1      -5.780   5.046 -34.230  1.00  0.00    -0.271 OA
BRANCH  19  22
HETATM   22  C   UNL     1      -2.833   4.784 -33.368  1.00  0.00     0.041 A 
HETATM   23  C   UNL     1      -2.276   5.619 -32.379  1.00  0.00    -0.027 A 
HETATM   24  C   UNL     1      -1.147   6.409 -32.728  1.00  0.00     0.010 A 
HETATM   25  C   UNL     1      -0.585   6.394 -34.002  1.00  0.00     0.001 A 
HETATM   26  C   UNL     1      -1.136   5.580 -34.971  1.00  0.00     0.002 A 
HETATM   27  C   UNL     1      -2.240   4.790 -34.654  1.00  0.00     0.030 A 
BRANCH  23  28
HETATM   28  C   UNL     1      -2.748   5.808 -30.950  1.00  0.00     0.079 C 
BRANCH  28  29
HETATM   29  C   UNL     1      -1.867   6.640 -30.039  1.00  0.00    -0.054 A 
HETATM   30  C   UNL     1      -0.623   6.123 -29.639  1.00  0.00     0.007 A 
HETATM   31  C   UNL     1       0.273   6.896 -28.899  1.00  0.00     0.001 A 
HETATM   32  C   UNL     1      -0.056   8.205 -28.560  1.00  0.00     0.000 A 
HETATM   33  C   UNL     1      -1.281   8.738 -28.957  1.00  0.00     0.001 A 
HETATM   34  C   UNL     1      -2.180   7.963 -29.696  1.00  0.00     0.007 A 
ENDBRANCH  28  29
ENDBRANCH  23  28
ENDBRANCH  19  22
ENDBRANCH   1  18
TORSDOF 8
ENDMDL
MODEL 5
REMARK VINA RESULT:      -8.2      2.519      8.045
REMARK  8 active torsions:
REMARK  status: ('A' for Active; 'I' for Inactive)
REMARK    1  A    between atoms: O_2  and  C_3 
REMARK    2  A    between atoms: C_5  and  O_6 
REMARK    3  A    between atoms: C_8  and  C_9 
REMARK    4  A    between atoms: N_10  and  C_12 
REMARK    5  A    between atoms: C_12  and  C_13 
REMARK       I    between atoms: C_13  and  N_14 
REMARK    6  A    between atoms: N_14  and  C_15 
REMARK    7  A    between atoms: C_16  and  C_17 
REMARK    8  A    between atoms: C_17  and  C_18 
ROOT
HETATM    1  C   UNL     1      -6.223   2.596 -33.588  1.00  0.00     0.338 C 
ENDROOT
BRANCH   1   2
HETATM    2  N   UNL     1      -6.805   2.253 -32.219  1.00  0.00    -0.054 N 
HETATM    3  C   UNL     1      -7.232   0.815 -31.906  1.00  0.00     0.224 C 
HETATM    4  C   UNL     1      -8.757   0.920 -31.886  1.00  0.00     0.040 C 
HETATM    5  C   UNL     1      -8.976   2.238 -31.168  1.00  0.00     0.030 C 
HETATM    6  C   UNL     1      -7.954   3.163 -31.804  1.00  0.00     0.236 C 
HETATM    7  H   UNL     1      -6.024   2.414 -31.572  1.00  0.00     0.281 HD
BRANCH   3   8
HETATM    8  C   UNL     1      -6.578  -0.299 -32.689  1.00  0.00     0.006 A 
HETATM    9  C   UNL     1      -5.264  -0.712 -32.374  1.00  0.00     0.079 A 
HETATM   10  C   UNL     1      -4.639  -1.724 -33.117  1.00  0.00     0.074 A 
HETATM   11  C   UNL     1      -5.324  -2.363 -34.149  1.00  0.00     0.070 A 
HETATM   12  C   UNL     1      -6.647  -2.014 -34.410  1.00  0.00     0.037 A 
HETATM   13  C   UNL     1      -7.271  -0.993 -33.692  1.00  0.00     0.015 A 
BRANCH   9  14
HETATM   14  O   UNL     1      -4.666  -0.029 -31.340  1.00  0.00    -0.355 OA
HETATM   15  C   UNL     1      -3.251  -0.168 -31.195  1.00  0.00     0.210 C 
ENDBRANCH   9  14
BRANCH  11  16
HETATM   16  O   UNL     1      -4.827  -3.341 -34.961  1.00  0.00    -0.356 OA
HETATM   17  C   UNL     1      -5.153  -4.688 -34.639  1.00  0.00     0.210 C 
ENDBRANCH  11  16
ENDBRANCH   3   8
ENDBRANCH   1   2
BRANCH   1  18
HETATM   18  C   UNL     1      -5.605   3.986 -33.766  1.00  0.00     0.248 C 
HETATM   19  N   UNL     1      -4.382   4.137 -33.153  1.00  0.00    -0.325 N 
HETATM   20  H   UNL     1      -4.150   3.415 -32.481  1.00  0.00     0.169 HD
HETATM   21  O   UNL     1      -6.239   4.820 -34.399  1.00  0.00    -0.271 OA
BRANCH  19  22
HETATM   22  C   UNL     1      -3.449   5.208 -33.150  1.00  0.00     0.041 A 
HETATM   23  C   UNL     1      -3.551   6.486 -32.564  1.00  0.00    -0.027 A 
HETATM   24  C   UNL     1      -2.466   7.389 -32.733  1.00  0.00     0.010 A 
HETATM   25  C   UNL     1      -1.323   7.062 -33.458  1.00  0.00     0.001 A 
HETATM   26  C   UNL     1      -1.228   5.813 -34.036  1.00  0.00     0.002 A 
HETATM   27  C   UNL     1      -2.275   4.905 -33.882  1.00  0.00     0.030 A 
BRANCH  23  28
HETATM   28  C   UNL     1      -4.711   7.051 -31.768  1.00  0.00     0.079 C 
BRANCH  28  29
HETATM   29  C   UNL     1      -4.892   6.535 -30.353  1.00  0.00    -0.054 A 
HETATM   30  C   UNL     1      -4.190   7.157 -29.307  1.00  0.00     0.007 A 
HETATM   31  C   UNL     1      -4.412   6.797 -27.978  1.00  0.00     0.001 A 
HETATM   32  C   UNL     1      -5.352   5.817 -27.672  1.00  0.00     0.000 A 
HETATM   33  C   UNL     1      -6.065   5.196 -28.696  1.00  0.00     0.001 A 
HETATM   34  C   UNL     1      -5.841   5.556 -30.028  1.00  0.00     0.007 A 
ENDBRANCH  28  29
ENDBRANCH  23  28
ENDBRANCH  19  22
ENDBRANCH   1  18
TORSDOF 8
ENDMDL
MODEL 6
REMARK VINA RESULT:      -8.1      2.391      7.795
REMARK  8 active torsions:
REMARK  status: ('A' for Active; 'I' for Inactive)
REMARK    1  A    between atoms: O_2  and  C_3 
REMARK    2  A    between atoms: C_5  and  O_6 
REMARK    3  A    between atoms: C_8  and  C_9 
REMARK    4  A    between atoms: N_10  and  C_12 
REMARK    5  A    between atoms: C_12  and  C_13 
REMARK       I    between atoms: C_13  and  N_14 
REMARK    6  A    between atoms: N_14  and  C_15 
REMARK    7  A    between atoms: C_16  and  C_17 
REMARK    8  A    between atoms: C_17  and  C_18 
ROOT
HETATM    1  C   UNL     1      -6.195  -0.443 -31.423  1.00  0.00     0.338 C 
ENDROOT
BRANCH   1   2
HETATM    2  N   UNL     1      -5.587  -0.512 -32.823  1.00  0.00    -0.054 N 
HETATM    3  C   UNL     1      -6.460  -0.237 -34.051  1.00  0.00     0.224 C 
HETATM    4  C   UNL     1      -6.601  -1.626 -34.674  1.00  0.00     0.040 C 
HETATM    5  C   UNL     1      -5.204  -2.192 -34.509  1.00  0.00     0.030 C 
HETATM    6  C   UNL     1      -4.828  -1.805 -33.091  1.00  0.00     0.236 C 
HETATM    7  H   UNL     1      -4.911   0.262 -32.835  1.00  0.00     0.281 HD
BRANCH   3   8
HETATM    8  C   UNL     1      -7.691   0.617 -33.862  1.00  0.00     0.006 A 
HETATM    9  C   UNL     1      -7.597   2.026 -33.932  1.00  0.00     0.079 A 
HETATM   10  C   UNL     1      -8.729   2.826 -33.726  1.00  0.00     0.074 A 
HETATM   11  C   UNL     1      -9.972   2.238 -33.493  1.00  0.00     0.070 A 
HETATM   12  C   UNL     1     -10.084   0.850 -33.504  1.00  0.00     0.037 A 
HETATM   13  C   UNL     1      -8.960   0.044 -33.684  1.00  0.00     0.015 A 
BRANCH   9  14
HETATM   14  O   UNL     1      -6.334   2.517 -34.169  1.00  0.00    -0.355 OA
HETATM   15  C   UNL     1      -6.181   3.938 -34.204  1.00  0.00     0.210 C 
ENDBRANCH   9  14
BRANCH  11  16
HETATM   16  O   UNL     1     -11.143   2.898 -33.254  1.00  0.00    -0.356 OA
HETATM   17  C   UNL     1     -12.352   2.163 -33.409  1.00  0.00     0.210 C 
ENDBRANCH  11  16
ENDBRANCH   3   8
ENDBRANCH   1   2
BRANCH   1  18
HETATM   18  C   UNL     1      -5.848   0.773 -30.559  1.00  0.00     0.248 C 
HETATM   19  N   UNL     1      -5.651   1.930 -31.276  1.00  0.00    -0.325 N 
HETATM   20  H   UNL     1      -5.530   1.799 -32.274  1.00  0.00     0.169 HD
HETATM   21  O   UNL     1      -5.757   0.610 -29.350  1.00  0.00    -0.271 OA
BRANCH  19  22
HETATM   22  C   UNL     1      -5.410   3.269 -30.867  1.00  0.00     0.041 A 
HETATM   23  C   UNL     1      -4.227   4.032 -30.945  1.00  0.00    -0.027 A 
HETATM   24  C   UNL     1      -4.252   5.359 -30.435  1.00  0.00     0.010 A 
HETATM   25  C   UNL     1      -5.388   5.921 -29.860  1.00  0.00     0.001 A 
HETATM   26  C   UNL     1      -6.543   5.171 -29.779  1.00  0.00     0.002 A 
HETATM   27  C   UNL     1      -6.549   3.868 -30.276  1.00  0.00     0.030 A 
BRANCH  23  28
HETATM   28  C   UNL     1      -2.882   3.605 -31.499  1.00  0.00     0.079 C 
BRANCH  28  29
HETATM   29  C   UNL     1      -2.164   4.591 -32.400  1.00  0.00    -0.054 A 
HETATM   30  C   UNL     1      -2.498   4.633 -33.765  1.00  0.00     0.007 A 
HETATM   31  C   UNL     1      -1.953   5.600 -34.610  1.00  0.00     0.001 A 
HETATM   32  C   UNL     1      -1.076   6.551 -34.099  1.00  0.00     0.000 A 
HETATM   33  C   UNL     1      -0.741   6.532 -32.746  1.00  0.00     0.001 A 
HETATM   34  C   UNL     1      -1.285   5.562 -31.901  1.00  0.00     0.007 A 
ENDBRANCH  28  29
ENDBRANCH  23  28
ENDBRANCH  19  22
ENDBRANCH   1  18
TORSDOF 8
ENDMDL
MODEL 7
REMARK VINA RESULT:      -8.0      2.234      3.437
REMARK  8 active torsions:
REMARK  status: ('A' for Active; 'I' for Inactive)
REMARK    1  A    between atoms: O_2  and  C_3 
REMARK    2  A    between atoms: C_5  and  O_6 
REMARK    3  A    between atoms: C_8  and  C_9 
REMARK    4  A    between atoms: N_10  and  C_12 
REMARK    5  A    between atoms: C_12  and  C_13 
REMARK       I    between atoms: C_13  and  N_14 
REMARK    6  A    between atoms: N_14  and  C_15 
REMARK    7  A    between atoms: C_16  and  C_17 
REMARK    8  A    between atoms: C_17  and  C_18 
ROOT
HETATM    1  C   UNL     1      -6.132   3.389 -29.806  1.00  0.00     0.338 C 
ENDROOT
BRANCH   1   2
HETATM    2  N   UNL     1      -6.770   4.507 -30.629  1.00  0.00    -0.054 N 
HETATM    3  C   UNL     1      -5.911   5.665 -31.144  1.00  0.00     0.224 C 
HETATM    4  C   UNL     1      -6.371   6.833 -30.270  1.00  0.00     0.040 C 
HETATM    5  C   UNL     1      -7.869   6.612 -30.208  1.00  0.00     0.030 C 
HETATM    6  C   UNL     1      -8.000   5.119 -29.969  1.00  0.00     0.236 C 
HETATM    7  H   UNL     1      -7.073   4.036 -31.490  1.00  0.00     0.281 HD
BRANCH   3   8
HETATM    8  C   UNL     1      -4.432   5.417 -31.326  1.00  0.00     0.006 A 
HETATM    9  C   UNL     1      -3.978   4.544 -32.341  1.00  0.00     0.079 A 
HETATM   10  C   UNL     1      -2.609   4.284 -32.496  1.00  0.00     0.074 A 
HETATM   11  C   UNL     1      -1.676   4.918 -31.676  1.00  0.00     0.070 A 
HETATM   12  C   UNL     1      -2.114   5.840 -30.729  1.00  0.00     0.037 A 
HETATM   13  C   UNL     1      -3.475   6.089 -30.550  1.00  0.00     0.015 A 
BRANCH   9  14
HETATM   14  O   UNL     1      -4.967   3.966 -33.103  1.00  0.00    -0.355 OA
HETATM   15  C   UNL     1      -5.219   4.537 -34.389  1.00  0.00     0.210 C 
ENDBRANCH   9  14
BRANCH  11  16
HETATM   16  O   UNL     1      -0.324   4.737 -31.704  1.00  0.00    -0.356 OA
HETATM   17  C   UNL     1       0.433   5.274 -30.625  1.00  0.00     0.210 C 
ENDBRANCH  11  16
ENDBRANCH   3   8
ENDBRANCH   1   2
BRANCH   1  18
HETATM   18  C   UNL     1      -6.214   1.965 -30.364  1.00  0.00     0.248 C 
HETATM   19  N   UNL     1      -6.686   1.896 -31.655  1.00  0.00    -0.325 N 
HETATM   20  H   UNL     1      -7.132   2.742 -31.992  1.00  0.00     0.169 HD
HETATM   21  O   UNL     1      -5.885   1.042 -29.632  1.00  0.00    -0.271 OA
BRANCH  19  22
HETATM   22  C   UNL     1      -6.826   0.807 -32.556  1.00  0.00     0.041 A 
HETATM   23  C   UNL     1      -7.977   0.071 -32.903  1.00  0.00    -0.027 A 
HETATM   24  C   UNL     1      -7.835  -1.000 -33.827  1.00  0.00     0.010 A 
HETATM   25  C   UNL     1      -6.609  -1.349 -34.388  1.00  0.00     0.001 A 
HETATM   26  C   UNL     1      -5.482  -0.631 -34.043  1.00  0.00     0.002 A 
HETATM   27  C   UNL     1      -5.594   0.428 -33.143  1.00  0.00     0.030 A 
BRANCH  23  28
HETATM   28  C   UNL     1      -9.391   0.263 -32.388  1.00  0.00     0.079 C 
BRANCH  28  29
HETATM   29  C   UNL     1     -10.330   1.087 -33.247  1.00  0.00    -0.054 A 
HETATM   30  C   UNL     1      -9.858   2.280 -33.820  1.00  0.00     0.007 A 
HETATM   31  C   UNL     1     -10.643   3.011 -34.711  1.00  0.00     0.001 A 
HETATM   32  C   UNL     1     -11.911   2.552 -35.056  1.00  0.00     0.000 A 
HETATM   33  C   UNL     1     -12.392   1.365 -34.505  1.00  0.00     0.001 A 
HETATM   34  C   UNL     1     -11.606   0.635 -33.611  1.00  0.00     0.007 A 
ENDBRANCH  28  29
ENDBRANCH  23  28
ENDBRANCH  19  22
ENDBRANCH   1  18
TORSDOF 8
ENDMDL
MODEL 8
REMARK VINA RESULT:      -7.9      2.037      4.465
REMARK  8 active torsions:
REMARK  status: ('A' for Active; 'I' for Inactive)
REMARK    1  A    between atoms: O_2  and  C_3 
REMARK    2  A    between atoms: C_5  and  O_6 
REMARK    3  A    between atoms: C_8  and  C_9 
REMARK    4  A    between atoms: N_10  and  C_12 
REMARK    5  A    between atoms: C_12  and  C_13 
REMARK       I    between atoms: C_13  and  N_14 
REMARK    6  A    between atoms: N_14  and  C_15 
REMARK    7  A    between atoms: C_16  and  C_17 
REMARK    8  A    between atoms: C_17  and  C_18 
ROOT
HETATM    1  C   UNL     1      -5.744   4.603 -32.313  1.00  0.00     0.338 C 
ENDROOT
BRANCH   1   2
HETATM    2  N   UNL     1      -5.879   6.090 -32.637  1.00  0.00    -0.054 N 
HETATM    3  C   UNL     1      -4.782   7.070 -32.210  1.00  0.00     0.224 C 
HETATM    4  C   UNL     1      -5.456   7.847 -31.079  1.00  0.00     0.040 C 
HETATM    5  C   UNL     1      -6.858   8.044 -31.619  1.00  0.00     0.030 C 
HETATM    6  C   UNL     1      -7.211   6.686 -32.199  1.00  0.00     0.236 C 
HETATM    7  H   UNL     1      -5.839   6.122 -33.663  1.00  0.00     0.281 HD
BRANCH   3   8
HETATM    8  C   UNL     1      -3.390   6.521 -32.003  1.00  0.00     0.006 A 
HETATM    9  C   UNL     1      -2.594   6.167 -33.116  1.00  0.00     0.079 A 
HETATM   10  C   UNL     1      -1.313   5.628 -32.932  1.00  0.00     0.074 A 
HETATM   11  C   UNL     1      -0.794   5.474 -31.647  1.00  0.00     0.070 A 
HETATM   12  C   UNL     1      -1.543   5.897 -30.552  1.00  0.00     0.037 A 
HETATM   13  C   UNL     1      -2.828   6.413 -30.723  1.00  0.00     0.015 A 
BRANCH   9  14
HETATM   14  O   UNL     1      -3.185   6.356 -34.344  1.00  0.00    -0.355 OA
HETATM   15  C   UNL     1      -3.350   5.204 -35.174  1.00  0.00     0.210 C 
ENDBRANCH   9  14
BRANCH  11  16
HETATM   16  O   UNL     1       0.422   4.943 -31.328  1.00  0.00    -0.356 OA
HETATM   17  C   UNL     1       0.700   4.723 -29.949  1.00  0.00     0.210 C 
ENDBRANCH  11  16
ENDBRANCH   3   8
ENDBRANCH   1   2
BRANCH   1  18
HETATM   18  C   UNL     1      -7.028   3.823 -32.017  1.00  0.00     0.248 C 
HETATM   19  N   UNL     1      -7.608   3.257 -33.129  1.00  0.00    -0.325 N 
HETATM   20  H   UNL     1      -7.262   3.605 -34.015  1.00  0.00     0.169 HD
HETATM   21  O   UNL     1      -7.425   3.791 -30.860  1.00  0.00    -0.271 OA
BRANCH  19  22
HETATM   22  C   UNL     1      -8.728   2.396 -33.279  1.00  0.00     0.041 A 
HETATM   23  C   UNL     1      -8.908   1.071 -32.831  1.00  0.00    -0.027 A 
HETATM   24  C   UNL     1     -10.134   0.420 -33.140  1.00  0.00     0.010 A 
HETATM   25  C   UNL     1     -11.147   1.036 -33.870  1.00  0.00     0.001 A 
HETATM   26  C   UNL     1     -10.966   2.331 -34.313  1.00  0.00     0.002 A 
HETATM   27  C   UNL     1      -9.776   2.995 -34.019  1.00  0.00     0.030 A 
BRANCH  23  28
HETATM   28  C   UNL     1      -7.927   0.213 -32.056  1.00  0.00     0.079 C 
BRANCH  28  29
HETATM   29  C   UNL     1      -6.869  -0.520 -32.858  1.00  0.00    -0.054 A 
HETATM   30  C   UNL     1      -5.572  -0.632 -32.331  1.00  0.00     0.007 A 
HETATM   31  C   UNL     1      -4.597  -1.396 -32.973  1.00  0.00     0.001 A 
HETATM   32  C   UNL     1      -4.909  -2.072 -34.148  1.00  0.00     0.000 A 
HETATM   33  C   UNL     1      -6.194  -1.980 -34.681  1.00  0.00     0.001 A 
HETATM   34  C   UNL     1      -7.170  -1.214 -34.038  1.00  0.00     0.007 A 
ENDBRANCH  28  29
ENDBRANCH  23  28
ENDBRANCH  19  22
ENDBRANCH   1  18
TORSDOF 8
ENDMDL
MODEL 9
REMARK VINA RESULT:      -7.7      2.898      5.971
REMARK  8 active torsions:
REMARK  status: ('A' for Active; 'I' for Inactive)
REMARK    1  A    between atoms: O_2  and  C_3 
REMARK    2  A    between atoms: C_5  and  O_6 
REMARK    3  A    between atoms: C_8  and  C_9 
REMARK    4  A    between atoms: N_10  and  C_12 
REMARK    5  A    between atoms: C_12  and  C_13 
REMARK       I    between atoms: C_13  and  N_14 
REMARK    6  A    between atoms: N_14  and  C_15 
REMARK    7  A    between atoms: C_16  and  C_17 
REMARK    8  A    between atoms: C_17  and  C_18 
ROOT
HETATM    1  C   UNL     1      -7.299   5.107 -33.371  1.00  0.00     0.338 C 
ENDROOT
BRANCH   1   2
HETATM    2  N   UNL     1      -7.413   5.868 -32.051  1.00  0.00    -0.054 N 
HETATM    3  C   UNL     1      -6.864   5.251 -30.762  1.00  0.00     0.224 C 
HETATM    4  C   UNL     1      -8.139   4.892 -29.997  1.00  0.00     0.040 C 
HETATM    5  C   UNL     1      -9.021   6.095 -30.269  1.00  0.00     0.030 C 
HETATM    6  C   UNL     1      -8.826   6.353 -31.752  1.00  0.00     0.236 C 
HETATM    7  H   UNL     1      -6.818   6.693 -32.192  1.00  0.00     0.281 HD
BRANCH   3   8
HETATM    8  C   UNL     1      -5.763   4.224 -30.886  1.00  0.00     0.006 A 
HETATM    9  C   UNL     1      -4.465   4.618 -31.284  1.00  0.00     0.079 A 
HETATM   10  C   UNL     1      -3.447   3.666 -31.432  1.00  0.00     0.074 A 
HETATM   11  C   UNL     1      -3.693   2.324 -31.148  1.00  0.00     0.070 A 
HETATM   12  C   UNL     1      -4.947   1.944 -30.679  1.00  0.00     0.037 A 
HETATM   13  C   UNL     1      -5.975   2.879 -30.549  1.00  0.00     0.015 A 
BRANCH   9  14
HETATM   14  O   UNL     1      -4.313   5.962 -31.540  1.00  0.00    -0.355 OA
HETATM   15  C   UNL     1      -3.744   6.327 -32.799  1.00  0.00     0.210 C 
ENDBRANCH   9  14
BRANCH  11  16
HETATM   16  O   UNL     1      -2.802   1.297 -31.273  1.00  0.00    -0.356 OA
HETATM   17  C   UNL     1      -3.306  -0.027 -31.141  1.00  0.00     0.210 C 
ENDBRANCH  11  16
ENDBRANCH   3   8
ENDBRANCH   1   2
BRANCH   1  18
HETATM   18  C   UNL     1      -8.595   4.815 -34.134  1.00  0.00     0.248 C 
HETATM   19  N   UNL     1      -9.129   3.573 -33.875  1.00  0.00    -0.325 N 
HETATM   20  H   UNL     1      -8.502   2.927 -33.409  1.00  0.00     0.169 HD
HETATM   21  O   UNL     1      -9.018   5.673 -34.897  1.00  0.00    -0.271 OA
BRANCH  19  22
HETATM   22  C   UNL     1     -10.340   2.956 -34.290  1.00  0.00     0.041 A 
HETATM   23  C   UNL     1     -10.809   1.649 -34.050  1.00  0.00    -0.027 A 
HETATM   24  C   UNL     1     -12.062   1.274 -34.606  1.00  0.00     0.010 A 
HETATM   25  C   UNL     1     -12.829   2.142 -35.380  1.00  0.00     0.001 A 
HETATM   26  C   UNL     1     -12.365   3.419 -35.619  1.00  0.00     0.002 A 
HETATM   27  C   UNL     1     -11.142   3.815 -35.080  1.00  0.00     0.030 A 
BRANCH  23  28
HETATM   28  C   UNL     1     -10.122   0.546 -33.268  1.00  0.00     0.079 C 
BRANCH  28  29
HETATM   29  C   UNL     1      -8.676   0.250 -33.620  1.00  0.00    -0.054 A 
HETATM   30  C   UNL     1      -7.789  -0.120 -32.595  1.00  0.00     0.007 A 
HETATM   31  C   UNL     1      -6.482  -0.515 -32.882  1.00  0.00     0.001 A 
HETATM   32  C   UNL     1      -6.046  -0.561 -34.202  1.00  0.00     0.000 A 
HETATM   33  C   UNL     1      -6.915  -0.207 -35.233  1.00  0.00     0.001 A 
HETATM   34  C   UNL     1      -8.224   0.191 -34.945  1.00  0.00     0.007 A 
ENDBRANCH  28  29
ENDBRANCH  23  28
ENDBRANCH  19  22
ENDBRANCH   1  18
TORSDOF 8
ENDMDL
MODEL 10
REMARK VINA RESULT:      -7.7      3.190      7.831
REMARK  8 active torsions:
REMARK  status: ('A' for Active; 'I' for Inactive)
REMARK    1  A    between atoms: O_2  and  C_3 
REMARK    2  A    between atoms: C_5  and  O_6 
REMARK    3  A    between atoms: C_8  and  C_9 
REMARK    4  A    between atoms: N_10  and  C_12 
REMARK    5  A    between atoms: C_12  and  C_13 
REMARK       I    between atoms: C_13  and  N_14 
REMARK    6  A    between atoms: N_14  and  C_15 
REMARK    7  A    between atoms: C_16  and  C_17 
REMARK    8  A    between atoms: C_17  and  C_18 
ROOT
HETATM    1  C   UNL     1      -7.776   4.910 -33.136  1.00  0.00     0.338 C 
ENDROOT
BRANCH   1   2
HETATM    2  N   UNL     1      -8.194   4.912 -31.667  1.00  0.00    -0.054 N 
HETATM    3  C   UNL     1      -9.641   4.594 -31.281  1.00  0.00     0.224 C 
HETATM    4  C   UNL     1     -10.172   5.957 -30.835  1.00  0.00     0.040 C 
HETATM    5  C   UNL     1      -8.998   6.515 -30.055  1.00  0.00     0.030 C 
HETATM    6  C   UNL     1      -7.801   6.185 -30.927  1.00  0.00     0.236 C 
HETATM    7  H   UNL     1      -7.663   4.132 -31.259  1.00  0.00     0.281 HD
BRANCH   3   8
HETATM    8  C   UNL     1     -10.458   3.761 -32.241  1.00  0.00     0.006 A 
HETATM    9  C   UNL     1     -10.142   2.398 -32.446  1.00  0.00     0.079 A 
HETATM   10  C   UNL     1     -10.875   1.627 -33.359  1.00  0.00     0.074 A 
HETATM   11  C   UNL     1     -11.953   2.187 -34.044  1.00  0.00     0.070 A 
HETATM   12  C   UNL     1     -12.318   3.505 -33.785  1.00  0.00     0.037 A 
HETATM   13  C   UNL     1     -11.581   4.288 -32.896  1.00  0.00     0.015 A 
BRANCH   9  14
HETATM   14  O   UNL     1      -9.067   1.931 -31.726  1.00  0.00    -0.355 OA
HETATM   15  C   UNL     1      -8.940   0.515 -31.584  1.00  0.00     0.210 C 
ENDBRANCH   9  14
BRANCH  11  16
HETATM   16  O   UNL     1     -12.731   1.557 -34.973  1.00  0.00    -0.356 OA
HETATM   17  C   UNL     1     -13.860   0.831 -34.499  1.00  0.00     0.210 C 
ENDBRANCH  11  16
ENDBRANCH   3   8
ENDBRANCH   1   2
BRANCH   1  18
HETATM   18  C   UNL     1      -6.589   4.026 -33.533  1.00  0.00     0.248 C 
HETATM   19  N   UNL     1      -6.381   2.958 -32.691  1.00  0.00    -0.325 N 
HETATM   20  H   UNL     1      -6.871   3.010 -31.806  1.00  0.00     0.169 HD
HETATM   21  O   UNL     1      -5.939   4.348 -34.518  1.00  0.00    -0.271 OA
BRANCH  19  22
HETATM   22  C   UNL     1      -5.471   1.869 -32.749  1.00  0.00     0.041 A 
HETATM   23  C   UNL     1      -4.184   1.744 -32.187  1.00  0.00    -0.027 A 
HETATM   24  C   UNL     1      -3.466   0.539 -32.418  1.00  0.00     0.010 A 
HETATM   25  C   UNL     1      -3.981  -0.506 -33.181  1.00  0.00     0.001 A 
HETATM   26  C   UNL     1      -5.238  -0.380 -33.736  1.00  0.00     0.002 A 
HETATM   27  C   UNL     1      -5.967   0.789 -33.520  1.00  0.00     0.030 A 
BRANCH  23  28
HETATM   28  C   UNL     1      -3.431   2.766 -31.358  1.00  0.00     0.079 C 
BRANCH  28  29
HETATM   29  C   UNL     1      -2.687   3.851 -32.112  1.00  0.00    -0.054 A 
HETATM   30  C   UNL     1      -1.793   4.677 -31.410  1.00  0.00     0.007 A 
HETATM   31  C   UNL     1      -0.998   5.609 -32.078  1.00  0.00     0.001 A 
HETATM   32  C   UNL     1      -1.075   5.720 -33.463  1.00  0.00     0.000 A 
HETATM   33  C   UNL     1      -1.949   4.902 -34.177  1.00  0.00     0.001 A 
HETATM   34  C   UNL     1      -2.747   3.970 -33.507  1.00  0.00     0.007 A 
ENDBRANCH  28  29
ENDBRANCH  23  28
ENDBRANCH  19  22
ENDBRANCH   1  18
TORSDOF 8
ENDMDL
