MODEL 1
REMARK VINA RESULT:      -8.6      0.000      0.000
REMARK  7 active torsions:
REMARK  status: ('A' for Active; 'I' for Inactive)
REMARK    1  A    between atoms: C_2  and  N_3 
REMARK    2  A    between atoms: C_2  and  C_10 
REMARK    3  A    between atoms: C_10  and  N_11 
REMARK       I    between atoms: N_11  and  C_12 
REMARK       I    between atoms: C_12  and  N_13 
REMARK    4  A    between atoms: N_13  and  C_14 
REMARK    5  A    between atoms: C_14  and  C_15 
REMARK    6  A    between atoms: C_18  and  N_19 
REMARK       I    between atoms: N_19  and  C_20 
REMARK    7  A    between atoms: C_20  and  C_21 
ROOT
HETATM    1  N   UNL     1       4.189   7.808 -22.810  1.00  0.00    -0.341 N 
HETATM    2  C   UNL     1       3.119   8.521 -23.287  1.00  0.00     0.316 C 
HETATM    3  N   UNL     1       2.888   8.297 -24.611  1.00  0.00    -0.339 N 
HETATM    4  O   UNL     1       2.495   9.308 -22.590  1.00  0.00    -0.248 OA
HETATM    5  H   UNL     1       4.452   6.986 -23.338  1.00  0.00     0.164 HD
HETATM    6  H   UNL     1       3.329   7.524 -25.083  1.00  0.00     0.164 HD
ENDROOT
BRANCH   3   7
HETATM    7  C   UNL     1       1.832   8.986 -25.324  1.00  0.00     0.162 C 
BRANCH   7   8
HETATM    8  C   UNL     1       1.219   8.201 -26.459  1.00  0.00    -0.040 A 
HETATM    9  C   UNL     1       0.374   7.100 -26.271  1.00  0.00     0.011 A 
HETATM   10  C   UNL     1      -0.208   6.440 -27.362  1.00  0.00     0.030 A 
HETATM   11  C   UNL     1       0.029   6.878 -28.665  1.00  0.00     0.035 A 
HETATM   12  C   UNL     1       0.870   7.976 -28.861  1.00  0.00     0.030 A 
HETATM   13  C   UNL     1       1.457   8.630 -27.772  1.00  0.00     0.011 A 
BRANCH  11  14
HETATM   14  N   UNL     1      -0.547   6.298 -29.809  1.00  0.00    -0.321 N 
HETATM   15  C   UNL     1      -0.214   5.110 -30.435  1.00  0.00     0.279 C 
HETATM   16  O   UNL     1       0.708   4.368 -30.112  1.00  0.00    -0.265 OA
HETATM   17  H   UNL     1      -1.327   6.790 -30.234  1.00  0.00     0.169 HD
BRANCH  15  18
HETATM   18  C   UNL     1      -1.093   4.810 -31.553  1.00  0.00     0.142 A 
HETATM   19  O   UNL     1      -2.069   3.856 -31.403  1.00  0.00    -0.317 OA
HETATM   20  C   UNL     1      -2.724   3.764 -32.590  1.00  0.00     0.143 A 
HETATM   21  C   UNL     1      -2.194   4.644 -33.503  1.00  0.00     0.027 A 
HETATM   22  C   UNL     1      -1.143   5.318 -32.838  1.00  0.00     0.045 A 
ENDBRANCH  15  18
ENDBRANCH  11  14
ENDBRANCH   7   8
ENDBRANCH   3   7
BRANCH   1  23
HETATM   23  C   UNL     1       4.549   7.881 -21.403  1.00  0.00     0.162 C 
BRANCH  23  24
HETATM   24  C   UNL     1       6.072   8.141 -21.096  1.00  0.00     0.136 C 
HETATM   25  C   UNL     1       6.310   8.803 -19.733  1.00  0.00     0.048 C 
HETATM   26  C   UNL     1       6.643   9.035 -22.217  1.00  0.00     0.048 C 
BRANCH  24  27
HETATM   27  N   UNL     1       6.844   6.754 -21.143  1.00  0.00    -0.061 N 
HETATM   28  H   UNL     1       6.118   6.039 -20.999  1.00  0.00     0.280 HD
HETATM   29  C   UNL     1       7.493   6.425 -22.484  1.00  0.00     0.236 C 
HETATM   30  C   UNL     1       7.988   4.985 -22.481  1.00  0.00     0.028 C 
HETATM   31  C   UNL     1       8.968   4.728 -21.346  1.00  0.00     0.003 C 
HETATM   32  C   UNL     1       8.359   5.126 -20.011  1.00  0.00     0.028 C 
HETATM   33  C   UNL     1       7.860   6.566 -20.020  1.00  0.00     0.236 C 
ENDBRANCH  24  27
ENDBRANCH  23  24
ENDBRANCH   1  23
TORSDOF 7
ENDMDL
MODEL 2
REMARK VINA RESULT:      -8.5      8.340     16.584
REMARK  7 active torsions:
REMARK  status: ('A' for Active; 'I' for Inactive)
REMARK    1  A    between atoms: C_2  and  N_3 
REMARK    2  A    between atoms: C_2  and  C_10 
REMARK    3  A    between atoms: C_10  and  N_11 
REMARK       I    between atoms: N_11  and  C_12 
REMARK       I    between atoms: C_12  and  N_13 
REMARK    4  A    between atoms: N_13  and  C_14 
REMARK    5  A    between atoms: C_14  and  C_15 
REMARK    6  A    between atoms: C_18  and  N_19 
REMARK       I    between atoms: N_19  and  C_20 
REMARK    7  A    between atoms: C_20  and  C_21 
ROOT
HETATM    1  N   UNL     1     -10.178   1.769 -32.327  1.00  0.00    -0.341 N 
HETATM    2  C   UNL     1      -9.032   1.020 -32.421  1.00  0.00     0.316 C 
HETATM    3  N   UNL     1      -8.516   0.697 -31.202  1.00  0.00    -0.339 N 
HETATM    4  O   UNL     1      -8.522   0.738 -33.496  1.00  0.00    -0.248 OA
HETATM    5  H   UNL     1     -10.685   1.706 -31.454  1.00  0.00     0.164 HD
HETATM    6  H   UNL     1      -9.065   0.819 -30.367  1.00  0.00     0.164 HD
ENDROOT
BRANCH   3   7
HETATM    7  C   UNL     1      -7.283  -0.053 -31.076  1.00  0.00     0.162 C 
BRANCH   7   8
HETATM    8  C   UNL     1      -6.028   0.788 -31.093  1.00  0.00    -0.040 A 
HETATM    9  C   UNL     1      -4.850   0.406 -31.746  1.00  0.00     0.011 A 
HETATM   10  C   UNL     1      -3.731   1.251 -31.772  1.00  0.00     0.030 A 
HETATM   11  C   UNL     1      -3.774   2.503 -31.160  1.00  0.00     0.035 A 
HETATM   12  C   UNL     1      -4.946   2.893 -30.507  1.00  0.00     0.030 A 
HETATM   13  C   UNL     1      -6.060   2.046 -30.475  1.00  0.00     0.011 A 
BRANCH  11  14
HETATM   14  N   UNL     1      -2.712   3.425 -31.175  1.00  0.00    -0.321 N 
HETATM   15  C   UNL     1      -2.310   4.262 -32.201  1.00  0.00     0.279 C 
HETATM   16  O   UNL     1      -2.803   4.300 -33.324  1.00  0.00    -0.265 OA
HETATM   17  H   UNL     1      -2.168   3.519 -30.322  1.00  0.00     0.169 HD
BRANCH  15  18
HETATM   18  C   UNL     1      -1.212   5.129 -31.809  1.00  0.00     0.142 A 
HETATM   19  O   UNL     1      -0.305   4.687 -30.877  1.00  0.00    -0.317 OA
HETATM   20  C   UNL     1       0.594   5.687 -30.687  1.00  0.00     0.143 A 
HETATM   21  C   UNL     1       0.290   6.767 -31.481  1.00  0.00     0.027 A 
HETATM   22  C   UNL     1      -0.872   6.409 -32.205  1.00  0.00     0.045 A 
ENDBRANCH  15  18
ENDBRANCH  11  14
ENDBRANCH   7   8
ENDBRANCH   3   7
BRANCH   1  23
HETATM   23  C   UNL     1     -10.897   2.159 -33.529  1.00  0.00     0.162 C 
BRANCH  23  24
HETATM   24  C   UNL     1     -12.279   1.442 -33.767  1.00  0.00     0.136 C 
HETATM   25  C   UNL     1     -12.239  -0.063 -33.473  1.00  0.00     0.048 C 
HETATM   26  C   UNL     1     -12.696   1.677 -35.234  1.00  0.00     0.048 C 
BRANCH  24  27
HETATM   27  N   UNL     1     -13.373   2.125 -32.838  1.00  0.00    -0.061 N 
HETATM   28  H   UNL     1     -13.133   1.829 -31.882  1.00  0.00     0.280 HD
HETATM   29  C   UNL     1     -13.340   3.650 -32.824  1.00  0.00     0.236 C 
HETATM   30  C   UNL     1     -14.260   4.178 -31.729  1.00  0.00     0.028 C 
HETATM   31  C   UNL     1     -15.687   3.683 -31.906  1.00  0.00     0.003 C 
HETATM   32  C   UNL     1     -15.722   2.166 -32.000  1.00  0.00     0.028 C 
HETATM   33  C   UNL     1     -14.798   1.642 -33.093  1.00  0.00     0.236 C 
ENDBRANCH  24  27
ENDBRANCH  23  24
ENDBRANCH   1  23
TORSDOF 7
ENDMDL
MODEL 3
REMARK VINA RESULT:      -8.3      8.230     11.572
REMARK  7 active torsions:
REMARK  status: ('A' for Active; 'I' for Inactive)
REMARK    1  A    between atoms: C_2  and  N_3 
REMARK    2  A    between atoms: C_2  and  C_10 
REMARK    3  A    between atoms: C_10  and  N_11 
REMARK       I    between atoms: N_11  and  C_12 
REMARK       I    between atoms: C_12  and  N_13 
REMARK    4  A    between atoms: N_13  and  C_14 
REMARK    5  A    between atoms: C_14  and  C_15 
REMARK    6  A    between atoms: C_18  and  N_19 
REMARK       I    between atoms: N_19  and  C_20 
REMARK    7  A    between atoms: C_20  and  C_21 
ROOT
HETATM    1  N   UNL     1      -3.909   6.015 -29.341  1.00  0.00    -0.341 N 
HETATM    2  C   UNL     1      -5.217   5.621 -29.455  1.00  0.00     0.316 C 
HETATM    3  N   UNL     1      -5.368   4.271 -29.354  1.00  0.00    -0.339 N 
HETATM    4  O   UNL     1      -6.121   6.413 -29.679  1.00  0.00    -0.248 OA
HETATM    5  H   UNL     1      -3.285   5.371 -28.873  1.00  0.00     0.164 HD
HETATM    6  H   UNL     1      -4.616   3.696 -29.011  1.00  0.00     0.164 HD
ENDROOT
BRANCH   3   7
HETATM    7  C   UNL     1      -6.666   3.641 -29.492  1.00  0.00     0.162 C 
BRANCH   7   8
HETATM    8  C   UNL     1      -6.692   2.443 -30.411  1.00  0.00    -0.040 A 
HETATM    9  C   UNL     1      -7.078   2.507 -31.755  1.00  0.00     0.011 A 
HETATM   10  C   UNL     1      -7.034   1.371 -32.576  1.00  0.00     0.030 A 
HETATM   11  C   UNL     1      -6.586   0.150 -32.073  1.00  0.00     0.035 A 
HETATM   12  C   UNL     1      -6.198   0.077 -30.733  1.00  0.00     0.030 A 
HETATM   13  C   UNL     1      -6.249   1.209 -29.912  1.00  0.00     0.011 A 
BRANCH  11  14
HETATM   14  N   UNL     1      -6.473  -1.024 -32.839  1.00  0.00    -0.321 N 
HETATM   15  C   UNL     1      -5.415  -1.443 -33.626  1.00  0.00     0.279 C 
HETATM   16  O   UNL     1      -4.386  -0.808 -33.832  1.00  0.00    -0.265 OA
HETATM   17  H   UNL     1      -7.252  -1.675 -32.806  1.00  0.00     0.169 HD
BRANCH  15  18
HETATM   18  C   UNL     1      -5.643  -2.756 -34.205  1.00  0.00     0.142 A 
HETATM   19  O   UNL     1      -4.645  -3.697 -34.152  1.00  0.00    -0.317 OA
HETATM   20  C   UNL     1      -5.112  -4.812 -34.774  1.00  0.00     0.143 A 
HETATM   21  C   UNL     1      -6.395  -4.612 -35.223  1.00  0.00     0.027 A 
HETATM   22  C   UNL     1      -6.740  -3.289 -34.858  1.00  0.00     0.045 A 
ENDBRANCH  15  18
ENDBRANCH  11  14
ENDBRANCH   7   8
ENDBRANCH   3   7
BRANCH   1  23
HETATM   23  C   UNL     1      -3.565   7.428 -29.370  1.00  0.00     0.162 C 
BRANCH  23  24
HETATM   24  C   UNL     1      -2.258   7.802 -30.166  1.00  0.00     0.136 C 
HETATM   25  C   UNL     1      -0.971   7.542 -29.374  1.00  0.00     0.048 C 
HETATM   26  C   UNL     1      -2.342   9.294 -30.553  1.00  0.00     0.048 C 
BRANCH  24  27
HETATM   27  N   UNL     1      -2.222   6.955 -31.510  1.00  0.00    -0.061 N 
HETATM   28  H   UNL     1      -3.182   6.602 -31.629  1.00  0.00     0.280 HD
HETATM   29  C   UNL     1      -1.916   7.762 -32.768  1.00  0.00     0.236 C 
HETATM   30  C   UNL     1      -2.145   6.901 -34.005  1.00  0.00     0.028 C 
HETATM   31  C   UNL     1      -1.302   5.635 -33.973  1.00  0.00     0.003 C 
HETATM   32  C   UNL     1      -1.542   4.862 -32.685  1.00  0.00     0.028 C 
HETATM   33  C   UNL     1      -1.317   5.728 -31.452  1.00  0.00     0.236 C 
ENDBRANCH  24  27
ENDBRANCH  23  24
ENDBRANCH   1  23
TORSDOF 7
ENDMDL
MODEL 4
REMARK VINA RESULT:      -8.2      6.904     10.034
REMARK  7 active torsions:
REMARK  status: ('A' for Active; 'I' for Inactive)
REMARK    1  A    between atoms: C_2  and  N_3 
REMARK    2  A    between atoms: C_2  and  C_10 
REMARK    3  A    between atoms: C_10  and  N_11 
REMARK       I    between atoms: N_11  and  C_12 
REMARK       I    between atoms: C_12  and  N_13 
REMARK    4  A    between atoms: N_13  and  C_14 
REMARK    5  A    between atoms: C_14  and  C_15 
REMARK    6  A    between atoms: C_18  and  N_19 
REMARK       I    between atoms: N_19  and  C_20 
REMARK    7  A    between atoms: C_20  and  C_21 
ROOT
HETATM    1  N   UNL     1      -3.922   6.241 -27.747  1.00  0.00    -0.341 N 
HETATM    2  C   UNL     1      -4.947   6.038 -28.635  1.00  0.00     0.316 C 
HETATM    3  N   UNL     1      -5.659   4.908 -28.365  1.00  0.00    -0.339 N 
HETATM    4  O   UNL     1      -5.141   6.778 -29.590  1.00  0.00    -0.248 OA
HETATM    5  H   UNL     1      -4.008   5.781 -26.850  1.00  0.00     0.164 HD
HETATM    6  H   UNL     1      -5.553   4.437 -27.482  1.00  0.00     0.164 HD
ENDROOT
BRANCH   3   7
HETATM    7  C   UNL     1      -6.758   4.485 -29.209  1.00  0.00     0.162 C 
BRANCH   7   8
HETATM    8  C   UNL     1      -6.468   3.273 -30.063  1.00  0.00    -0.040 A 
HETATM    9  C   UNL     1      -5.181   2.762 -30.269  1.00  0.00     0.011 A 
HETATM   10  C   UNL     1      -4.978   1.602 -31.031  1.00  0.00     0.030 A 
HETATM   11  C   UNL     1      -6.059   0.920 -31.589  1.00  0.00     0.035 A 
HETATM   12  C   UNL     1      -7.346   1.424 -31.387  1.00  0.00     0.030 A 
HETATM   13  C   UNL     1      -7.549   2.585 -30.633  1.00  0.00     0.011 A 
BRANCH  11  14
HETATM   14  N   UNL     1      -5.943  -0.269 -32.330  1.00  0.00    -0.321 N 
HETATM   15  C   UNL     1      -6.022  -0.444 -33.699  1.00  0.00     0.279 C 
HETATM   16  O   UNL     1      -6.268   0.437 -34.517  1.00  0.00    -0.265 OA
HETATM   17  H   UNL     1      -5.754  -1.121 -31.810  1.00  0.00     0.169 HD
BRANCH  15  18
HETATM   18  C   UNL     1      -5.775  -1.820 -34.097  1.00  0.00     0.142 A 
HETATM   19  O   UNL     1      -4.532  -2.366 -33.894  1.00  0.00    -0.317 OA
HETATM   20  C   UNL     1      -4.572  -3.640 -34.365  1.00  0.00     0.143 A 
HETATM   21  C   UNL     1      -5.819  -3.930 -34.865  1.00  0.00     0.027 A 
HETATM   22  C   UNL     1      -6.596  -2.759 -34.693  1.00  0.00     0.045 A 
ENDBRANCH  15  18
ENDBRANCH  11  14
ENDBRANCH   7   8
ENDBRANCH   3   7
BRANCH   1  23
HETATM   23  C   UNL     1      -3.090   7.428 -27.849  1.00  0.00     0.162 C 
BRANCH  23  24
HETATM   24  C   UNL     1      -1.546   7.207 -27.629  1.00  0.00     0.136 C 
HETATM   25  C   UNL     1      -1.214   6.549 -26.284  1.00  0.00     0.048 C 
HETATM   26  C   UNL     1      -0.845   8.579 -27.726  1.00  0.00     0.048 C 
BRANCH  24  27
HETATM   27  N   UNL     1      -0.990   6.296 -28.806  1.00  0.00    -0.061 N 
HETATM   28  H   UNL     1      -1.527   5.420 -28.742  1.00  0.00     0.280 HD
HETATM   29  C   UNL     1      -1.239   6.837 -30.209  1.00  0.00     0.236 C 
HETATM   30  C   UNL     1      -0.883   5.778 -31.245  1.00  0.00     0.028 C 
HETATM   31  C   UNL     1       0.561   5.318 -31.106  1.00  0.00     0.003 C 
HETATM   32  C   UNL     1       0.842   4.849 -29.688  1.00  0.00     0.028 C 
HETATM   33  C   UNL     1       0.479   5.910 -28.656  1.00  0.00     0.236 C 
ENDBRANCH  24  27
ENDBRANCH  23  24
ENDBRANCH   1  23
TORSDOF 7
ENDMDL
MODEL 5
REMARK VINA RESULT:      -8.2      6.553     10.732
REMARK  7 active torsions:
REMARK  status: ('A' for Active; 'I' for Inactive)
REMARK    1  A    between atoms: C_2  and  N_3 
REMARK    2  A    between atoms: C_2  and  C_10 
REMARK    3  A    between atoms: C_10  and  N_11 
REMARK       I    between atoms: N_11  and  C_12 
REMARK       I    between atoms: C_12  and  N_13 
REMARK    4  A    between atoms: N_13  and  C_14 
REMARK    5  A    between atoms: C_14  and  C_15 
REMARK    6  A    between atoms: C_18  and  N_19 
REMARK       I    between atoms: N_19  and  C_20 
REMARK    7  A    between atoms: C_20  and  C_21 
ROOT
HETATM    1  N   UNL     1      -3.465   5.697 -29.973  1.00  0.00    -0.341 N 
HETATM    2  C   UNL     1      -4.741   5.335 -30.320  1.00  0.00     0.316 C 
HETATM    3  N   UNL     1      -5.230   4.328 -29.542  1.00  0.00    -0.339 N 
HETATM    4  O   UNL     1      -5.330   5.839 -31.266  1.00  0.00    -0.248 OA
HETATM    5  H   UNL     1      -3.171   5.463 -29.034  1.00  0.00     0.164 HD
HETATM    6  H   UNL     1      -4.764   4.071 -28.687  1.00  0.00     0.164 HD
ENDROOT
BRANCH   3   7
HETATM    7  C   UNL     1      -6.545   3.764 -29.770  1.00  0.00     0.162 C 
BRANCH   7   8
HETATM    8  C   UNL     1      -6.565   2.554 -30.673  1.00  0.00    -0.040 A 
HETATM    9  C   UNL     1      -6.673   2.630 -32.067  1.00  0.00     0.011 A 
HETATM   10  C   UNL     1      -6.635   1.473 -32.859  1.00  0.00     0.030 A 
HETATM   11  C   UNL     1      -6.471   0.218 -32.275  1.00  0.00     0.035 A 
HETATM   12  C   UNL     1      -6.362   0.133 -30.885  1.00  0.00     0.030 A 
HETATM   13  C   UNL     1      -6.407   1.286 -30.093  1.00  0.00     0.011 A 
BRANCH  11  14
HETATM   14  N   UNL     1      -6.382  -0.984 -33.000  1.00  0.00    -0.321 N 
HETATM   15  C   UNL     1      -5.297  -1.501 -33.684  1.00  0.00     0.279 C 
HETATM   16  O   UNL     1      -4.210  -0.948 -33.817  1.00  0.00    -0.265 OA
HETATM   17  H   UNL     1      -7.208  -1.575 -33.018  1.00  0.00     0.169 HD
BRANCH  15  18
HETATM   18  C   UNL     1      -5.572  -2.811 -34.249  1.00  0.00     0.142 A 
HETATM   19  O   UNL     1      -4.645  -3.814 -34.107  1.00  0.00    -0.317 OA
HETATM   20  C   UNL     1      -5.143  -4.911 -34.735  1.00  0.00     0.143 A 
HETATM   21  C   UNL     1      -6.376  -4.640 -35.277  1.00  0.00     0.027 A 
HETATM   22  C   UNL     1      -6.655  -3.288 -34.965  1.00  0.00     0.045 A 
ENDBRANCH  15  18
ENDBRANCH  11  14
ENDBRANCH   7   8
ENDBRANCH   3   7
BRANCH   1  23
HETATM   23  C   UNL     1      -2.803   6.794 -30.662  1.00  0.00     0.162 C 
BRANCH  23  24
HETATM   24  C   UNL     1      -1.250   6.636 -30.874  1.00  0.00     0.136 C 
HETATM   25  C   UNL     1      -0.747   7.285 -32.169  1.00  0.00     0.048 C 
HETATM   26  C   UNL     1      -0.917   5.129 -30.881  1.00  0.00     0.048 C 
BRANCH  24  27
HETATM   27  N   UNL     1      -0.499   7.291 -29.636  1.00  0.00    -0.061 N 
HETATM   28  H   UNL     1       0.302   7.791 -30.045  1.00  0.00     0.280 HD
HETATM   29  C   UNL     1      -1.305   8.341 -28.879  1.00  0.00     0.236 C 
HETATM   30  C   UNL     1      -0.409   9.061 -27.880  1.00  0.00     0.028 C 
HETATM   31  C   UNL     1       0.241   8.091 -26.904  1.00  0.00     0.003 C 
HETATM   32  C   UNL     1       0.982   6.994 -27.651  1.00  0.00     0.028 C 
HETATM   33  C   UNL     1       0.083   6.280 -28.652  1.00  0.00     0.236 C 
ENDBRANCH  24  27
ENDBRANCH  23  24
ENDBRANCH   1  23
TORSDOF 7
ENDMDL
MODEL 6
REMARK VINA RESULT:      -8.1     10.621     14.412
REMARK  7 active torsions:
REMARK  status: ('A' for Active; 'I' for Inactive)
REMARK    1  A    between atoms: C_2  and  N_3 
REMARK    2  A    between atoms: C_2  and  C_10 
REMARK    3  A    between atoms: C_10  and  N_11 
REMARK       I    between atoms: N_11  and  C_12 
REMARK       I    between atoms: C_12  and  N_13 
REMARK    4  A    between atoms: N_13  and  C_14 
REMARK    5  A    between atoms: C_14  and  C_15 
REMARK    6  A    between atoms: C_18  and  N_19 
REMARK       I    between atoms: N_19  and  C_20 
REMARK    7  A    between atoms: C_20  and  C_21 
ROOT
HETATM    1  N   UNL     1      -3.019   2.723 -32.563  1.00  0.00    -0.341 N 
HETATM    2  C   UNL     1      -3.919   2.016 -31.806  1.00  0.00     0.316 C 
HETATM    3  N   UNL     1      -4.086   0.738 -32.249  1.00  0.00    -0.339 N 
HETATM    4  O   UNL     1      -4.532   2.522 -30.877  1.00  0.00    -0.248 OA
HETATM    5  H   UNL     1      -2.356   2.177 -33.097  1.00  0.00     0.164 HD
HETATM    6  H   UNL     1      -3.440   0.337 -32.909  1.00  0.00     0.164 HD
ENDROOT
BRANCH   3   7
HETATM    7  C   UNL     1      -5.026  -0.166 -31.617  1.00  0.00     0.162 C 
BRANCH   7   8
HETATM    8  C   UNL     1      -6.463   0.017 -32.046  1.00  0.00    -0.040 A 
HETATM    9  C   UNL     1      -6.993  -0.523 -33.224  1.00  0.00     0.011 A 
HETATM   10  C   UNL     1      -8.349  -0.364 -33.546  1.00  0.00     0.030 A 
HETATM   11  C   UNL     1      -9.206   0.323 -32.688  1.00  0.00     0.035 A 
HETATM   12  C   UNL     1      -8.685   0.864 -31.510  1.00  0.00     0.030 A 
HETATM   13  C   UNL     1      -7.331   0.712 -31.192  1.00  0.00     0.011 A 
BRANCH  11  14
HETATM   14  N   UNL     1     -10.583   0.491 -32.917  1.00  0.00    -0.321 N 
HETATM   15  C   UNL     1     -11.228   1.513 -33.591  1.00  0.00     0.279 C 
HETATM   16  O   UNL     1     -10.686   2.504 -34.070  1.00  0.00    -0.265 OA
HETATM   17  H   UNL     1     -11.202  -0.235 -32.569  1.00  0.00     0.169 HD
BRANCH  15  18
HETATM   18  C   UNL     1     -12.662   1.296 -33.684  1.00  0.00     0.142 A 
HETATM   19  O   UNL     1     -13.508   2.044 -32.904  1.00  0.00    -0.317 OA
HETATM   20  C   UNL     1     -14.774   1.630 -33.175  1.00  0.00     0.143 A 
HETATM   21  C   UNL     1     -14.763   0.631 -34.118  1.00  0.00     0.027 A 
HETATM   22  C   UNL     1     -13.404   0.414 -34.448  1.00  0.00     0.045 A 
ENDBRANCH  15  18
ENDBRANCH  11  14
ENDBRANCH   7   8
ENDBRANCH   3   7
BRANCH   1  23
HETATM   23  C   UNL     1      -2.675   4.088 -32.204  1.00  0.00     0.162 C 
BRANCH  23  24
HETATM   24  C   UNL     1      -3.605   5.211 -32.801  1.00  0.00     0.136 C 
HETATM   25  C   UNL     1      -3.305   5.527 -34.272  1.00  0.00     0.048 C 
HETATM   26  C   UNL     1      -3.429   6.486 -31.947  1.00  0.00     0.048 C 
BRANCH  24  27
HETATM   27  N   UNL     1      -5.118   4.745 -32.666  1.00  0.00    -0.061 N 
HETATM   28  H   UNL     1      -5.078   3.857 -32.147  1.00  0.00     0.280 HD
HETATM   29  C   UNL     1      -6.004   5.672 -31.841  1.00  0.00     0.236 C 
HETATM   30  C   UNL     1      -7.351   5.007 -31.583  1.00  0.00     0.028 C 
HETATM   31  C   UNL     1      -8.049   4.628 -32.880  1.00  0.00     0.003 C 
HETATM   32  C   UNL     1      -7.143   3.767 -33.746  1.00  0.00     0.028 C 
HETATM   33  C   UNL     1      -5.796   4.434 -33.997  1.00  0.00     0.236 C 
ENDBRANCH  24  27
ENDBRANCH  23  24
ENDBRANCH   1  23
TORSDOF 7
ENDMDL
MODEL 7
REMARK VINA RESULT:      -8.0      4.194     12.978
REMARK  7 active torsions:
REMARK  status: ('A' for Active; 'I' for Inactive)
REMARK    1  A    between atoms: C_2  and  N_3 
REMARK    2  A    between atoms: C_2  and  C_10 
REMARK    3  A    between atoms: C_10  and  N_11 
REMARK       I    between atoms: N_11  and  C_12 
REMARK       I    between atoms: C_12  and  N_13 
REMARK    4  A    between atoms: N_13  and  C_14 
REMARK    5  A    between atoms: C_14  and  C_15 
REMARK    6  A    between atoms: C_18  and  N_19 
REMARK       I    between atoms: N_19  and  C_20 
REMARK    7  A    between atoms: C_20  and  C_21 
ROOT
HETATM    1  N   UNL     1      -3.435   2.657 -31.541  1.00  0.00    -0.341 N 
HETATM    2  C   UNL     1      -2.655   3.704 -31.962  1.00  0.00     0.316 C 
HETATM    3  N   UNL     1      -2.169   4.445 -30.928  1.00  0.00    -0.339 N 
HETATM    4  O   UNL     1      -2.480   3.953 -33.147  1.00  0.00    -0.248 OA
HETATM    5  H   UNL     1      -3.291   2.345 -30.589  1.00  0.00     0.164 HD
HETATM    6  H   UNL     1      -2.215   4.097 -29.984  1.00  0.00     0.164 HD
ENDROOT
BRANCH   3   7
HETATM    7  C   UNL     1      -1.359   5.625 -31.155  1.00  0.00     0.162 C 
BRANCH   7   8
HETATM    8  C   UNL     1      -0.925   6.345 -29.900  1.00  0.00    -0.040 A 
HETATM    9  C   UNL     1      -1.724   7.277 -29.228  1.00  0.00     0.011 A 
HETATM   10  C   UNL     1      -1.289   7.877 -28.038  1.00  0.00     0.030 A 
HETATM   11  C   UNL     1      -0.053   7.544 -27.485  1.00  0.00     0.035 A 
HETATM   12  C   UNL     1       0.750   6.613 -28.149  1.00  0.00     0.030 A 
HETATM   13  C   UNL     1       0.319   6.020 -29.341  1.00  0.00     0.011 A 
BRANCH  11  14
HETATM   14  N   UNL     1       0.438   8.068 -26.276  1.00  0.00    -0.321 N 
HETATM   15  C   UNL     1       0.957   9.326 -26.029  1.00  0.00     0.279 C 
HETATM   16  O   UNL     1       1.129  10.204 -26.869  1.00  0.00    -0.265 OA
HETATM   17  H   UNL     1       0.393   7.466 -25.459  1.00  0.00     0.169 HD
BRANCH  15  18
HETATM   18  C   UNL     1       1.291   9.520 -24.628  1.00  0.00     0.142 A 
HETATM   19  O   UNL     1       0.334  10.000 -23.768  1.00  0.00    -0.317 OA
HETATM   20  C   UNL     1       0.911  10.100 -22.542  1.00  0.00     0.143 A 
HETATM   21  C   UNL     1       2.222   9.691 -22.591  1.00  0.00     0.027 A 
HETATM   22  C   UNL     1       2.469   9.316 -23.933  1.00  0.00     0.045 A 
ENDBRANCH  15  18
ENDBRANCH  11  14
ENDBRANCH   7   8
ENDBRANCH   3   7
BRANCH   1  23
HETATM   23  C   UNL     1      -3.993   1.726 -32.507  1.00  0.00     0.162 C 
BRANCH  23  24
HETATM   24  C   UNL     1      -4.329   0.287 -31.961  1.00  0.00     0.136 C 
HETATM   25  C   UNL     1      -5.292   0.301 -30.767  1.00  0.00     0.048 C 
HETATM   26  C   UNL     1      -3.004  -0.394 -31.554  1.00  0.00     0.048 C 
BRANCH  24  27
HETATM   27  N   UNL     1      -4.970  -0.567 -33.137  1.00  0.00    -0.061 N 
HETATM   28  H   UNL     1      -4.753  -0.043 -33.996  1.00  0.00     0.280 HD
HETATM   29  C   UNL     1      -4.361  -1.953 -33.329  1.00  0.00     0.236 C 
HETATM   30  C   UNL     1      -4.882  -2.574 -34.620  1.00  0.00     0.028 C 
HETATM   31  C   UNL     1      -6.401  -2.659 -34.630  1.00  0.00     0.003 C 
HETATM   32  C   UNL     1      -7.018  -1.296 -34.361  1.00  0.00     0.028 C 
HETATM   33  C   UNL     1      -6.490  -0.677 -33.073  1.00  0.00     0.236 C 
ENDBRANCH  24  27
ENDBRANCH  23  24
ENDBRANCH   1  23
TORSDOF 7
ENDMDL
MODEL 8
REMARK VINA RESULT:      -7.9      7.688     12.710
REMARK  7 active torsions:
REMARK  status: ('A' for Active; 'I' for Inactive)
REMARK    1  A    between atoms: C_2  and  N_3 
REMARK    2  A    between atoms: C_2  and  C_10 
REMARK    3  A    between atoms: C_10  and  N_11 
REMARK       I    between atoms: N_11  and  C_12 
REMARK       I    between atoms: C_12  and  N_13 
REMARK    4  A    between atoms: N_13  and  C_14 
REMARK    5  A    between atoms: C_14  and  C_15 
REMARK    6  A    between atoms: C_18  and  N_19 
REMARK       I    between atoms: N_19  and  C_20 
REMARK    7  A    between atoms: C_20  and  C_21 
ROOT
HETATM    1  N   UNL     1      -3.159   3.582 -31.200  1.00  0.00    -0.341 N 
HETATM    2  C   UNL     1      -3.627   2.391 -31.695  1.00  0.00     0.316 C 
HETATM    3  N   UNL     1      -4.528   1.796 -30.864  1.00  0.00    -0.339 N 
HETATM    4  O   UNL     1      -3.217   1.913 -32.743  1.00  0.00    -0.248 OA
HETATM    5  H   UNL     1      -3.741   4.042 -30.513  1.00  0.00     0.164 HD
HETATM    6  H   UNL     1      -4.941   2.313 -30.104  1.00  0.00     0.164 HD
ENDROOT
BRANCH   3   7
HETATM    7  C   UNL     1      -5.112   0.507 -31.176  1.00  0.00     0.162 C 
BRANCH   7   8
HETATM    8  C   UNL     1      -6.539   0.563 -31.667  1.00  0.00    -0.040 A 
HETATM    9  C   UNL     1      -7.051  -0.285 -32.657  1.00  0.00     0.011 A 
HETATM   10  C   UNL     1      -8.399  -0.222 -33.037  1.00  0.00     0.030 A 
HETATM   11  C   UNL     1      -9.268   0.678 -32.422  1.00  0.00     0.035 A 
HETATM   12  C   UNL     1      -8.766   1.527 -31.433  1.00  0.00     0.030 A 
HETATM   13  C   UNL     1      -7.419   1.470 -31.059  1.00  0.00     0.011 A 
BRANCH  11  14
HETATM   14  N   UNL     1     -10.640   0.776 -32.716  1.00  0.00    -0.321 N 
HETATM   15  C   UNL     1     -11.265   1.554 -33.674  1.00  0.00     0.279 C 
HETATM   16  O   UNL     1     -10.705   2.356 -34.416  1.00  0.00    -0.265 OA
HETATM   17  H   UNL     1     -11.271   0.188 -32.179  1.00  0.00     0.169 HD
BRANCH  15  18
HETATM   18  C   UNL     1     -12.698   1.324 -33.725  1.00  0.00     0.142 A 
HETATM   19  O   UNL     1     -13.532   2.105 -32.963  1.00  0.00    -0.317 OA
HETATM   20  C   UNL     1     -14.801   1.670 -33.185  1.00  0.00     0.143 A 
HETATM   21  C   UNL     1     -14.804   0.626 -34.079  1.00  0.00     0.027 A 
HETATM   22  C   UNL     1     -13.451   0.402 -34.429  1.00  0.00     0.045 A 
ENDBRANCH  15  18
ENDBRANCH  11  14
ENDBRANCH   7   8
ENDBRANCH   3   7
BRANCH   1  23
HETATM   23  C   UNL     1      -2.229   4.382 -31.980  1.00  0.00     0.162 C 
BRANCH  23  24
HETATM   24  C   UNL     1      -2.599   5.905 -32.139  1.00  0.00     0.136 C 
HETATM   25  C   UNL     1      -4.067   6.209 -31.812  1.00  0.00     0.048 C 
HETATM   26  C   UNL     1      -2.290   6.325 -33.592  1.00  0.00     0.048 C 
BRANCH  24  27
HETATM   27  N   UNL     1      -1.664   6.759 -31.180  1.00  0.00    -0.061 N 
HETATM   28  H   UNL     1      -1.496   7.640 -31.686  1.00  0.00     0.280 HD
HETATM   29  C   UNL     1      -2.300   7.156 -29.851  1.00  0.00     0.236 C 
HETATM   30  C   UNL     1      -1.410   8.161 -29.130  1.00  0.00     0.028 C 
HETATM   31  C   UNL     1      -0.010   7.611 -28.902  1.00  0.00     0.003 C 
HETATM   32  C   UNL     1       0.603   7.140 -30.211  1.00  0.00     0.028 C 
HETATM   33  C   UNL     1      -0.293   6.139 -30.930  1.00  0.00     0.236 C 
ENDBRANCH  24  27
ENDBRANCH  23  24
ENDBRANCH   1  23
TORSDOF 7
ENDMDL
MODEL 9
REMARK VINA RESULT:      -7.7      9.915     16.113
REMARK  7 active torsions:
REMARK  status: ('A' for Active; 'I' for Inactive)
REMARK    1  A    between atoms: C_2  and  N_3 
REMARK    2  A    between atoms: C_2  and  C_10 
REMARK    3  A    between atoms: C_10  and  N_11 
REMARK       I    between atoms: N_11  and  C_12 
REMARK       I    between atoms: C_12  and  N_13 
REMARK    4  A    between atoms: N_13  and  C_14 
REMARK    5  A    between atoms: C_14  and  C_15 
REMARK    6  A    between atoms: C_18  and  N_19 
REMARK       I    between atoms: N_19  and  C_20 
REMARK    7  A    between atoms: C_20  and  C_21 
ROOT
HETATM    1  N   UNL     1     -12.304   2.012 -33.068  1.00  0.00    -0.341 N 
HETATM    2  C   UNL     1     -11.224   1.318 -33.551  1.00  0.00     0.316 C 
HETATM    3  N   UNL     1     -10.658   0.509 -32.611  1.00  0.00    -0.339 N 
HETATM    4  O   UNL     1     -10.802   1.473 -34.688  1.00  0.00    -0.248 OA
HETATM    5  H   UNL     1     -12.760   1.623 -32.254  1.00  0.00     0.164 HD
HETATM    6  H   UNL     1     -11.145   0.305 -31.753  1.00  0.00     0.164 HD
ENDROOT
BRANCH   3   7
HETATM    7  C   UNL     1      -9.477  -0.278 -32.901  1.00  0.00     0.162 C 
BRANCH   7   8
HETATM    8  C   UNL     1      -8.188   0.509 -32.942  1.00  0.00    -0.040 A 
HETATM    9  C   UNL     1      -7.386   0.620 -34.084  1.00  0.00     0.011 A 
HETATM   10  C   UNL     1      -6.226   1.407 -34.078  1.00  0.00     0.030 A 
HETATM   11  C   UNL     1      -5.852   2.113 -32.935  1.00  0.00     0.035 A 
HETATM   12  C   UNL     1      -6.648   2.008 -31.791  1.00  0.00     0.030 A 
HETATM   13  C   UNL     1      -7.802   1.217 -31.795  1.00  0.00     0.011 A 
BRANCH  11  14
HETATM   14  N   UNL     1      -4.728   2.955 -32.860  1.00  0.00    -0.321 N 
HETATM   15  C   UNL     1      -3.479   2.681 -32.333  1.00  0.00     0.279 C 
HETATM   16  O   UNL     1      -3.153   1.637 -31.777  1.00  0.00    -0.265 OA
HETATM   17  H   UNL     1      -4.819   3.884 -33.260  1.00  0.00     0.169 HD
BRANCH  15  18
HETATM   18  C   UNL     1      -2.551   3.786 -32.507  1.00  0.00     0.142 A 
HETATM   19  O   UNL     1      -1.747   4.161 -31.460  1.00  0.00    -0.317 OA
HETATM   20  C   UNL     1      -1.001   5.214 -31.885  1.00  0.00     0.143 A 
HETATM   21  C   UNL     1      -1.304   5.525 -33.189  1.00  0.00     0.027 A 
HETATM   22  C   UNL     1      -2.302   4.607 -33.592  1.00  0.00     0.045 A 
ENDBRANCH  15  18
ENDBRANCH  11  14
ENDBRANCH   7   8
ENDBRANCH   3   7
BRANCH   1  23
HETATM   23  C   UNL     1     -13.065   2.884 -33.948  1.00  0.00     0.162 C 
BRANCH  23  24
HETATM   24  C   UNL     1     -12.551   4.369 -34.058  1.00  0.00     0.136 C 
HETATM   25  C   UNL     1     -13.400   5.365 -33.258  1.00  0.00     0.048 C 
HETATM   26  C   UNL     1     -12.546   4.767 -35.549  1.00  0.00     0.048 C 
BRANCH  24  27
HETATM   27  N   UNL     1     -11.051   4.427 -33.537  1.00  0.00    -0.061 N 
HETATM   28  H   UNL     1     -10.811   3.454 -33.305  1.00  0.00     0.280 HD
HETATM   29  C   UNL     1     -10.028   4.872 -34.577  1.00  0.00     0.236 C 
HETATM   30  C   UNL     1      -8.617   4.659 -34.042  1.00  0.00     0.028 C 
HETATM   31  C   UNL     1      -8.395   5.401 -32.732  1.00  0.00     0.003 C 
HETATM   32  C   UNL     1      -9.457   5.023 -31.713  1.00  0.00     0.028 C 
HETATM   33  C   UNL     1     -10.866   5.233 -32.255  1.00  0.00     0.236 C 
ENDBRANCH  24  27
ENDBRANCH  23  24
ENDBRANCH   1  23
TORSDOF 7
ENDMDL
MODEL 10
REMARK VINA RESULT:      -7.6      8.143     16.161
REMARK  7 active torsions:
REMARK  status: ('A' for Active; 'I' for Inactive)
REMARK    1  A    between atoms: C_2  and  N_3 
REMARK    2  A    between atoms: C_2  and  C_10 
REMARK    3  A    between atoms: C_10  and  N_11 
REMARK       I    between atoms: N_11  and  C_12 
REMARK       I    between atoms: C_12  and  N_13 
REMARK    4  A    between atoms: N_13  and  C_14 
REMARK    5  A    between atoms: C_14  and  C_15 
REMARK    6  A    between atoms: C_18  and  N_19 
REMARK       I    between atoms: N_19  and  C_20 
REMARK    7  A    between atoms: C_20  and  C_21 
ROOT
HETATM    1  N   UNL     1      -9.794   1.146 -34.533  1.00  0.00    -0.341 N 
HETATM    2  C   UNL     1      -9.113   0.642 -33.454  1.00  0.00     0.316 C 
HETATM    3  N   UNL     1      -7.796   0.419 -33.722  1.00  0.00    -0.339 N 
HETATM    4  O   UNL     1      -9.668   0.378 -32.396  1.00  0.00    -0.248 OA
HETATM    5  H   UNL     1      -9.235   1.605 -35.241  1.00  0.00     0.164 HD
HETATM    6  H   UNL     1      -7.371   0.805 -34.549  1.00  0.00     0.164 HD
ENDROOT
BRANCH   3   7
HETATM    7  C   UNL     1      -6.907  -0.154 -32.732  1.00  0.00     0.162 C 
BRANCH   7   8
HETATM    8  C   UNL     1      -5.776   0.750 -32.300  1.00  0.00    -0.040 A 
HETATM    9  C   UNL     1      -4.424   0.404 -32.411  1.00  0.00     0.011 A 
HETATM   10  C   UNL     1      -3.415   1.305 -32.042  1.00  0.00     0.030 A 
HETATM   11  C   UNL     1      -3.736   2.577 -31.570  1.00  0.00     0.035 A 
HETATM   12  C   UNL     1      -5.083   2.930 -31.457  1.00  0.00     0.030 A 
HETATM   13  C   UNL     1      -6.091   2.029 -31.818  1.00  0.00     0.011 A 
BRANCH  11  14
HETATM   14  N   UNL     1      -2.786   3.551 -31.217  1.00  0.00    -0.321 N 
HETATM   15  C   UNL     1      -2.116   4.440 -32.039  1.00  0.00     0.279 C 
HETATM   16  O   UNL     1      -2.208   4.488 -33.261  1.00  0.00    -0.265 OA
HETATM   17  H   UNL     1      -2.564   3.645 -30.231  1.00  0.00     0.169 HD
BRANCH  15  18
HETATM   18  C   UNL     1      -1.263   5.348 -31.291  1.00  0.00     0.142 A 
HETATM   19  O   UNL     1      -1.816   6.453 -30.693  1.00  0.00    -0.317 OA
HETATM   20  C   UNL     1      -0.806   7.128 -30.085  1.00  0.00     0.143 A 
HETATM   21  C   UNL     1       0.390   6.478 -30.273  1.00  0.00     0.027 A 
HETATM   22  C   UNL     1       0.099   5.331 -31.050  1.00  0.00     0.045 A 
ENDBRANCH  15  18
ENDBRANCH  11  14
ENDBRANCH   7   8
ENDBRANCH   3   7
BRANCH   1  23
HETATM   23  C   UNL     1     -11.199   1.496 -34.413  1.00  0.00     0.162 C 
BRANCH  23  24
HETATM   24  C   UNL     1     -11.559   3.004 -34.692  1.00  0.00     0.136 C 
HETATM   25  C   UNL     1     -12.377   3.204 -35.974  1.00  0.00     0.048 C 
HETATM   26  C   UNL     1     -10.242   3.804 -34.784  1.00  0.00     0.048 C 
BRANCH  24  27
HETATM   27  N   UNL     1     -12.382   3.568 -33.456  1.00  0.00    -0.061 N 
HETATM   28  H   UNL     1     -12.885   4.388 -33.822  1.00  0.00     0.280 HD
HETATM   29  C   UNL     1     -13.454   2.628 -32.915  1.00  0.00     0.236 C 
HETATM   30  C   UNL     1     -14.326   3.361 -31.904  1.00  0.00     0.028 C 
HETATM   31  C   UNL     1     -13.502   3.933 -30.760  1.00  0.00     0.003 C 
HETATM   32  C   UNL     1     -12.381   4.811 -31.292  1.00  0.00     0.028 C 
HETATM   33  C   UNL     1     -11.514   4.075 -32.307  1.00  0.00     0.236 C 
ENDBRANCH  24  27
ENDBRANCH  23  24
ENDBRANCH   1  23
TORSDOF 7
ENDMDL
