MODEL 1
REMARK VINA RESULT:      -9.4      0.000      0.000
REMARK  7 active torsions:
REMARK  status: ('A' for Active; 'I' for Inactive)
REMARK    1  A    between atoms: N_2  and  C_4 
REMARK    2  A    between atoms: N_2  and  C_23 
REMARK    3  A    between atoms: C_4  and  C_5 
REMARK       I    between atoms: C_5  and  N_6 
REMARK    4  A    between atoms: N_6  and  C_7 
REMARK    5  A    between atoms: C_8  and  O_9 
REMARK    6  A    between atoms: C_23  and  C_24 
REMARK       I    between atoms: C_24  and  N_25 
REMARK    7  A    between atoms: N_25  and  C_26 
ROOT
HETATM    1  C   UNL     1      -5.471   4.146 -33.358  1.00  0.00     0.248 C 
HETATM    2  N   UNL     1      -5.907   3.017 -32.720  1.00  0.00    -0.323 N 
HETATM    3  O   UNL     1      -5.215   4.275 -34.558  1.00  0.00    -0.271 OA
HETATM    4  H   UNL     1      -6.390   3.099 -31.826  1.00  0.00     0.169 HD
ENDROOT
BRANCH   1   5
HETATM    5  C   UNL     1      -5.368   5.397 -32.481  1.00  0.00     0.337 C 
BRANCH   5   6
HETATM    6  N   UNL     1      -4.478   5.070 -31.266  1.00  0.00    -0.058 N 
HETATM    7  C   UNL     1      -4.915   5.778 -30.026  1.00  0.00     0.270 C 
HETATM    8  H   UNL     1      -4.657   4.057 -31.126  1.00  0.00     0.280 HD
BRANCH   6   9
HETATM    9  C   UNL     1      -2.981   5.224 -31.529  1.00  0.00     0.337 C 
BRANCH   9  10
HETATM   10  C   UNL     1      -2.311   6.382 -30.781  1.00  0.00     0.248 C 
HETATM   11  N   UNL     1      -1.532   6.008 -29.703  1.00  0.00    -0.326 N 
HETATM   12  H   UNL     1      -1.306   5.025 -29.580  1.00  0.00     0.169 HD
HETATM   13  O   UNL     1      -2.414   7.522 -31.232  1.00  0.00    -0.271 OA
BRANCH  11  14
HETATM   14  C   UNL     1      -0.884   6.887 -28.804  1.00  0.00     0.036 A 
HETATM   15  C   UNL     1      -1.453   7.328 -27.606  1.00  0.00     0.055 A 
HETATM   16  C   UNL     1      -0.744   8.185 -26.752  1.00  0.00     0.058 A 
HETATM   17 CL   UNL     1      -1.521   8.676 -25.289  1.00  0.00    -0.082 Cl
HETATM   18  C   UNL     1       0.544   8.607 -27.092  1.00  0.00     0.055 A 
HETATM   19 CL   UNL     1       1.472   9.662 -26.092  1.00  0.00    -0.083 Cl
HETATM   20  C   UNL     1       1.118   8.163 -28.284  1.00  0.00     0.028 A 
HETATM   21  C   UNL     1       0.411   7.303 -29.132  1.00  0.00     0.031 A 
ENDBRANCH  11  14
ENDBRANCH   9  10
ENDBRANCH   6   9
ENDBRANCH   5   6
ENDBRANCH   1   5
BRANCH   2  22
HETATM   22  C   UNL     1      -5.909   1.698 -33.228  1.00  0.00     0.071 A 
HETATM   23  C   UNL     1      -7.090   1.280 -33.869  1.00  0.00     0.096 A 
HETATM   24  C   UNL     1      -7.274  -0.040 -34.307  1.00  0.00     0.054 A 
HETATM   25  C   UNL     1      -6.215  -0.949 -34.120  1.00  0.00     0.014 A 
HETATM   26  C   UNL     1      -5.042  -0.490 -33.532  1.00  0.00     0.089 A 
HETATM   27  C   UNL     1      -6.008  -2.338 -34.373  1.00  0.00     0.011 A 
HETATM   28  O   UNL     1      -4.129  -1.496 -33.437  1.00  0.00    -0.309 OA
HETATM   29  C   UNL     1      -4.838   0.815 -33.078  1.00  0.00     0.070 A 
HETATM   30  C   UNL     1      -4.717  -2.617 -33.938  1.00  0.00     0.087 A 
HETATM   31  C   UNL     1      -4.123  -3.875 -34.005  1.00  0.00     0.038 A 
HETATM   32  C   UNL     1      -4.902  -4.907 -34.539  1.00  0.00     0.003 A 
HETATM   33  C   UNL     1      -6.207  -4.671 -34.981  1.00  0.00     0.001 A 
HETATM   34  C   UNL     1      -6.775  -3.391 -34.908  1.00  0.00     0.015 A 
BRANCH  23  35
HETATM   35  O   UNL     1      -8.091   2.219 -34.005  1.00  0.00    -0.354 OA
HETATM   36  C   UNL     1      -9.360   1.683 -33.619  1.00  0.00     0.210 C 
ENDBRANCH  23  35
ENDBRANCH   2  22
TORSDOF 7
ENDMDL
MODEL 2
REMARK VINA RESULT:      -9.3      2.203      3.044
REMARK  7 active torsions:
REMARK  status: ('A' for Active; 'I' for Inactive)
REMARK    1  A    between atoms: N_2  and  C_4 
REMARK    2  A    between atoms: N_2  and  C_23 
REMARK    3  A    between atoms: C_4  and  C_5 
REMARK       I    between atoms: C_5  and  N_6 
REMARK    4  A    between atoms: N_6  and  C_7 
REMARK    5  A    between atoms: C_8  and  O_9 
REMARK    6  A    between atoms: C_23  and  C_24 
REMARK       I    between atoms: C_24  and  N_25 
REMARK    7  A    between atoms: N_25  and  C_26 
ROOT
HETATM    1  C   UNL     1      -7.283   3.374 -32.046  1.00  0.00     0.248 C 
HETATM    2  N   UNL     1      -6.976   2.924 -33.300  1.00  0.00    -0.323 N 
HETATM    3  O   UNL     1      -7.181   2.755 -30.985  1.00  0.00    -0.271 OA
HETATM    4  H   UNL     1      -6.786   3.596 -34.044  1.00  0.00     0.169 HD
ENDROOT
BRANCH   1   5
HETATM    5  C   UNL     1      -7.731   4.837 -31.964  1.00  0.00     0.337 C 
BRANCH   5   6
HETATM    6  N   UNL     1      -7.941   5.201 -30.481  1.00  0.00    -0.058 N 
HETATM    7  C   UNL     1      -9.381   5.370 -30.130  1.00  0.00     0.270 C 
HETATM    8  H   UNL     1      -7.598   4.352 -29.993  1.00  0.00     0.280 HD
BRANCH   6   9
HETATM    9  C   UNL     1      -7.081   6.368 -29.998  1.00  0.00     0.337 C 
BRANCH   9  10
HETATM   10  C   UNL     1      -5.615   6.017 -29.720  1.00  0.00     0.248 C 
HETATM   11  N   UNL     1      -4.721   6.431 -30.689  1.00  0.00    -0.326 N 
HETATM   12  H   UNL     1      -5.041   7.075 -31.406  1.00  0.00     0.169 HD
HETATM   13  O   UNL     1      -5.319   5.503 -28.642  1.00  0.00    -0.271 OA
BRANCH  11  14
HETATM   14  C   UNL     1      -3.335   6.154 -30.710  1.00  0.00     0.036 A 
HETATM   15  C   UNL     1      -2.382   6.915 -30.027  1.00  0.00     0.055 A 
HETATM   16  C   UNL     1      -1.023   6.570 -30.076  1.00  0.00     0.058 A 
HETATM   17 CL   UNL     1       0.085   7.564 -29.198  1.00  0.00    -0.082 Cl
HETATM   18  C   UNL     1      -0.609   5.456 -30.810  1.00  0.00     0.055 A 
HETATM   19 CL   UNL     1       1.044   4.975 -30.917  1.00  0.00    -0.083 Cl
HETATM   20  C   UNL     1      -1.558   4.689 -31.487  1.00  0.00     0.028 A 
HETATM   21  C   UNL     1      -2.914   5.032 -31.432  1.00  0.00     0.031 A 
ENDBRANCH  11  14
ENDBRANCH   9  10
ENDBRANCH   6   9
ENDBRANCH   5   6
ENDBRANCH   1   5
BRANCH   2  22
HETATM   22  C   UNL     1      -6.728   1.589 -33.690  1.00  0.00     0.071 A 
HETATM   23  C   UNL     1      -7.778   0.930 -34.359  1.00  0.00     0.096 A 
HETATM   24  C   UNL     1      -7.713  -0.431 -34.690  1.00  0.00     0.054 A 
HETATM   25  C   UNL     1      -6.537  -1.133 -34.365  1.00  0.00     0.014 A 
HETATM   26  C   UNL     1      -5.498  -0.441 -33.753  1.00  0.00     0.089 A 
HETATM   27  C   UNL     1      -6.090  -2.483 -34.484  1.00  0.00     0.011 A 
HETATM   28  O   UNL     1      -4.444  -1.269 -33.519  1.00  0.00    -0.309 OA
HETATM   29  C   UNL     1      -5.541   0.911 -33.404  1.00  0.00     0.070 A 
HETATM   30  C   UNL     1      -4.804  -2.507 -33.954  1.00  0.00     0.087 A 
HETATM   31  C   UNL     1      -4.011  -3.650 -33.877  1.00  0.00     0.038 A 
HETATM   32  C   UNL     1      -4.573  -4.835 -34.362  1.00  0.00     0.003 A 
HETATM   33  C   UNL     1      -5.864  -4.856 -34.897  1.00  0.00     0.001 A 
HETATM   34  C   UNL     1      -6.636  -3.687 -34.968  1.00  0.00     0.015 A 
BRANCH  23  35
HETATM   35  O   UNL     1      -8.905   1.675 -34.633  1.00  0.00    -0.354 OA
HETATM   36  C   UNL     1     -10.043   1.170 -33.930  1.00  0.00     0.210 C 
ENDBRANCH  23  35
ENDBRANCH   2  22
TORSDOF 7
ENDMDL
MODEL 3
REMARK VINA RESULT:      -9.3      5.742      8.270
REMARK  7 active torsions:
REMARK  status: ('A' for Active; 'I' for Inactive)
REMARK    1  A    between atoms: N_2  and  C_4 
REMARK    2  A    between atoms: N_2  and  C_23 
REMARK    3  A    between atoms: C_4  and  C_5 
REMARK       I    between atoms: C_5  and  N_6 
REMARK    4  A    between atoms: N_6  and  C_7 
REMARK    5  A    between atoms: C_8  and  O_9 
REMARK    6  A    between atoms: C_23  and  C_24 
REMARK       I    between atoms: C_24  and  N_25 
REMARK    7  A    between atoms: N_25  and  C_26 
ROOT
HETATM    1  C   UNL     1      -5.926   3.226 -31.036  1.00  0.00     0.248 C 
HETATM    2  N   UNL     1      -5.616   2.902 -32.328  1.00  0.00    -0.323 N 
HETATM    3  O   UNL     1      -6.050   2.455 -30.081  1.00  0.00    -0.271 OA
HETATM    4  H   UNL     1      -5.224   3.613 -32.945  1.00  0.00     0.169 HD
ENDROOT
BRANCH   1   5
HETATM    5  C   UNL     1      -6.059   4.724 -30.749  1.00  0.00     0.337 C 
BRANCH   5   6
HETATM    6  N   UNL     1      -7.384   5.223 -31.359  1.00  0.00    -0.058 N 
HETATM    7  C   UNL     1      -7.244   6.548 -32.033  1.00  0.00     0.270 C 
HETATM    8  H   UNL     1      -7.570   4.516 -32.096  1.00  0.00     0.280 HD
BRANCH   6   9
HETATM    9  C   UNL     1      -8.570   5.181 -30.396  1.00  0.00     0.337 C 
BRANCH   9  10
HETATM   10  C   UNL     1      -9.668   4.178 -30.769  1.00  0.00     0.248 C 
HETATM   11  N   UNL     1     -10.729   4.711 -31.475  1.00  0.00    -0.326 N 
HETATM   12  H   UNL     1     -10.644   5.650 -31.852  1.00  0.00     0.169 HD
HETATM   13  O   UNL     1      -9.494   2.986 -30.522  1.00  0.00    -0.271 OA
BRANCH  11  14
HETATM   14  C   UNL     1     -11.901   4.017 -31.858  1.00  0.00     0.036 A 
HETATM   15  C   UNL     1     -11.997   3.236 -33.013  1.00  0.00     0.055 A 
HETATM   16  C   UNL     1     -13.186   2.559 -33.319  1.00  0.00     0.058 A 
HETATM   17 CL   UNL     1     -13.215   1.611 -34.765  1.00  0.00    -0.082 Cl
HETATM   18  C   UNL     1     -14.290   2.658 -32.469  1.00  0.00     0.055 A 
HETATM   19 CL   UNL     1     -15.784   1.856 -32.785  1.00  0.00    -0.083 Cl
HETATM   20  C   UNL     1     -14.195   3.432 -31.311  1.00  0.00     0.028 A 
HETATM   21  C   UNL     1     -13.006   4.102 -31.004  1.00  0.00     0.031 A 
ENDBRANCH  11  14
ENDBRANCH   9  10
ENDBRANCH   6   9
ENDBRANCH   5   6
ENDBRANCH   1   5
BRANCH   2  22
HETATM   22  C   UNL     1      -5.625   1.614 -32.909  1.00  0.00     0.071 A 
HETATM   23  C   UNL     1      -6.753   1.288 -33.685  1.00  0.00     0.096 A 
HETATM   24  C   UNL     1      -6.949   0.004 -34.215  1.00  0.00     0.054 A 
HETATM   25  C   UNL     1      -5.955  -0.964 -33.981  1.00  0.00     0.014 A 
HETATM   26  C   UNL     1      -4.827  -0.595 -33.256  1.00  0.00     0.089 A 
HETATM   27  C   UNL     1      -5.784  -2.346 -34.293  1.00  0.00     0.011 A 
HETATM   28  O   UNL     1      -3.972  -1.648 -33.132  1.00  0.00    -0.309 OA
HETATM   29  C   UNL     1      -4.613   0.672 -32.709  1.00  0.00     0.070 A 
HETATM   30  C   UNL     1      -4.555  -2.710 -33.753  1.00  0.00     0.087 A 
HETATM   31  C   UNL     1      -4.012  -3.990 -33.836  1.00  0.00     0.038 A 
HETATM   32  C   UNL     1      -4.778  -4.953 -34.501  1.00  0.00     0.003 A 
HETATM   33  C   UNL     1      -6.021  -4.630 -35.053  1.00  0.00     0.001 A 
HETATM   34  C   UNL     1      -6.538  -3.330 -34.961  1.00  0.00     0.015 A 
BRANCH  23  35
HETATM   35  O   UNL     1      -7.694   2.281 -33.862  1.00  0.00    -0.354 OA
HETATM   36  C   UNL     1      -8.989   1.727 -34.114  1.00  0.00     0.210 C 
ENDBRANCH  23  35
ENDBRANCH   2  22
TORSDOF 7
ENDMDL
MODEL 4
REMARK VINA RESULT:      -9.1      2.402      3.662
REMARK  7 active torsions:
REMARK  status: ('A' for Active; 'I' for Inactive)
REMARK    1  A    between atoms: N_2  and  C_4 
REMARK    2  A    between atoms: N_2  and  C_23 
REMARK    3  A    between atoms: C_4  and  C_5 
REMARK       I    between atoms: C_5  and  N_6 
REMARK    4  A    between atoms: N_6  and  C_7 
REMARK    5  A    between atoms: C_8  and  O_9 
REMARK    6  A    between atoms: C_23  and  C_24 
REMARK       I    between atoms: C_24  and  N_25 
REMARK    7  A    between atoms: N_25  and  C_26 
ROOT
HETATM    1  C   UNL     1      -8.065   3.291 -33.055  1.00  0.00     0.248 C 
HETATM    2  N   UNL     1      -7.051   2.735 -33.783  1.00  0.00    -0.323 N 
HETATM    3  O   UNL     1      -8.617   2.817 -32.059  1.00  0.00    -0.271 OA
HETATM    4  H   UNL     1      -6.461   3.332 -34.363  1.00  0.00     0.169 HD
ENDROOT
BRANCH   1   5
HETATM    5  C   UNL     1      -8.498   4.693 -33.495  1.00  0.00     0.337 C 
BRANCH   5   6
HETATM    6  N   UNL     1      -8.133   5.691 -32.379  1.00  0.00    -0.058 N 
HETATM    7  C   UNL     1      -9.288   6.543 -31.969  1.00  0.00     0.270 C 
HETATM    8  H   UNL     1      -7.912   5.063 -31.583  1.00  0.00     0.280 HD
BRANCH   6   9
HETATM    9  C   UNL     1      -6.874   6.510 -32.661  1.00  0.00     0.337 C 
BRANCH   9  10
HETATM   10  C   UNL     1      -5.601   5.987 -31.987  1.00  0.00     0.248 C 
HETATM   11  N   UNL     1      -4.437   6.632 -32.357  1.00  0.00    -0.326 N 
HETATM   12  H   UNL     1      -4.504   7.495 -32.888  1.00  0.00     0.169 HD
HETATM   13  O   UNL     1      -5.699   5.130 -31.109  1.00  0.00    -0.271 OA
BRANCH  11  14
HETATM   14  C   UNL     1      -3.129   6.283 -31.948  1.00  0.00     0.036 A 
HETATM   15  C   UNL     1      -2.600   6.596 -30.693  1.00  0.00     0.055 A 
HETATM   16  C   UNL     1      -1.301   6.200 -30.346  1.00  0.00     0.058 A 
HETATM   17 CL   UNL     1      -0.729   6.625 -28.771  1.00  0.00    -0.082 Cl
HETATM   18  C   UNL     1      -0.519   5.483 -31.256  1.00  0.00     0.055 A 
HETATM   19 CL   UNL     1       1.087   4.967 -30.899  1.00  0.00    -0.083 Cl
HETATM   20  C   UNL     1      -1.047   5.162 -32.508  1.00  0.00     0.028 A 
HETATM   21  C   UNL     1      -2.346   5.554 -32.849  1.00  0.00     0.031 A 
ENDBRANCH  11  14
ENDBRANCH   9  10
ENDBRANCH   6   9
ENDBRANCH   5   6
ENDBRANCH   1   5
BRANCH   2  22
HETATM   22  C   UNL     1      -6.592   1.399 -33.725  1.00  0.00     0.071 A 
HETATM   23  C   UNL     1      -5.428   1.172 -32.967  1.00  0.00     0.096 A 
HETATM   24  C   UNL     1      -4.796  -0.079 -32.927  1.00  0.00     0.054 A 
HETATM   25  C   UNL     1      -5.382  -1.136 -33.648  1.00  0.00     0.014 A 
HETATM   26  C   UNL     1      -6.561  -0.893 -34.343  1.00  0.00     0.089 A 
HETATM   27  C   UNL     1      -5.056  -2.503 -33.898  1.00  0.00     0.011 A 
HETATM   28  O   UNL     1      -6.986  -2.022 -34.974  1.00  0.00    -0.309 OA
HETATM   29  C   UNL     1      -7.204   0.345 -34.408  1.00  0.00     0.070 A 
HETATM   30  C   UNL     1      -6.072  -2.995 -34.711  1.00  0.00     0.087 A 
HETATM   31  C   UNL     1      -6.127  -4.302 -35.189  1.00  0.00     0.038 A 
HETATM   32  C   UNL     1      -5.076  -5.148 -34.821  1.00  0.00     0.003 A 
HETATM   33  C   UNL     1      -4.033  -4.692 -34.011  1.00  0.00     0.001 A 
HETATM   34  C   UNL     1      -4.008  -3.372 -33.538  1.00  0.00     0.015 A 
BRANCH  23  35
HETATM   35  O   UNL     1      -4.901   2.256 -32.297  1.00  0.00    -0.354 OA
HETATM   36  C   UNL     1      -3.474   2.178 -32.228  1.00  0.00     0.210 C 
ENDBRANCH  23  35
ENDBRANCH   2  22
TORSDOF 7
ENDMDL
MODEL 5
REMARK VINA RESULT:      -9.0      4.443     10.614
REMARK  7 active torsions:
REMARK  status: ('A' for Active; 'I' for Inactive)
REMARK    1  A    between atoms: N_2  and  C_4 
REMARK    2  A    between atoms: N_2  and  C_23 
REMARK    3  A    between atoms: C_4  and  C_5 
REMARK       I    between atoms: C_5  and  N_6 
REMARK    4  A    between atoms: N_6  and  C_7 
REMARK    5  A    between atoms: C_8  and  O_9 
REMARK    6  A    between atoms: C_23  and  C_24 
REMARK       I    between atoms: C_24  and  N_25 
REMARK    7  A    between atoms: N_25  and  C_26 
ROOT
HETATM    1  C   UNL     1      -5.404   4.889 -33.210  1.00  0.00     0.248 C 
HETATM    2  N   UNL     1      -4.095   4.604 -32.934  1.00  0.00    -0.323 N 
HETATM    3  O   UNL     1      -5.998   5.949 -32.999  1.00  0.00    -0.271 OA
HETATM    4  H   UNL     1      -3.630   3.844 -33.431  1.00  0.00     0.169 HD
ENDROOT
BRANCH   1   5
HETATM    5  C   UNL     1      -6.180   3.780 -33.926  1.00  0.00     0.337 C 
BRANCH   5   6
HETATM    6  N   UNL     1      -7.287   3.269 -32.982  1.00  0.00    -0.058 N 
HETATM    7  C   UNL     1      -6.769   2.918 -31.627  1.00  0.00     0.270 C 
HETATM    8  H   UNL     1      -7.893   4.105 -32.878  1.00  0.00     0.280 HD
BRANCH   6   9
HETATM    9  C   UNL     1      -8.156   2.164 -33.580  1.00  0.00     0.337 C 
BRANCH   9  10
HETATM   10  C   UNL     1      -7.379   0.979 -34.167  1.00  0.00     0.248 C 
HETATM   11  N   UNL     1      -7.042  -0.005 -33.258  1.00  0.00    -0.326 N 
HETATM   12  H   UNL     1      -7.463   0.016 -32.335  1.00  0.00     0.169 HD
HETATM   13  O   UNL     1      -7.203   0.926 -35.383  1.00  0.00    -0.271 OA
BRANCH  11  14
HETATM   14  C   UNL     1      -6.254  -1.148 -33.529  1.00  0.00     0.036 A 
HETATM   15  C   UNL     1      -6.698  -2.231 -34.294  1.00  0.00     0.055 A 
HETATM   16  C   UNL     1      -5.855  -3.324 -34.540  1.00  0.00     0.058 A 
HETATM   17 CL   UNL     1      -6.484  -4.617 -35.500  1.00  0.00    -0.082 Cl
HETATM   18  C   UNL     1      -4.558  -3.341 -34.021  1.00  0.00     0.055 A 
HETATM   19 CL   UNL     1      -3.469  -4.653 -34.281  1.00  0.00    -0.083 Cl
HETATM   20  C   UNL     1      -4.109  -2.259 -33.263  1.00  0.00     0.028 A 
HETATM   21  C   UNL     1      -4.950  -1.166 -33.024  1.00  0.00     0.031 A 
ENDBRANCH  11  14
ENDBRANCH   9  10
ENDBRANCH   6   9
ENDBRANCH   5   6
ENDBRANCH   1   5
BRANCH   2  22
HETATM   22  C   UNL     1      -3.213   5.351 -32.121  1.00  0.00     0.071 A 
HETATM   23  C   UNL     1      -1.861   5.361 -32.514  1.00  0.00     0.096 A 
HETATM   24  C   UNL     1      -0.861   5.957 -31.732  1.00  0.00     0.054 A 
HETATM   25  C   UNL     1      -1.250   6.590 -30.536  1.00  0.00     0.014 A 
HETATM   26  C   UNL     1      -2.600   6.608 -30.203  1.00  0.00     0.089 A 
HETATM   27  C   UNL     1      -0.575   7.256 -29.470  1.00  0.00     0.011 A 
HETATM   28  O   UNL     1      -2.793   7.263 -29.025  1.00  0.00    -0.309 OA
HETATM   29  C   UNL     1      -3.613   6.013 -30.958  1.00  0.00     0.070 A 
HETATM   30  C   UNL     1      -1.567   7.649 -28.577  1.00  0.00     0.087 A 
HETATM   31  C   UNL     1      -1.324   8.334 -27.389  1.00  0.00     0.038 A 
HETATM   32  C   UNL     1       0.013   8.623 -27.095  1.00  0.00     0.003 A 
HETATM   33  C   UNL     1       1.040   8.240 -27.962  1.00  0.00     0.001 A 
HETATM   34  C   UNL     1       0.763   7.559 -29.156  1.00  0.00     0.015 A 
BRANCH  23  35
HETATM   35  O   UNL     1      -1.550   4.711 -33.690  1.00  0.00    -0.354 OA
HETATM   36  C   UNL     1      -1.162   5.638 -34.707  1.00  0.00     0.210 C 
ENDBRANCH  23  35
ENDBRANCH   2  22
TORSDOF 7
ENDMDL
MODEL 6
REMARK VINA RESULT:      -8.9      2.130      2.574
REMARK  7 active torsions:
REMARK  status: ('A' for Active; 'I' for Inactive)
REMARK    1  A    between atoms: N_2  and  C_4 
REMARK    2  A    between atoms: N_2  and  C_23 
REMARK    3  A    between atoms: C_4  and  C_5 
REMARK       I    between atoms: C_5  and  N_6 
REMARK    4  A    between atoms: N_6  and  C_7 
REMARK    5  A    between atoms: C_8  and  O_9 
REMARK    6  A    between atoms: C_23  and  C_24 
REMARK       I    between atoms: C_24  and  N_25 
REMARK    7  A    between atoms: N_25  and  C_26 
ROOT
HETATM    1  C   UNL     1      -5.717   3.177 -30.768  1.00  0.00     0.248 C 
HETATM    2  N   UNL     1      -5.523   2.893 -32.091  1.00  0.00    -0.323 N 
HETATM    3  O   UNL     1      -5.768   2.376 -29.832  1.00  0.00    -0.271 OA
HETATM    4  H   UNL     1      -5.177   3.621 -32.717  1.00  0.00     0.169 HD
ENDROOT
BRANCH   1   5
HETATM    5  C   UNL     1      -5.804   4.667 -30.422  1.00  0.00     0.337 C 
BRANCH   5   6
HETATM    6  N   UNL     1      -6.877   4.853 -29.331  1.00  0.00    -0.058 N 
HETATM    7  C   UNL     1      -8.263   4.863 -29.884  1.00  0.00     0.270 C 
HETATM    8  H   UNL     1      -6.773   3.989 -28.766  1.00  0.00     0.280 HD
BRANCH   6   9
HETATM    9  C   UNL     1      -6.615   6.030 -28.392  1.00  0.00     0.337 C 
BRANCH   9  10
HETATM   10  C   UNL     1      -5.151   6.203 -27.969  1.00  0.00     0.248 C 
HETATM   11  N   UNL     1      -4.450   7.164 -28.672  1.00  0.00    -0.326 N 
HETATM   12  H   UNL     1      -4.963   7.801 -29.274  1.00  0.00     0.169 HD
HETATM   13  O   UNL     1      -4.735   5.578 -26.995  1.00  0.00    -0.271 OA
BRANCH  11  14
HETATM   14  C   UNL     1      -3.072   7.451 -28.533  1.00  0.00     0.036 A 
HETATM   15  C   UNL     1      -2.099   7.040 -29.448  1.00  0.00     0.055 A 
HETATM   16  C   UNL     1      -0.751   7.378 -29.257  1.00  0.00     0.058 A 
HETATM   17 CL   UNL     1       0.384   6.833 -30.441  1.00  0.00    -0.082 Cl
HETATM   18  C   UNL     1      -0.368   8.134 -28.146  1.00  0.00     0.055 A 
HETATM   19 CL   UNL     1       1.270   8.583 -27.847  1.00  0.00    -0.083 Cl
HETATM   20  C   UNL     1      -1.338   8.552 -27.234  1.00  0.00     0.028 A 
HETATM   21  C   UNL     1      -2.683   8.219 -27.430  1.00  0.00     0.031 A 
ENDBRANCH  11  14
ENDBRANCH   9  10
ENDBRANCH   6   9
ENDBRANCH   5   6
ENDBRANCH   1   5
BRANCH   2  22
HETATM   22  C   UNL     1      -5.600   1.626 -32.712  1.00  0.00     0.071 A 
HETATM   23  C   UNL     1      -6.821   1.312 -33.338  1.00  0.00     0.096 A 
HETATM   24  C   UNL     1      -7.076   0.045 -33.882  1.00  0.00     0.054 A 
HETATM   25  C   UNL     1      -6.051  -0.918 -33.819  1.00  0.00     0.014 A 
HETATM   26  C   UNL     1      -4.838  -0.559 -33.242  1.00  0.00     0.089 A 
HETATM   27  C   UNL     1      -5.912  -2.286 -34.201  1.00  0.00     0.011 A 
HETATM   28  O   UNL     1      -3.966  -1.604 -33.272  1.00  0.00    -0.309 OA
HETATM   29  C   UNL     1      -4.563   0.692 -32.684  1.00  0.00     0.070 A 
HETATM   30  C   UNL     1      -4.618  -2.651 -33.846  1.00  0.00     0.087 A 
HETATM   31  C   UNL     1      -4.081  -3.921 -34.047  1.00  0.00     0.038 A 
HETATM   32  C   UNL     1      -4.922  -4.870 -34.636  1.00  0.00     0.003 A 
HETATM   33  C   UNL     1      -6.231  -4.545 -35.003  1.00  0.00     0.001 A 
HETATM   34  C   UNL     1      -6.742  -3.256 -34.795  1.00  0.00     0.015 A 
BRANCH  23  35
HETATM   35  O   UNL     1      -7.785   2.298 -33.351  1.00  0.00    -0.354 OA
HETATM   36  C   UNL     1      -8.973   1.868 -32.679  1.00  0.00     0.210 C 
ENDBRANCH  23  35
ENDBRANCH   2  22
TORSDOF 7
ENDMDL
MODEL 7
REMARK VINA RESULT:      -8.9      5.289      8.151
REMARK  7 active torsions:
REMARK  status: ('A' for Active; 'I' for Inactive)
REMARK    1  A    between atoms: N_2  and  C_4 
REMARK    2  A    between atoms: N_2  and  C_23 
REMARK    3  A    between atoms: C_4  and  C_5 
REMARK       I    between atoms: C_5  and  N_6 
REMARK    4  A    between atoms: N_6  and  C_7 
REMARK    5  A    between atoms: C_8  and  O_9 
REMARK    6  A    between atoms: C_23  and  C_24 
REMARK       I    between atoms: C_24  and  N_25 
REMARK    7  A    between atoms: N_25  and  C_26 
ROOT
HETATM    1  C   UNL     1      -7.103   4.128 -30.370  1.00  0.00     0.248 C 
HETATM    2  N   UNL     1      -6.399   3.747 -31.479  1.00  0.00    -0.323 N 
HETATM    3  O   UNL     1      -7.433   3.420 -29.415  1.00  0.00    -0.271 OA
HETATM    4  H   UNL     1      -5.909   4.451 -32.030  1.00  0.00     0.169 HD
ENDROOT
BRANCH   1   5
HETATM    5  C   UNL     1      -7.446   5.618 -30.289  1.00  0.00     0.337 C 
BRANCH   5   6
HETATM    6  N   UNL     1      -6.988   6.296 -31.596  1.00  0.00    -0.058 N 
HETATM    7  C   UNL     1      -6.011   7.399 -31.359  1.00  0.00     0.270 C 
HETATM    8  H   UNL     1      -6.482   5.529 -32.079  1.00  0.00     0.280 HD
BRANCH   6   9
HETATM    9  C   UNL     1      -8.134   6.718 -32.514  1.00  0.00     0.337 C 
BRANCH   9  10
HETATM   10  C   UNL     1      -8.830   5.566 -33.249  1.00  0.00     0.248 C 
HETATM   11  N   UNL     1     -10.049   5.189 -32.721  1.00  0.00    -0.326 N 
HETATM   12  H   UNL     1     -10.486   5.784 -32.023  1.00  0.00     0.169 HD
HETATM   13  O   UNL     1      -8.332   5.136 -34.288  1.00  0.00    -0.271 OA
BRANCH  11  14
HETATM   14  C   UNL     1     -10.841   4.103 -33.160  1.00  0.00     0.036 A 
HETATM   15  C   UNL     1     -10.490   2.763 -32.973  1.00  0.00     0.055 A 
HETATM   16  C   UNL     1     -11.335   1.735 -33.416  1.00  0.00     0.058 A 
HETATM   17 CL   UNL     1     -10.825   0.107 -33.139  1.00  0.00    -0.082 Cl
HETATM   18  C   UNL     1     -12.541   2.043 -34.052  1.00  0.00     0.055 A 
HETATM   19 CL   UNL     1     -13.625   0.831 -34.626  1.00  0.00    -0.083 Cl
HETATM   20  C   UNL     1     -12.897   3.379 -34.234  1.00  0.00     0.028 A 
HETATM   21  C   UNL     1     -12.056   4.403 -33.785  1.00  0.00     0.031 A 
ENDBRANCH  11  14
ENDBRANCH   9  10
ENDBRANCH   6   9
ENDBRANCH   5   6
ENDBRANCH   1   5
BRANCH   2  22
HETATM   22  C   UNL     1      -6.124   2.427 -31.902  1.00  0.00     0.071 A 
HETATM   23  C   UNL     1      -4.785   2.005 -31.793  1.00  0.00     0.096 A 
HETATM   24  C   UNL     1      -4.351   0.768 -32.291  1.00  0.00     0.054 A 
HETATM   25  C   UNL     1      -5.309  -0.077 -32.883  1.00  0.00     0.014 A 
HETATM   26  C   UNL     1      -6.632   0.347 -32.927  1.00  0.00     0.089 A 
HETATM   27  C   UNL     1      -5.286  -1.352 -33.525  1.00  0.00     0.011 A 
HETATM   28  O   UNL     1      -7.416  -0.592 -33.524  1.00  0.00    -0.309 OA
HETATM   29  C   UNL     1      -7.088   1.577 -32.448  1.00  0.00     0.070 A 
HETATM   30  C   UNL     1      -6.601  -1.617 -33.893  1.00  0.00     0.087 A 
HETATM   31  C   UNL     1      -7.010  -2.772 -34.556  1.00  0.00     0.038 A 
HETATM   32  C   UNL     1      -6.012  -3.702 -34.867  1.00  0.00     0.003 A 
HETATM   33  C   UNL     1      -4.678  -3.471 -34.520  1.00  0.00     0.001 A 
HETATM   34  C   UNL     1      -4.297  -2.302 -33.846  1.00  0.00     0.015 A 
BRANCH  23  35
HETATM   35  O   UNL     1      -3.899   2.888 -31.215  1.00  0.00    -0.354 OA
HETATM   36  C   UNL     1      -2.941   3.359 -32.169  1.00  0.00     0.210 C 
ENDBRANCH  23  35
ENDBRANCH   2  22
TORSDOF 7
ENDMDL
MODEL 8
REMARK VINA RESULT:      -8.8      4.547      6.729
REMARK  7 active torsions:
REMARK  status: ('A' for Active; 'I' for Inactive)
REMARK    1  A    between atoms: N_2  and  C_4 
REMARK    2  A    between atoms: N_2  and  C_23 
REMARK    3  A    between atoms: C_4  and  C_5 
REMARK       I    between atoms: C_5  and  N_6 
REMARK    4  A    between atoms: N_6  and  C_7 
REMARK    5  A    between atoms: C_8  and  O_9 
REMARK    6  A    between atoms: C_23  and  C_24 
REMARK       I    between atoms: C_24  and  N_25 
REMARK    7  A    between atoms: N_25  and  C_26 
ROOT
HETATM    1  C   UNL     1      -3.850   3.655 -32.252  1.00  0.00     0.248 C 
HETATM    2  N   UNL     1      -4.934   2.828 -32.146  1.00  0.00    -0.323 N 
HETATM    3  O   UNL     1      -2.929   3.578 -33.068  1.00  0.00    -0.271 OA
HETATM    4  H   UNL     1      -5.775   3.159 -31.673  1.00  0.00     0.169 HD
ENDROOT
BRANCH   1   5
HETATM    5  C   UNL     1      -3.835   4.845 -31.288  1.00  0.00     0.337 C 
BRANCH   5   6
HETATM    6  N   UNL     1      -4.403   6.075 -32.023  1.00  0.00    -0.058 N 
HETATM    7  C   UNL     1      -3.375   7.131 -32.256  1.00  0.00     0.270 C 
HETATM    8  H   UNL     1      -4.662   5.682 -32.948  1.00  0.00     0.280 HD
BRANCH   6   9
HETATM    9  C   UNL     1      -5.684   6.635 -31.405  1.00  0.00     0.337 C 
BRANCH   9  10
HETATM   10  C   UNL     1      -6.957   5.848 -31.737  1.00  0.00     0.248 C 
HETATM   11  N   UNL     1      -7.712   6.368 -32.770  1.00  0.00    -0.326 N 
HETATM   12  H   UNL     1      -7.312   7.100 -33.348  1.00  0.00     0.169 HD
HETATM   13  O   UNL     1      -7.166   4.782 -31.159  1.00  0.00    -0.271 OA
BRANCH  11  14
HETATM   14  C   UNL     1      -8.966   5.880 -33.207  1.00  0.00     0.036 A 
HETATM   15  C   UNL     1     -10.112   5.865 -32.408  1.00  0.00     0.055 A 
HETATM   16  C   UNL     1     -11.329   5.385 -32.913  1.00  0.00     0.058 A 
HETATM   17 CL   UNL     1     -12.697   5.409 -31.857  1.00  0.00    -0.082 Cl
HETATM   18  C   UNL     1     -11.407   4.916 -34.227  1.00  0.00     0.055 A 
HETATM   19 CL   UNL     1     -12.868   4.309 -34.913  1.00  0.00    -0.083 Cl
HETATM   20  C   UNL     1     -10.266   4.936 -35.030  1.00  0.00     0.028 A 
HETATM   21  C   UNL     1      -9.054   5.421 -34.525  1.00  0.00     0.031 A 
ENDBRANCH  11  14
ENDBRANCH   9  10
ENDBRANCH   6   9
ENDBRANCH   5   6
ENDBRANCH   1   5
BRANCH   2  22
HETATM   22  C   UNL     1      -5.109   1.568 -32.762  1.00  0.00     0.071 A 
HETATM   23  C   UNL     1      -6.317   1.378 -33.459  1.00  0.00     0.096 A 
HETATM   24  C   UNL     1      -6.674   0.138 -34.009  1.00  0.00     0.054 A 
HETATM   25  C   UNL     1      -5.763  -0.927 -33.879  1.00  0.00     0.014 A 
HETATM   26  C   UNL     1      -4.555  -0.692 -33.232  1.00  0.00     0.089 A 
HETATM   27  C   UNL     1      -5.749  -2.307 -34.243  1.00  0.00     0.011 A 
HETATM   28  O   UNL     1      -3.799  -1.824 -33.203  1.00  0.00    -0.309 OA
HETATM   29  C   UNL     1      -4.181   0.529 -32.666  1.00  0.00     0.070 A 
HETATM   30  C   UNL     1      -4.524  -2.804 -33.808  1.00  0.00     0.087 A 
HETATM   31  C   UNL     1      -4.115  -4.125 -33.968  1.00  0.00     0.038 A 
HETATM   32  C   UNL     1      -5.016  -4.988 -34.601  1.00  0.00     0.003 A 
HETATM   33  C   UNL     1      -6.259  -4.530 -35.048  1.00  0.00     0.001 A 
HETATM   34  C   UNL     1      -6.640  -3.191 -34.880  1.00  0.00     0.015 A 
BRANCH  23  35
HETATM   35  O   UNL     1      -7.168   2.460 -33.536  1.00  0.00    -0.354 OA
HETATM   36  C   UNL     1      -8.486   2.114 -33.100  1.00  0.00     0.210 C 
ENDBRANCH  23  35
ENDBRANCH   2  22
TORSDOF 7
ENDMDL
MODEL 9
REMARK VINA RESULT:      -8.6      4.917      7.528
REMARK  7 active torsions:
REMARK  status: ('A' for Active; 'I' for Inactive)
REMARK    1  A    between atoms: N_2  and  C_4 
REMARK    2  A    between atoms: N_2  and  C_23 
REMARK    3  A    between atoms: C_4  and  C_5 
REMARK       I    between atoms: C_5  and  N_6 
REMARK    4  A    between atoms: N_6  and  C_7 
REMARK    5  A    between atoms: C_8  and  O_9 
REMARK    6  A    between atoms: C_23  and  C_24 
REMARK       I    between atoms: C_24  and  N_25 
REMARK    7  A    between atoms: N_25  and  C_26 
ROOT
HETATM    1  C   UNL     1      -7.125   5.419 -32.463  1.00  0.00     0.248 C 
HETATM    2  N   UNL     1      -7.406   4.669 -33.572  1.00  0.00    -0.323 N 
HETATM    3  O   UNL     1      -7.736   5.425 -31.391  1.00  0.00    -0.271 OA
HETATM    4  H   UNL     1      -6.673   4.496 -34.260  1.00  0.00     0.169 HD
ENDROOT
BRANCH   1   5
HETATM    5  C   UNL     1      -5.866   6.285 -32.557  1.00  0.00     0.337 C 
BRANCH   5   6
HETATM    6  N   UNL     1      -5.004   6.032 -31.304  1.00  0.00    -0.058 N 
HETATM    7  C   UNL     1      -4.867   7.245 -30.446  1.00  0.00     0.270 C 
HETATM    8  H   UNL     1      -5.572   5.341 -30.779  1.00  0.00     0.280 HD
BRANCH   6   9
HETATM    9  C   UNL     1      -3.658   5.370 -31.597  1.00  0.00     0.337 C 
BRANCH   9  10
HETATM   10  C   UNL     1      -3.735   4.110 -32.467  1.00  0.00     0.248 C 
HETATM   11  N   UNL     1      -4.423   3.052 -31.903  1.00  0.00    -0.326 N 
HETATM   12  H   UNL     1      -4.970   3.216 -31.064  1.00  0.00     0.169 HD
HETATM   13  O   UNL     1      -3.293   4.150 -33.614  1.00  0.00    -0.271 OA
BRANCH  11  14
HETATM   14  C   UNL     1      -4.558   1.760 -32.463  1.00  0.00     0.036 A 
HETATM   15  C   UNL     1      -5.640   1.369 -33.256  1.00  0.00     0.055 A 
HETATM   16  C   UNL     1      -5.700   0.076 -33.795  1.00  0.00     0.058 A 
HETATM   17 CL   UNL     1      -7.071  -0.321 -34.768  1.00  0.00    -0.082 Cl
HETATM   18  C   UNL     1      -4.672  -0.837 -33.544  1.00  0.00     0.055 A 
HETATM   19 CL   UNL     1      -4.680  -2.443 -34.172  1.00  0.00    -0.083 Cl
HETATM   20  C   UNL     1      -3.586  -0.447 -32.759  1.00  0.00     0.028 A 
HETATM   21  C   UNL     1      -3.526   0.846 -32.226  1.00  0.00     0.031 A 
ENDBRANCH  11  14
ENDBRANCH   9  10
ENDBRANCH   6   9
ENDBRANCH   5   6
ENDBRANCH   1   5
BRANCH   2  22
HETATM   22  C   UNL     1      -8.589   3.942 -33.833  1.00  0.00     0.071 A 
HETATM   23  C   UNL     1      -9.590   4.619 -34.555  1.00  0.00     0.096 A 
HETATM   24  C   UNL     1     -10.858   4.061 -34.774  1.00  0.00     0.054 A 
HETATM   25  C   UNL     1     -11.103   2.767 -34.278  1.00  0.00     0.014 A 
HETATM   26  C   UNL     1     -10.076   2.104 -33.615  1.00  0.00     0.089 A 
HETATM   27  C   UNL     1     -12.222   1.882 -34.248  1.00  0.00     0.011 A 
HETATM   28  O   UNL     1     -10.485   0.870 -33.212  1.00  0.00    -0.309 OA
HETATM   29  C   UNL     1      -8.809   2.641 -33.374  1.00  0.00     0.070 A 
HETATM   30  C   UNL     1     -11.786   0.738 -33.587  1.00  0.00     0.087 A 
HETATM   31  C   UNL     1     -12.585  -0.377 -33.343  1.00  0.00     0.038 A 
HETATM   32  C   UNL     1     -13.907  -0.310 -33.794  1.00  0.00     0.003 A 
HETATM   33  C   UNL     1     -14.387   0.824 -34.456  1.00  0.00     0.001 A 
HETATM   34  C   UNL     1     -13.557   1.928 -34.694  1.00  0.00     0.015 A 
BRANCH  23  35
HETATM   35  O   UNL     1      -9.286   5.888 -35.000  1.00  0.00    -0.354 OA
HETATM   36  C   UNL     1     -10.472   6.633 -35.289  1.00  0.00     0.210 C 
ENDBRANCH  23  35
ENDBRANCH   2  22
TORSDOF 7
ENDMDL
MODEL 10
REMARK VINA RESULT:      -8.4      4.464      6.037
REMARK  7 active torsions:
REMARK  status: ('A' for Active; 'I' for Inactive)
REMARK    1  A    between atoms: N_2  and  C_4 
REMARK    2  A    between atoms: N_2  and  C_23 
REMARK    3  A    between atoms: C_4  and  C_5 
REMARK       I    between atoms: C_5  and  N_6 
REMARK    4  A    between atoms: N_6  and  C_7 
REMARK    5  A    between atoms: C_8  and  O_9 
REMARK    6  A    between atoms: C_23  and  C_24 
REMARK       I    between atoms: C_24  and  N_25 
REMARK    7  A    between atoms: N_25  and  C_26 
ROOT
HETATM    1  C   UNL     1     -10.865   3.940 -34.144  1.00  0.00     0.248 C 
HETATM    2  N   UNL     1     -10.756   2.918 -33.242  1.00  0.00    -0.323 N 
HETATM    3  O   UNL     1     -10.195   4.110 -35.165  1.00  0.00    -0.271 OA
HETATM    4  H   UNL     1     -11.545   2.695 -32.636  1.00  0.00     0.169 HD
ENDROOT
BRANCH   1   5
HETATM    5  C   UNL     1     -11.999   4.934 -33.876  1.00  0.00     0.337 C 
BRANCH   5   6
HETATM    6  N   UNL     1     -11.655   5.739 -32.607  1.00  0.00    -0.058 N 
HETATM    7  C   UNL     1     -12.868   6.205 -31.875  1.00  0.00     0.270 C 
HETATM    8  H   UNL     1     -11.186   5.028 -32.013  1.00  0.00     0.280 HD
BRANCH   6   9
HETATM    9  C   UNL     1     -10.644   6.861 -32.836  1.00  0.00     0.337 C 
BRANCH   9  10
HETATM   10  C   UNL     1      -9.202   6.521 -32.443  1.00  0.00     0.248 C 
HETATM   11  N   UNL     1      -8.417   6.028 -33.468  1.00  0.00    -0.326 N 
HETATM   12  H   UNL     1      -8.763   6.088 -34.421  1.00  0.00     0.169 HD
HETATM   13  O   UNL     1      -8.813   6.797 -31.309  1.00  0.00    -0.271 OA
BRANCH  11  14
HETATM   14  C   UNL     1      -7.088   5.561 -33.343  1.00  0.00     0.036 A 
HETATM   15  C   UNL     1      -6.059   6.300 -32.754  1.00  0.00     0.055 A 
HETATM   16  C   UNL     1      -4.767   5.765 -32.645  1.00  0.00     0.058 A 
HETATM   17 CL   UNL     1      -3.556   6.747 -31.898  1.00  0.00    -0.082 Cl
HETATM   18  C   UNL     1      -4.497   4.481 -33.126  1.00  0.00     0.055 A 
HETATM   19 CL   UNL     1      -2.932   3.762 -33.028  1.00  0.00    -0.083 Cl
HETATM   20  C   UNL     1      -5.524   3.737 -33.708  1.00  0.00     0.028 A 
HETATM   21  C   UNL     1      -6.814   4.271 -33.810  1.00  0.00     0.031 A 
ENDBRANCH  11  14
ENDBRANCH   9  10
ENDBRANCH   6   9
ENDBRANCH   5   6
ENDBRANCH   1   5
BRANCH   2  22
HETATM   22  C   UNL     1      -9.699   1.985 -33.134  1.00  0.00     0.071 A 
HETATM   23  C   UNL     1      -8.903   2.078 -31.977  1.00  0.00     0.096 A 
HETATM   24  C   UNL     1      -7.750   1.299 -31.801  1.00  0.00     0.054 A 
HETATM   25  C   UNL     1      -7.417   0.377 -32.812  1.00  0.00     0.014 A 
HETATM   26  C   UNL     1      -8.254   0.272 -33.917  1.00  0.00     0.089 A 
HETATM   27  C   UNL     1      -6.351  -0.544 -33.040  1.00  0.00     0.011 A 
HETATM   28  O   UNL     1      -7.786  -0.666 -34.784  1.00  0.00    -0.309 OA
HETATM   29  C   UNL     1      -9.401   1.043 -34.121  1.00  0.00     0.070 A 
HETATM   30  C   UNL     1      -6.630  -1.156 -34.258  1.00  0.00     0.087 A 
HETATM   31  C   UNL     1      -5.824  -2.126 -34.849  1.00  0.00     0.038 A 
HETATM   32  C   UNL     1      -4.662  -2.481 -34.156  1.00  0.00     0.003 A 
HETATM   33  C   UNL     1      -4.342  -1.886 -32.933  1.00  0.00     0.001 A 
HETATM   34  C   UNL     1      -5.177  -0.917 -32.358  1.00  0.00     0.015 A 
BRANCH  23  35
HETATM   35  O   UNL     1      -9.279   3.012 -31.035  1.00  0.00    -0.354 OA
HETATM   36  C   UNL     1      -8.161   3.433 -30.249  1.00  0.00     0.210 C 
ENDBRANCH  23  35
ENDBRANCH   2  22
TORSDOF 7
ENDMDL
