MODEL 1
REMARK VINA RESULT:      -9.3      0.000      0.000
REMARK  7 active torsions:
REMARK  status: ('A' for Active; 'I' for Inactive)
REMARK    1  A    between atoms: O_2  and  C_3 
REMARK    2  A    between atoms: C_4  and  O_5 
REMARK    3  A    between atoms: C_8  and  N_9 
REMARK       I    between atoms: N_9  and  C_10 
REMARK    4  A    between atoms: C_10  and  C_11 
REMARK    5  A    between atoms: C_11  and  N_12 
REMARK    6  A    between atoms: N_20  and  C_21 
REMARK    7  A    between atoms: C_21  and  C_22 
ROOT
HETATM    1  N   UNL     1      -6.100   3.757 -32.631  1.00  0.00    -0.063 N 
HETATM    2  H   UNL     1      -6.903   3.863 -31.978  1.00  0.00     0.280 HD
HETATM    3  C   UNL     1      -4.869   3.895 -31.780  1.00  0.00     0.238 C 
HETATM    4  C   UNL     1      -3.626   3.995 -32.659  1.00  0.00     0.069 C 
HETATM    5  C   UNL     1      -3.760   5.096 -33.719  1.00  0.00     0.119 C 
HETATM    6  N   UNL     1      -2.608   5.119 -34.590  1.00  0.00    -0.324 N 
HETATM    7  C   UNL     1      -1.737   6.140 -34.275  1.00  0.00     0.326 C 
HETATM    8  O   UNL     1      -0.628   6.248 -34.763  1.00  0.00    -0.247 OA
HETATM    9  N   UNL     1      -2.328   6.933 -33.341  1.00  0.00    -0.264 N 
HETATM   10  C   UNL     1      -3.562   6.454 -33.022  1.00  0.00     0.256 C 
HETATM   11  O   UNL     1      -4.367   6.929 -32.233  1.00  0.00    -0.270 OA
HETATM   12  C   UNL     1      -5.060   5.007 -34.511  1.00  0.00     0.069 C 
HETATM   13  C   UNL     1      -6.282   4.867 -33.620  1.00  0.00     0.238 C 
HETATM   14  H   UNL     1      -2.288   4.383 -35.212  1.00  0.00     0.165 HD
ENDROOT
BRANCH   1  15
HETATM   15  C   UNL     1      -6.318   2.322 -33.161  1.00  0.00     0.337 C 
BRANCH  15  16
HETATM   16  C   UNL     1      -7.063   1.526 -32.091  1.00  0.00     0.248 C 
HETATM   17  N   UNL     1      -6.874   0.202 -31.862  1.00  0.00    -0.326 N 
HETATM   18  H   UNL     1      -7.317  -0.093 -30.993  1.00  0.00     0.169 HD
HETATM   19  O   UNL     1      -7.756   2.178 -31.296  1.00  0.00    -0.271 OA
BRANCH  17  20
HETATM   20  C   UNL     1      -6.105  -0.774 -32.513  1.00  0.00     0.037 A 
HETATM   21  C   UNL     1      -6.530  -1.522 -33.606  1.00  0.00     0.069 A 
HETATM   22  C   UNL     1      -5.646  -2.412 -34.227  1.00  0.00     0.103 A 
HETATM   23  C   UNL     1      -4.355  -2.636 -33.727  1.00  0.00     0.101 A 
HETATM   24  C   UNL     1      -3.953  -1.923 -32.600  1.00  0.00     0.042 A 
HETATM   25  C   UNL     1      -4.823  -1.008 -31.996  1.00  0.00     0.032 A 
BRANCH  22  26
HETATM   26  O   UNL     1      -6.120  -3.134 -35.294  1.00  0.00    -0.353 OA
HETATM   27  C   UNL     1      -6.909  -4.234 -34.842  1.00  0.00     0.210 C 
ENDBRANCH  22  26
BRANCH  23  28
HETATM   28  O   UNL     1      -3.580  -3.533 -34.407  1.00  0.00    -0.353 OA
HETATM   29  C   UNL     1      -3.354  -4.792 -33.781  1.00  0.00     0.210 C 
ENDBRANCH  23  28
ENDBRANCH  17  20
ENDBRANCH  15  16
ENDBRANCH   1  15
BRANCH   9  30
HETATM   30  C   UNL     1      -1.659   8.020 -32.659  1.00  0.00     0.175 C 
BRANCH  30  31
HETATM   31  C   UNL     1      -1.157   7.544 -31.310  1.00  0.00    -0.040 A 
HETATM   32  C   UNL     1      -1.713   8.059 -30.128  1.00  0.00     0.010 A 
HETATM   33  C   UNL     1      -1.200   7.691 -28.882  1.00  0.00     0.024 A 
HETATM   34  C   UNL     1      -0.127   6.806 -28.811  1.00  0.00     0.034 A 
HETATM   35 CL   UNL     1       0.523   6.374 -27.280  1.00  0.00    -0.084 Cl
HETATM   36  C   UNL     1       0.431   6.280 -29.975  1.00  0.00     0.024 A 
HETATM   37  C   UNL     1      -0.080   6.651 -31.222  1.00  0.00     0.010 A 
ENDBRANCH  30  31
ENDBRANCH   9  30
TORSDOF 7
ENDMDL
MODEL 2
REMARK VINA RESULT:      -9.2      1.459      2.369
REMARK  7 active torsions:
REMARK  status: ('A' for Active; 'I' for Inactive)
REMARK    1  A    between atoms: O_2  and  C_3 
REMARK    2  A    between atoms: C_4  and  O_5 
REMARK    3  A    between atoms: C_8  and  N_9 
REMARK       I    between atoms: N_9  and  C_10 
REMARK    4  A    between atoms: C_10  and  C_11 
REMARK    5  A    between atoms: C_11  and  N_12 
REMARK    6  A    between atoms: N_20  and  C_21 
REMARK    7  A    between atoms: C_21  and  C_22 
ROOT
HETATM    1  N   UNL     1      -5.508   2.874 -31.869  1.00  0.00    -0.063 N 
HETATM    2  H   UNL     1      -5.578   1.992 -31.319  1.00  0.00     0.280 HD
HETATM    3  C   UNL     1      -4.329   2.686 -32.781  1.00  0.00     0.238 C 
HETATM    4  C   UNL     1      -3.979   4.001 -33.470  1.00  0.00     0.069 C 
HETATM    5  C   UNL     1      -3.795   5.145 -32.464  1.00  0.00     0.119 C 
HETATM    6  N   UNL     1      -3.544   6.396 -33.142  1.00  0.00    -0.324 N 
HETATM    7  C   UNL     1      -2.210   6.745 -33.114  1.00  0.00     0.326 C 
HETATM    8  O   UNL     1      -1.746   7.665 -33.760  1.00  0.00    -0.247 OA
HETATM    9  N   UNL     1      -1.560   5.882 -32.288  1.00  0.00    -0.264 N 
HETATM   10  C   UNL     1      -2.428   4.963 -31.782  1.00  0.00     0.256 C 
HETATM   11  O   UNL     1      -2.181   4.056 -30.999  1.00  0.00    -0.270 OA
HETATM   12  C   UNL     1      -4.951   5.265 -31.478  1.00  0.00     0.069 C 
HETATM   13  C   UNL     1      -5.312   3.937 -30.833  1.00  0.00     0.238 C 
HETATM   14  H   UNL     1      -4.161   6.887 -33.782  1.00  0.00     0.165 HD
ENDROOT
BRANCH   1  15
HETATM   15  C   UNL     1      -6.861   2.882 -32.615  1.00  0.00     0.337 C 
BRANCH  15  16
HETATM   16  C   UNL     1      -7.823   1.958 -31.870  1.00  0.00     0.248 C 
HETATM   17  N   UNL     1      -7.745   0.603 -31.897  1.00  0.00    -0.326 N 
HETATM   18  H   UNL     1      -8.348   0.181 -31.193  1.00  0.00     0.169 HD
HETATM   19  O   UNL     1      -8.610   2.496 -31.080  1.00  0.00    -0.271 OA
BRANCH  17  20
HETATM   20  C   UNL     1      -6.924  -0.287 -32.606  1.00  0.00     0.037 A 
HETATM   21  C   UNL     1      -5.650  -0.679 -32.210  1.00  0.00     0.069 A 
HETATM   22  C   UNL     1      -4.953  -1.638 -32.955  1.00  0.00     0.103 A 
HETATM   23  C   UNL     1      -5.473  -2.162 -34.147  1.00  0.00     0.101 A 
HETATM   24  C   UNL     1      -6.727  -1.727 -34.568  1.00  0.00     0.042 A 
HETATM   25  C   UNL     1      -7.441  -0.792 -33.807  1.00  0.00     0.032 A 
BRANCH  22  26
HETATM   26  O   UNL     1      -3.695  -1.980 -32.528  1.00  0.00    -0.353 OA
HETATM   27  C   UNL     1      -2.988  -0.824 -32.078  1.00  0.00     0.210 C 
ENDBRANCH  22  26
BRANCH  23  28
HETATM   28  O   UNL     1      -4.703  -3.086 -34.799  1.00  0.00    -0.353 OA
HETATM   29  C   UNL     1      -5.021  -4.457 -34.581  1.00  0.00     0.210 C 
ENDBRANCH  23  28
ENDBRANCH  17  20
ENDBRANCH  15  16
ENDBRANCH   1  15
BRANCH   9  30
HETATM   30  C   UNL     1      -0.122   5.843 -32.125  1.00  0.00     0.175 C 
BRANCH  30  31
HETATM   31  C   UNL     1       0.240   6.210 -30.700  1.00  0.00    -0.040 A 
HETATM   32  C   UNL     1       0.662   5.217 -29.801  1.00  0.00     0.010 A 
HETATM   33  C   UNL     1       0.916   5.530 -28.464  1.00  0.00     0.024 A 
HETATM   34  C   UNL     1       0.750   6.839 -28.018  1.00  0.00     0.034 A 
HETATM   35 CL   UNL     1       1.036   7.221 -26.367  1.00  0.00    -0.084 Cl
HETATM   36  C   UNL     1       0.340   7.838 -28.899  1.00  0.00     0.024 A 
HETATM   37  C   UNL     1       0.081   7.524 -30.237  1.00  0.00     0.010 A 
ENDBRANCH  30  31
ENDBRANCH   9  30
TORSDOF 7
ENDMDL
MODEL 3
REMARK VINA RESULT:      -9.2      0.790      1.636
REMARK  7 active torsions:
REMARK  status: ('A' for Active; 'I' for Inactive)
REMARK    1  A    between atoms: O_2  and  C_3 
REMARK    2  A    between atoms: C_4  and  O_5 
REMARK    3  A    between atoms: C_8  and  N_9 
REMARK       I    between atoms: N_9  and  C_10 
REMARK    4  A    between atoms: C_10  and  C_11 
REMARK    5  A    between atoms: C_11  and  N_12 
REMARK    6  A    between atoms: N_20  and  C_21 
REMARK    7  A    between atoms: C_21  and  C_22 
ROOT
HETATM    1  N   UNL     1      -6.023   3.696 -32.812  1.00  0.00    -0.063 N 
HETATM    2  H   UNL     1      -6.866   3.672 -32.202  1.00  0.00     0.280 HD
HETATM    3  C   UNL     1      -4.854   3.829 -31.876  1.00  0.00     0.238 C 
HETATM    4  C   UNL     1      -3.578   4.114 -32.662  1.00  0.00     0.069 C 
HETATM    5  C   UNL     1      -3.741   5.313 -33.605  1.00  0.00     0.119 C 
HETATM    6  N   UNL     1      -2.549   5.515 -34.396  1.00  0.00    -0.324 N 
HETATM    7  C   UNL     1      -1.779   6.556 -33.921  1.00  0.00     0.326 C 
HETATM    8  O   UNL     1      -0.657   6.796 -34.325  1.00  0.00    -0.247 OA
HETATM    9  N   UNL     1      -2.480   7.196 -32.947  1.00  0.00    -0.264 N 
HETATM   10  C   UNL     1      -3.687   6.596 -32.758  1.00  0.00     0.256 C 
HETATM   11  O   UNL     1      -4.568   6.923 -31.974  1.00  0.00    -0.270 OA
HETATM   12  C   UNL     1      -4.985   5.218 -34.481  1.00  0.00     0.069 C 
HETATM   13  C   UNL     1      -6.239   4.892 -33.687  1.00  0.00     0.238 C 
HETATM   14  H   UNL     1      -2.139   4.877 -35.071  1.00  0.00     0.165 HD
ENDROOT
BRANCH   1  15
HETATM   15  C   UNL     1      -6.099   2.317 -33.503  1.00  0.00     0.337 C 
BRANCH  15  16
HETATM   16  C   UNL     1      -7.228   1.519 -32.853  1.00  0.00     0.248 C 
HETATM   17  N   UNL     1      -7.204   0.173 -32.679  1.00  0.00    -0.326 N 
HETATM   18  H   UNL     1      -7.954  -0.136 -32.064  1.00  0.00     0.169 HD
HETATM   19  O   UNL     1      -8.136   2.175 -32.322  1.00  0.00    -0.271 OA
BRANCH  17  20
HETATM   20  C   UNL     1      -6.295  -0.819 -33.077  1.00  0.00     0.037 A 
HETATM   21  C   UNL     1      -5.058  -1.046 -32.483  1.00  0.00     0.069 A 
HETATM   22  C   UNL     1      -4.267  -2.119 -32.911  1.00  0.00     0.103 A 
HETATM   23  C   UNL     1      -4.651  -2.933 -33.985  1.00  0.00     0.101 A 
HETATM   24  C   UNL     1      -5.867  -2.668 -34.612  1.00  0.00     0.042 A 
HETATM   25  C   UNL     1      -6.675  -1.616 -34.165  1.00  0.00     0.032 A 
BRANCH  22  26
HETATM   26  O   UNL     1      -3.050  -2.292 -32.300  1.00  0.00    -0.353 OA
HETATM   27  C   UNL     1      -2.554  -1.045 -31.814  1.00  0.00     0.210 C 
ENDBRANCH  22  26
BRANCH  23  28
HETATM   28  O   UNL     1      -3.798  -3.947 -34.324  1.00  0.00    -0.353 OA
HETATM   29  C   UNL     1      -4.100  -5.240 -33.811  1.00  0.00     0.210 C 
ENDBRANCH  23  28
ENDBRANCH  17  20
ENDBRANCH  15  16
ENDBRANCH   1  15
BRANCH   9  30
HETATM   30  C   UNL     1      -1.936   8.246 -32.114  1.00  0.00     0.175 C 
BRANCH  30  31
HETATM   31  C   UNL     1      -1.462   7.661 -30.799  1.00  0.00    -0.040 A 
HETATM   32  C   UNL     1      -2.210   7.859 -29.627  1.00  0.00     0.010 A 
HETATM   33  C   UNL     1      -1.739   7.397 -28.396  1.00  0.00     0.024 A 
HETATM   34  C   UNL     1      -0.516   6.734 -28.329  1.00  0.00     0.034 A 
HETATM   35 CL   UNL     1       0.079   6.190 -26.812  1.00  0.00    -0.084 Cl
HETATM   36  C   UNL     1       0.236   6.524 -29.484  1.00  0.00     0.024 A 
HETATM   37  C   UNL     1      -0.233   6.989 -30.716  1.00  0.00     0.010 A 
ENDBRANCH  30  31
ENDBRANCH   9  30
TORSDOF 7
ENDMDL
MODEL 4
REMARK VINA RESULT:      -8.9      3.332      9.570
REMARK  7 active torsions:
REMARK  status: ('A' for Active; 'I' for Inactive)
REMARK    1  A    between atoms: O_2  and  C_3 
REMARK    2  A    between atoms: C_4  and  O_5 
REMARK    3  A    between atoms: C_8  and  N_9 
REMARK       I    between atoms: N_9  and  C_10 
REMARK    4  A    between atoms: C_10  and  C_11 
REMARK    5  A    between atoms: C_11  and  N_12 
REMARK    6  A    between atoms: N_20  and  C_21 
REMARK    7  A    between atoms: C_21  and  C_22 
ROOT
HETATM    1  N   UNL     1      -2.911   5.288 -33.267  1.00  0.00    -0.063 N 
HETATM    2  H   UNL     1      -2.871   5.705 -34.220  1.00  0.00     0.280 HD
HETATM    3  C   UNL     1      -2.971   3.801 -33.482  1.00  0.00     0.238 C 
HETATM    4  C   UNL     1      -3.273   3.089 -32.167  1.00  0.00     0.069 C 
HETATM    5  C   UNL     1      -4.522   3.656 -31.482  1.00  0.00     0.119 C 
HETATM    6  N   UNL     1      -4.743   3.022 -30.202  1.00  0.00    -0.324 N 
HETATM    7  C   UNL     1      -5.742   2.073 -30.256  1.00  0.00     0.326 C 
HETATM    8  O   UNL     1      -5.982   1.302 -29.346  1.00  0.00    -0.247 OA
HETATM    9  N   UNL     1      -6.344   2.154 -31.473  1.00  0.00    -0.264 N 
HETATM   10  C   UNL     1      -5.758   3.124 -32.229  1.00  0.00     0.256 C 
HETATM   11  O   UNL     1      -6.060   3.470 -33.363  1.00  0.00    -0.270 OA
HETATM   12  C   UNL     1      -4.499   5.175 -31.357  1.00  0.00     0.069 C 
HETATM   13  C   UNL     1      -4.155   5.865 -32.667  1.00  0.00     0.238 C 
HETATM   14  H   UNL     1      -4.134   3.039 -29.390  1.00  0.00     0.165 HD
ENDROOT
BRANCH   1  15
HETATM   15  C   UNL     1      -1.571   5.764 -32.662  1.00  0.00     0.337 C 
BRANCH  15  16
HETATM   16  C   UNL     1      -1.561   7.291 -32.669  1.00  0.00     0.248 C 
HETATM   17  N   UNL     1      -1.469   8.054 -31.549  1.00  0.00    -0.326 N 
HETATM   18  H   UNL     1      -1.286   9.029 -31.778  1.00  0.00     0.169 HD
HETATM   19  O   UNL     1      -1.475   7.841 -33.776  1.00  0.00    -0.271 OA
BRANCH  17  20
HETATM   20  C   UNL     1      -1.454   7.736 -30.183  1.00  0.00     0.037 A 
HETATM   21  C   UNL     1      -0.314   7.414 -29.455  1.00  0.00     0.069 A 
HETATM   22  C   UNL     1      -0.407   7.194 -28.075  1.00  0.00     0.103 A 
HETATM   23  C   UNL     1      -1.641   7.209 -27.411  1.00  0.00     0.101 A 
HETATM   24  C   UNL     1      -2.788   7.481 -28.155  1.00  0.00     0.042 A 
HETATM   25  C   UNL     1      -2.693   7.733 -29.528  1.00  0.00     0.032 A 
BRANCH  22  26
HETATM   26  O   UNL     1       0.746   6.867 -27.407  1.00  0.00    -0.353 OA
HETATM   27  C   UNL     1       1.507   8.039 -27.120  1.00  0.00     0.210 C 
ENDBRANCH  22  26
BRANCH  23  28
HETATM   28  O   UNL     1      -1.617   6.973 -26.064  1.00  0.00    -0.353 OA
HETATM   29  C   UNL     1      -2.399   7.836 -25.245  1.00  0.00     0.210 C 
ENDBRANCH  23  28
ENDBRANCH  17  20
ENDBRANCH  15  16
ENDBRANCH   1  15
BRANCH   9  30
HETATM   30  C   UNL     1      -7.338   1.218 -31.951  1.00  0.00     0.175 C 
BRANCH  30  31
HETATM   31  C   UNL     1      -6.669   0.146 -32.788  1.00  0.00    -0.040 A 
HETATM   32  C   UNL     1      -7.325  -0.384 -33.911  1.00  0.00     0.010 A 
HETATM   33  C   UNL     1      -6.754  -1.431 -34.638  1.00  0.00     0.024 A 
HETATM   34  C   UNL     1      -5.524  -1.954 -34.247  1.00  0.00     0.034 A 
HETATM   35 CL   UNL     1      -4.834  -3.261 -35.125  1.00  0.00    -0.084 Cl
HETATM   36  C   UNL     1      -4.857  -1.434 -33.139  1.00  0.00     0.024 A 
HETATM   37  C   UNL     1      -5.429  -0.389 -32.408  1.00  0.00     0.010 A 
ENDBRANCH  30  31
ENDBRANCH   9  30
TORSDOF 7
ENDMDL
MODEL 5
REMARK VINA RESULT:      -8.9      2.760      4.459
REMARK  7 active torsions:
REMARK  status: ('A' for Active; 'I' for Inactive)
REMARK    1  A    between atoms: O_2  and  C_3 
REMARK    2  A    between atoms: C_4  and  O_5 
REMARK    3  A    between atoms: C_8  and  N_9 
REMARK       I    between atoms: N_9  and  C_10 
REMARK    4  A    between atoms: C_10  and  C_11 
REMARK    5  A    between atoms: C_11  and  N_12 
REMARK    6  A    between atoms: N_20  and  C_21 
REMARK    7  A    between atoms: C_21  and  C_22 
ROOT
HETATM    1  N   UNL     1      -5.747   3.148 -31.990  1.00  0.00    -0.063 N 
HETATM    2  H   UNL     1      -6.475   3.243 -31.252  1.00  0.00     0.280 HD
HETATM    3  C   UNL     1      -4.451   3.521 -31.328  1.00  0.00     0.238 C 
HETATM    4  C   UNL     1      -3.343   3.650 -32.370  1.00  0.00     0.069 C 
HETATM    5  C   UNL     1      -3.738   4.594 -33.513  1.00  0.00     0.119 C 
HETATM    6  N   UNL     1      -2.709   4.638 -34.526  1.00  0.00    -0.324 N 
HETATM    7  C   UNL     1      -1.939   5.780 -34.438  1.00  0.00     0.326 C 
HETATM    8  O   UNL     1      -0.918   5.948 -35.077  1.00  0.00    -0.247 OA
HETATM    9  N   UNL     1      -2.509   6.610 -33.523  1.00  0.00    -0.264 N 
HETATM   10  C   UNL     1      -3.628   6.039 -32.996  1.00  0.00     0.256 C 
HETATM   11  O   UNL     1      -4.386   6.516 -32.162  1.00  0.00    -0.270 OA
HETATM   12  C   UNL     1      -5.101   4.269 -34.113  1.00  0.00     0.069 C 
HETATM   13  C   UNL     1      -6.182   4.104 -33.058  1.00  0.00     0.238 C 
HETATM   14  H   UNL     1      -2.376   3.872 -35.103  1.00  0.00     0.165 HD
ENDROOT
BRANCH   1  15
HETATM   15  C   UNL     1      -5.847   1.644 -32.332  1.00  0.00     0.337 C 
BRANCH  15  16
HETATM   16  C   UNL     1      -6.485   0.926 -31.144  1.00  0.00     0.248 C 
HETATM   17  N   UNL     1      -7.822   0.744 -30.997  1.00  0.00    -0.326 N 
HETATM   18  H   UNL     1      -8.027   0.085 -30.248  1.00  0.00     0.169 HD
HETATM   19  O   UNL     1      -5.713   0.350 -30.364  1.00  0.00    -0.271 OA
BRANCH  17  20
HETATM   20  C   UNL     1      -8.927   1.184 -31.740  1.00  0.00     0.037 A 
HETATM   21  C   UNL     1      -9.417   2.485 -31.741  1.00  0.00     0.069 A 
HETATM   22  C   UNL     1     -10.479   2.829 -32.586  1.00  0.00     0.103 A 
HETATM   23  C   UNL     1     -11.124   1.873 -33.382  1.00  0.00     0.101 A 
HETATM   24  C   UNL     1     -10.664   0.559 -33.338  1.00  0.00     0.042 A 
HETATM   25  C   UNL     1      -9.581   0.218 -32.518  1.00  0.00     0.032 A 
BRANCH  22  26
HETATM   26  O   UNL     1     -10.932   4.124 -32.538  1.00  0.00    -0.353 OA
HETATM   27  C   UNL     1     -10.092   4.976 -33.316  1.00  0.00     0.210 C 
ENDBRANCH  22  26
BRANCH  23  28
HETATM   28  O   UNL     1     -12.155   2.318 -34.163  1.00  0.00    -0.353 OA
HETATM   29  C   UNL     1     -12.905   1.330 -34.862  1.00  0.00     0.210 C 
ENDBRANCH  23  28
ENDBRANCH  17  20
ENDBRANCH  15  16
ENDBRANCH   1  15
BRANCH   9  30
HETATM   30  C   UNL     1      -1.904   7.837 -33.054  1.00  0.00     0.175 C 
BRANCH  30  31
HETATM   31  C   UNL     1      -1.212   7.591 -31.728  1.00  0.00    -0.040 A 
HETATM   32  C   UNL     1      -1.707   8.182 -30.554  1.00  0.00     0.010 A 
HETATM   33  C   UNL     1      -1.028   8.031 -29.342  1.00  0.00     0.024 A 
HETATM   34  C   UNL     1       0.149   7.288 -29.298  1.00  0.00     0.034 A 
HETATM   35 CL   UNL     1       1.000   7.124 -27.814  1.00  0.00    -0.084 Cl
HETATM   36  C   UNL     1       0.649   6.689 -30.453  1.00  0.00     0.024 A 
HETATM   37  C   UNL     1      -0.028   6.843 -31.667  1.00  0.00     0.010 A 
ENDBRANCH  30  31
ENDBRANCH   9  30
TORSDOF 7
ENDMDL
MODEL 6
REMARK VINA RESULT:      -8.8      3.337      9.749
REMARK  7 active torsions:
REMARK  status: ('A' for Active; 'I' for Inactive)
REMARK    1  A    between atoms: O_2  and  C_3 
REMARK    2  A    between atoms: C_4  and  O_5 
REMARK    3  A    between atoms: C_8  and  N_9 
REMARK       I    between atoms: N_9  and  C_10 
REMARK    4  A    between atoms: C_10  and  C_11 
REMARK    5  A    between atoms: C_11  and  N_12 
REMARK    6  A    between atoms: N_20  and  C_21 
REMARK    7  A    between atoms: C_21  and  C_22 
ROOT
HETATM    1  N   UNL     1      -3.183   5.598 -31.946  1.00  0.00    -0.063 N 
HETATM    2  H   UNL     1      -2.350   5.626 -31.321  1.00  0.00     0.280 HD
HETATM    3  C   UNL     1      -4.327   5.167 -31.073  1.00  0.00     0.238 C 
HETATM    4  C   UNL     1      -5.555   4.860 -31.925  1.00  0.00     0.069 C 
HETATM    5  C   UNL     1      -5.239   3.865 -33.049  1.00  0.00     0.119 C 
HETATM    6  N   UNL     1      -6.394   3.651 -33.890  1.00  0.00    -0.324 N 
HETATM    7  C   UNL     1      -7.027   2.458 -33.612  1.00  0.00     0.326 C 
HETATM    8  O   UNL     1      -8.108   2.150 -34.077  1.00  0.00    -0.247 OA
HETATM    9  N   UNL     1      -6.253   1.756 -32.741  1.00  0.00    -0.264 N 
HETATM   10  C   UNL     1      -5.131   2.462 -32.427  1.00  0.00     0.256 C 
HETATM   11  O   UNL     1      -4.218   2.121 -31.687  1.00  0.00    -0.270 OA
HETATM   12  C   UNL     1      -4.015   4.259 -33.868  1.00  0.00     0.069 C 
HETATM   13  C   UNL     1      -2.815   4.602 -33.001  1.00  0.00     0.238 C 
HETATM   14  H   UNL     1      -6.880   4.337 -34.460  1.00  0.00     0.165 HD
ENDROOT
BRANCH   1  15
HETATM   15  C   UNL     1      -3.281   7.073 -32.398  1.00  0.00     0.337 C 
BRANCH  15  16
HETATM   16  C   UNL     1      -1.909   7.506 -32.914  1.00  0.00     0.248 C 
HETATM   17  N   UNL     1      -0.805   7.613 -32.133  1.00  0.00    -0.326 N 
HETATM   18  H   UNL     1       0.038   7.727 -32.693  1.00  0.00     0.169 HD
HETATM   19  O   UNL     1      -1.786   7.608 -34.143  1.00  0.00    -0.271 OA
BRANCH  17  20
HETATM   20  C   UNL     1      -0.602   7.476 -30.751  1.00  0.00     0.037 A 
HETATM   21  C   UNL     1      -1.256   8.219 -29.775  1.00  0.00     0.069 A 
HETATM   22  C   UNL     1      -1.033   7.940 -28.421  1.00  0.00     0.103 A 
HETATM   23  C   UNL     1      -0.100   6.977 -28.013  1.00  0.00     0.101 A 
HETATM   24  C   UNL     1       0.592   6.271 -28.995  1.00  0.00     0.042 A 
HETATM   25  C   UNL     1       0.348   6.526 -30.350  1.00  0.00     0.032 A 
BRANCH  22  26
HETATM   26  O   UNL     1      -1.694   8.712 -27.498  1.00  0.00    -0.353 OA
HETATM   27  C   UNL     1      -1.394  10.093 -27.695  1.00  0.00     0.210 C 
ENDBRANCH  22  26
BRANCH  23  28
HETATM   28  O   UNL     1       0.044   6.792 -26.666  1.00  0.00    -0.353 OA
HETATM   29  C   UNL     1       1.124   7.472 -26.035  1.00  0.00     0.210 C 
ENDBRANCH  23  28
ENDBRANCH  17  20
ENDBRANCH  15  16
ENDBRANCH   1  15
BRANCH   9  30
HETATM   30  C   UNL     1      -6.661   0.522 -32.106  1.00  0.00     0.175 C 
BRANCH  30  31
HETATM   31  C   UNL     1      -6.364  -0.647 -33.023  1.00  0.00    -0.040 A 
HETATM   32  C   UNL     1      -7.404  -1.269 -33.733  1.00  0.00     0.010 A 
HETATM   33  C   UNL     1      -7.155  -2.400 -34.514  1.00  0.00     0.024 A 
HETATM   34  C   UNL     1      -5.863  -2.915 -34.590  1.00  0.00     0.034 A 
HETATM   35 CL   UNL     1      -5.560  -4.323 -35.528  1.00  0.00    -0.084 Cl
HETATM   36  C   UNL     1      -4.819  -2.306 -33.897  1.00  0.00     0.024 A 
HETATM   37  C   UNL     1      -5.068  -1.176 -33.112  1.00  0.00     0.010 A 
ENDBRANCH  30  31
ENDBRANCH   9  30
TORSDOF 7
ENDMDL
MODEL 7
REMARK VINA RESULT:      -8.3      2.450      3.685
REMARK  7 active torsions:
REMARK  status: ('A' for Active; 'I' for Inactive)
REMARK    1  A    between atoms: O_2  and  C_3 
REMARK    2  A    between atoms: C_4  and  O_5 
REMARK    3  A    between atoms: C_8  and  N_9 
REMARK       I    between atoms: N_9  and  C_10 
REMARK    4  A    between atoms: C_10  and  C_11 
REMARK    5  A    between atoms: C_11  and  N_12 
REMARK    6  A    between atoms: N_20  and  C_21 
REMARK    7  A    between atoms: C_21  and  C_22 
ROOT
HETATM    1  N   UNL     1      -6.382   3.243 -32.515  1.00  0.00    -0.063 N 
HETATM    2  H   UNL     1      -6.279   3.327 -33.548  1.00  0.00     0.280 HD
HETATM    3  C   UNL     1      -7.054   4.513 -32.074  1.00  0.00     0.238 C 
HETATM    4  C   UNL     1      -7.046   4.613 -30.552  1.00  0.00     0.069 C 
HETATM    5  C   UNL     1      -5.637   4.437 -29.973  1.00  0.00     0.119 C 
HETATM    6  N   UNL     1      -5.665   4.455 -28.528  1.00  0.00    -0.324 N 
HETATM    7  C   UNL     1      -5.247   5.666 -28.015  1.00  0.00     0.326 C 
HETATM    8  O   UNL     1      -5.347   5.963 -26.839  1.00  0.00    -0.247 OA
HETATM    9  N   UNL     1      -4.759   6.418 -29.037  1.00  0.00    -0.264 N 
HETATM   10  C   UNL     1      -4.857   5.741 -30.214  1.00  0.00     0.256 C 
HETATM   11  O   UNL     1      -4.499   6.117 -31.323  1.00  0.00    -0.270 OA
HETATM   12  C   UNL     1      -4.923   3.199 -30.503  1.00  0.00     0.069 C 
HETATM   13  C   UNL     1      -4.978   3.094 -32.018  1.00  0.00     0.238 C 
HETATM   14  H   UNL     1      -6.138   3.804 -27.910  1.00  0.00     0.165 HD
ENDROOT
BRANCH   1  15
HETATM   15  C   UNL     1      -7.290   1.998 -32.394  1.00  0.00     0.337 C 
BRANCH  15  16
HETATM   16  C   UNL     1      -7.798   1.641 -33.790  1.00  0.00     0.248 C 
HETATM   17  N   UNL     1      -7.376   0.562 -34.498  1.00  0.00    -0.326 N 
HETATM   18  H   UNL     1      -7.968   0.396 -35.310  1.00  0.00     0.169 HD
HETATM   19  O   UNL     1      -8.761   2.296 -34.214  1.00  0.00    -0.271 OA
BRANCH  17  20
HETATM   20  C   UNL     1      -6.388  -0.404 -34.257  1.00  0.00     0.037 A 
HETATM   21  C   UNL     1      -5.217  -0.181 -33.541  1.00  0.00     0.069 A 
HETATM   22  C   UNL     1      -4.339  -1.243 -33.293  1.00  0.00     0.103 A 
HETATM   23  C   UNL     1      -4.567  -2.523 -33.818  1.00  0.00     0.101 A 
HETATM   24  C   UNL     1      -5.716  -2.729 -34.579  1.00  0.00     0.042 A 
HETATM   25  C   UNL     1      -6.612  -1.676 -34.801  1.00  0.00     0.032 A 
BRANCH  22  26
HETATM   26  O   UNL     1      -3.191  -0.966 -32.594  1.00  0.00    -0.353 OA
HETATM   27  C   UNL     1      -3.500  -0.286 -31.377  1.00  0.00     0.210 C 
ENDBRANCH  22  26
BRANCH  23  28
HETATM   28  O   UNL     1      -3.641  -3.483 -33.520  1.00  0.00    -0.353 OA
HETATM   29  C   UNL     1      -3.974  -4.826 -33.859  1.00  0.00     0.210 C 
ENDBRANCH  23  28
ENDBRANCH  17  20
ENDBRANCH  15  16
ENDBRANCH   1  15
BRANCH   9  30
HETATM   30  C   UNL     1      -4.367   7.805 -28.907  1.00  0.00     0.175 C 
BRANCH  30  31
HETATM   31  C   UNL     1      -2.878   7.891 -28.636  1.00  0.00    -0.040 A 
HETATM   32  C   UNL     1      -2.413   8.287 -27.372  1.00  0.00     0.010 A 
HETATM   33  C   UNL     1      -1.046   8.452 -27.138  1.00  0.00     0.024 A 
HETATM   34  C   UNL     1      -0.136   8.222 -28.166  1.00  0.00     0.034 A 
HETATM   35 CL   UNL     1       1.545   8.452 -27.888  1.00  0.00    -0.084 Cl
HETATM   36  C   UNL     1      -0.581   7.822 -29.425  1.00  0.00     0.024 A 
HETATM   37  C   UNL     1      -1.950   7.660 -29.662  1.00  0.00     0.010 A 
ENDBRANCH  30  31
ENDBRANCH   9  30
TORSDOF 7
ENDMDL
MODEL 8
REMARK VINA RESULT:      -8.2      2.836      5.343
REMARK  7 active torsions:
REMARK  status: ('A' for Active; 'I' for Inactive)
REMARK    1  A    between atoms: O_2  and  C_3 
REMARK    2  A    between atoms: C_4  and  O_5 
REMARK    3  A    between atoms: C_8  and  N_9 
REMARK       I    between atoms: N_9  and  C_10 
REMARK    4  A    between atoms: C_10  and  C_11 
REMARK    5  A    between atoms: C_11  and  N_12 
REMARK    6  A    between atoms: N_20  and  C_21 
REMARK    7  A    between atoms: C_21  and  C_22 
ROOT
HETATM    1  N   UNL     1      -5.575   0.595 -31.486  1.00  0.00    -0.063 N 
HETATM    2  H   UNL     1      -5.151  -0.356 -31.491  1.00  0.00     0.280 HD
HETATM    3  C   UNL     1      -5.040   1.281 -32.711  1.00  0.00     0.238 C 
HETATM    4  C   UNL     1      -5.402   2.762 -32.688  1.00  0.00     0.069 C 
HETATM    5  C   UNL     1      -4.976   3.437 -31.378  1.00  0.00     0.119 C 
HETATM    6  N   UNL     1      -5.400   4.817 -31.345  1.00  0.00    -0.324 N 
HETATM    7  C   UNL     1      -4.364   5.687 -31.615  1.00  0.00     0.326 C 
HETATM    8  O   UNL     1      -4.523   6.878 -31.805  1.00  0.00    -0.247 OA
HETATM    9  N   UNL     1      -3.206   4.974 -31.652  1.00  0.00    -0.264 N 
HETATM   10  C   UNL     1      -3.454   3.654 -31.427  1.00  0.00     0.256 C 
HETATM   11  O   UNL     1      -2.641   2.741 -31.377  1.00  0.00    -0.270 OA
HETATM   12  C   UNL     1      -5.439   2.679 -30.138  1.00  0.00     0.069 C 
HETATM   13  C   UNL     1      -5.106   1.198 -30.198  1.00  0.00     0.238 C 
HETATM   14  H   UNL     1      -6.351   5.174 -31.368  1.00  0.00     0.165 HD
ENDROOT
BRANCH   1  15
HETATM   15  C   UNL     1      -7.081   0.263 -31.581  1.00  0.00     0.337 C 
BRANCH  15  16
HETATM   16  C   UNL     1      -7.333  -0.435 -32.917  1.00  0.00     0.248 C 
HETATM   17  N   UNL     1      -8.212   0.009 -33.851  1.00  0.00    -0.326 N 
HETATM   18  H   UNL     1      -8.093  -0.480 -34.736  1.00  0.00     0.169 HD
HETATM   19  O   UNL     1      -6.569  -1.366 -33.208  1.00  0.00    -0.271 OA
BRANCH  17  20
HETATM   20  C   UNL     1      -9.135   1.065 -33.859  1.00  0.00     0.037 A 
HETATM   21  C   UNL     1      -8.834   2.382 -34.191  1.00  0.00     0.069 A 
HETATM   22  C   UNL     1      -9.855   3.338 -34.244  1.00  0.00     0.103 A 
HETATM   23  C   UNL     1     -11.175   3.024 -33.891  1.00  0.00     0.101 A 
HETATM   24  C   UNL     1     -11.462   1.716 -33.509  1.00  0.00     0.042 A 
HETATM   25  C   UNL     1     -10.449   0.749 -33.486  1.00  0.00     0.032 A 
BRANCH  22  26
HETATM   26  O   UNL     1      -9.501   4.625 -34.564  1.00  0.00    -0.353 OA
HETATM   27  C   UNL     1      -8.336   5.018 -33.838  1.00  0.00     0.210 C 
ENDBRANCH  22  26
BRANCH  23  28
HETATM   28  O   UNL     1     -12.089   4.037 -33.971  1.00  0.00    -0.353 OA
HETATM   29  C   UNL     1     -13.390   3.772 -33.456  1.00  0.00     0.210 C 
ENDBRANCH  23  28
ENDBRANCH  17  20
ENDBRANCH  15  16
ENDBRANCH   1  15
BRANCH   9  30
HETATM   30  C   UNL     1      -1.930   5.522 -32.056  1.00  0.00     0.175 C 
BRANCH  30  31
HETATM   31  C   UNL     1      -1.156   5.970 -30.832  1.00  0.00    -0.040 A 
HETATM   32  C   UNL     1      -1.315   7.274 -30.336  1.00  0.00     0.010 A 
HETATM   33  C   UNL     1      -0.544   7.724 -29.262  1.00  0.00     0.024 A 
HETATM   34  C   UNL     1       0.390   6.872 -28.677  1.00  0.00     0.034 A 
HETATM   35 CL   UNL     1       1.359   7.433 -27.373  1.00  0.00    -0.084 Cl
HETATM   36  C   UNL     1       0.555   5.573 -29.154  1.00  0.00     0.024 A 
HETATM   37  C   UNL     1      -0.214   5.123 -30.231  1.00  0.00     0.010 A 
ENDBRANCH  30  31
ENDBRANCH   9  30
TORSDOF 7
ENDMDL
MODEL 9
REMARK VINA RESULT:      -8.1      3.741      9.276
REMARK  7 active torsions:
REMARK  status: ('A' for Active; 'I' for Inactive)
REMARK    1  A    between atoms: O_2  and  C_3 
REMARK    2  A    between atoms: C_4  and  O_5 
REMARK    3  A    between atoms: C_8  and  N_9 
REMARK       I    between atoms: N_9  and  C_10 
REMARK    4  A    between atoms: C_10  and  C_11 
REMARK    5  A    between atoms: C_11  and  N_12 
REMARK    6  A    between atoms: N_20  and  C_21 
REMARK    7  A    between atoms: C_21  and  C_22 
ROOT
HETATM    1  N   UNL     1      -5.821   5.291 -29.844  1.00  0.00    -0.063 N 
HETATM    2  H   UNL     1      -5.165   6.049 -30.125  1.00  0.00     0.280 HD
HETATM    3  C   UNL     1      -5.216   4.020 -30.373  1.00  0.00     0.238 C 
HETATM    4  C   UNL     1      -6.204   2.867 -30.232  1.00  0.00     0.069 C 
HETATM    5  C   UNL     1      -7.567   3.198 -30.854  1.00  0.00     0.119 C 
HETATM    6  N   UNL     1      -8.510   2.125 -30.638  1.00  0.00    -0.324 N 
HETATM    7  C   UNL     1      -8.679   1.346 -31.764  1.00  0.00     0.326 C 
HETATM    8  O   UNL     1      -9.292   0.296 -31.764  1.00  0.00    -0.247 OA
HETATM    9  N   UNL     1      -8.033   1.946 -32.800  1.00  0.00    -0.264 N 
HETATM   10  C   UNL     1      -7.430   3.094 -32.383  1.00  0.00     0.256 C 
HETATM   11  O   UNL     1      -6.780   3.882 -33.057  1.00  0.00    -0.270 OA
HETATM   12  C   UNL     1      -8.127   4.537 -30.387  1.00  0.00     0.069 C 
HETATM   13  C   UNL     1      -7.115   5.666 -30.497  1.00  0.00     0.238 C 
HETATM   14  H   UNL     1      -8.857   1.776 -29.750  1.00  0.00     0.165 HD
ENDROOT
BRANCH   1  15
HETATM   15  C   UNL     1      -5.773   5.393 -28.303  1.00  0.00     0.337 C 
BRANCH  15  16
HETATM   16  C   UNL     1      -5.821   6.872 -27.922  1.00  0.00     0.248 C 
HETATM   17  N   UNL     1      -4.798   7.741 -28.127  1.00  0.00    -0.326 N 
HETATM   18  H   UNL     1      -5.095   8.705 -27.983  1.00  0.00     0.169 HD
HETATM   19  O   UNL     1      -6.917   7.315 -27.551  1.00  0.00    -0.271 OA
BRANCH  17  20
HETATM   20  C   UNL     1      -3.490   7.572 -28.605  1.00  0.00     0.037 A 
HETATM   21  C   UNL     1      -2.391   7.252 -27.816  1.00  0.00     0.069 A 
HETATM   22  C   UNL     1      -1.145   7.028 -28.414  1.00  0.00     0.103 A 
HETATM   23  C   UNL     1      -0.951   7.197 -29.792  1.00  0.00     0.101 A 
HETATM   24  C   UNL     1      -2.043   7.570 -30.571  1.00  0.00     0.042 A 
HETATM   25  C   UNL     1      -3.298   7.763 -29.981  1.00  0.00     0.032 A 
BRANCH  22  26
HETATM   26  O   UNL     1      -0.091   6.727 -27.588  1.00  0.00    -0.353 OA
HETATM   27  C   UNL     1      -0.558   6.116 -26.385  1.00  0.00     0.210 C 
ENDBRANCH  22  26
BRANCH  23  28
HETATM   28  O   UNL     1       0.309   6.960 -30.268  1.00  0.00    -0.353 OA
HETATM   29  C   UNL     1       0.532   5.703 -30.899  1.00  0.00     0.210 C 
ENDBRANCH  23  28
ENDBRANCH  17  20
ENDBRANCH  15  16
ENDBRANCH   1  15
BRANCH   9  30
HETATM   30  C   UNL     1      -7.864   1.348 -34.106  1.00  0.00     0.175 C 
BRANCH  30  31
HETATM   31  C   UNL     1      -6.945   0.147 -34.003  1.00  0.00    -0.040 A 
HETATM   32  C   UNL     1      -5.648   0.294 -33.485  1.00  0.00     0.010 A 
HETATM   33  C   UNL     1      -4.764  -0.787 -33.465  1.00  0.00     0.024 A 
HETATM   34  C   UNL     1      -5.173  -2.023 -33.962  1.00  0.00     0.034 A 
HETATM   35 CL   UNL     1      -4.077  -3.347 -33.963  1.00  0.00    -0.084 Cl
HETATM   36  C   UNL     1      -6.459  -2.187 -34.472  1.00  0.00     0.024 A 
HETATM   37  C   UNL     1      -7.343  -1.104 -34.496  1.00  0.00     0.010 A 
ENDBRANCH  30  31
ENDBRANCH   9  30
TORSDOF 7
ENDMDL
MODEL 10
REMARK VINA RESULT:      -8.1      5.465      9.006
REMARK  7 active torsions:
REMARK  status: ('A' for Active; 'I' for Inactive)
REMARK    1  A    between atoms: O_2  and  C_3 
REMARK    2  A    between atoms: C_4  and  O_5 
REMARK    3  A    between atoms: C_8  and  N_9 
REMARK       I    between atoms: N_9  and  C_10 
REMARK    4  A    between atoms: C_10  and  C_11 
REMARK    5  A    between atoms: C_11  and  N_12 
REMARK    6  A    between atoms: N_20  and  C_21 
REMARK    7  A    between atoms: C_21  and  C_22 
ROOT
HETATM    1  N   UNL     1      -9.008   3.983 -33.586  1.00  0.00    -0.063 N 
HETATM    2  H   UNL     1      -9.095   4.413 -34.530  1.00  0.00     0.280 HD
HETATM    3  C   UNL     1      -7.667   4.421 -33.067  1.00  0.00     0.238 C 
HETATM    4  C   UNL     1      -7.321   3.662 -31.790  1.00  0.00     0.069 C 
HETATM    5  C   UNL     1      -7.434   2.143 -31.978  1.00  0.00     0.119 C 
HETATM    6  N   UNL     1      -7.180   1.448 -30.737  1.00  0.00    -0.324 N 
HETATM    7  C   UNL     1      -5.913   0.905 -30.694  1.00  0.00     0.326 C 
HETATM    8  O   UNL     1      -5.425   0.424 -29.688  1.00  0.00    -0.247 OA
HETATM    9  N   UNL     1      -5.349   1.039 -31.924  1.00  0.00    -0.264 N 
HETATM   10  C   UNL     1      -6.206   1.669 -32.774  1.00  0.00     0.256 C 
HETATM   11  O   UNL     1      -6.024   1.936 -33.954  1.00  0.00    -0.270 OA
HETATM   12  C   UNL     1      -8.759   1.715 -32.598  1.00  0.00     0.069 C 
HETATM   13  C   UNL     1      -9.107   2.511 -33.845  1.00  0.00     0.238 C 
HETATM   14  H   UNL     1      -7.711   1.510 -29.873  1.00  0.00     0.165 HD
ENDROOT
BRANCH   1  15
HETATM   15  C   UNL     1     -10.194   4.630 -32.838  1.00  0.00     0.337 C 
BRANCH  15  16
HETATM   16  C   UNL     1     -10.982   5.477 -33.836  1.00  0.00     0.248 C 
HETATM   17  N   UNL     1     -12.325   5.384 -34.015  1.00  0.00    -0.326 N 
HETATM   18  H   UNL     1     -12.679   6.156 -34.577  1.00  0.00     0.169 HD
HETATM   19  O   UNL     1     -10.367   6.401 -34.387  1.00  0.00    -0.271 OA
BRANCH  17  20
HETATM   20  C   UNL     1     -13.296   4.522 -33.484  1.00  0.00     0.037 A 
HETATM   21  C   UNL     1     -13.317   3.143 -33.662  1.00  0.00     0.069 A 
HETATM   22  C   UNL     1     -14.291   2.372 -33.017  1.00  0.00     0.103 A 
HETATM   23  C   UNL     1     -15.307   2.961 -32.252  1.00  0.00     0.101 A 
HETATM   24  C   UNL     1     -15.312   4.348 -32.120  1.00  0.00     0.042 A 
HETATM   25  C   UNL     1     -14.321   5.120 -32.737  1.00  0.00     0.032 A 
BRANCH  22  26
HETATM   26  O   UNL     1     -14.274   1.017 -33.237  1.00  0.00    -0.353 OA
HETATM   27  C   UNL     1     -13.505   0.709 -34.399  1.00  0.00     0.210 C 
ENDBRANCH  22  26
BRANCH  23  28
HETATM   28  O   UNL     1     -16.211   2.114 -31.674  1.00  0.00    -0.353 OA
HETATM   29  C   UNL     1     -17.547   2.589 -31.545  1.00  0.00     0.210 C 
ENDBRANCH  23  28
ENDBRANCH  17  20
ENDBRANCH  15  16
ENDBRANCH   1  15
BRANCH   9  30
HETATM   30  C   UNL     1      -3.969   0.720 -32.222  1.00  0.00     0.175 C 
BRANCH  30  31
HETATM   31  C   UNL     1      -3.850  -0.748 -32.579  1.00  0.00    -0.040 A 
HETATM   32  C   UNL     1      -4.514  -1.256 -33.707  1.00  0.00     0.010 A 
HETATM   33  C   UNL     1      -4.480  -2.622 -33.996  1.00  0.00     0.024 A 
HETATM   34  C   UNL     1      -3.782  -3.488 -33.159  1.00  0.00     0.034 A 
HETATM   35 CL   UNL     1      -3.762  -5.173 -33.498  1.00  0.00    -0.084 Cl
HETATM   36  C   UNL     1      -3.111  -2.999 -32.040  1.00  0.00     0.024 A 
HETATM   37  C   UNL     1      -3.147  -1.632 -31.748  1.00  0.00     0.010 A 
ENDBRANCH  30  31
ENDBRANCH   9  30
TORSDOF 7
ENDMDL
