MODEL 1
REMARK VINA RESULT:      -8.2      0.000      0.000
REMARK  10 active torsions:
REMARK  status: ('A' for Active; 'I' for Inactive)
REMARK    1  A    between atoms: C_3  and  C_4 
REMARK    2  A    between atoms: C_4  and  C_5 
REMARK       I    between atoms: C_5  and  N_6 
REMARK    3  A    between atoms: N_6  and  C_7 
REMARK    4  A    between atoms: C_7  and  C_8 
REMARK    5  A    between atoms: C_8  and  O_9 
REMARK    6  A    between atoms: C_15  and  N_16 
REMARK       I    between atoms: N_16  and  C_17 
REMARK    7  A    between atoms: C_17  and  C_18 
REMARK    8  A    between atoms: C_28  and  C_29 
REMARK    9  A    between atoms: C_29  and  O_30 
REMARK   10  A    between atoms: C_32  and  O_33 
ROOT
HETATM    1  C   UNL     1      -5.917   0.770 -29.565  1.00  0.00     0.016 C 
HETATM    2  C   UNL     1      -5.540   1.561 -30.860  1.00  0.00    -0.030 C 
HETATM    3  C   UNL     1      -6.351   0.977 -32.105  1.00  0.00     0.056 C 
HETATM    4  C   UNL     1      -7.756   1.542 -32.136  1.00  0.00     0.056 C 
HETATM    5  C   UNL     1      -8.201   2.552 -31.307  1.00  0.00     0.012 C 
HETATM    6  S   UNL     1      -9.832   2.904 -31.621  1.00  0.00    -0.055 SA
HETATM    7  C   UNL     1      -9.770   1.864 -32.977  1.00  0.00     0.173 C 
HETATM    8  N   UNL     1      -8.652   1.188 -33.133  1.00  0.00    -0.227 NA
HETATM    9  C   UNL     1      -7.387   3.289 -30.305  1.00  0.00     0.055 C 
HETATM   10  C   UNL     1      -5.875   3.093 -30.604  1.00  0.00     0.012 C 
HETATM   11  C   UNL     1      -5.246   4.127 -31.646  1.00  0.00     0.008 C 
HETATM   12  C   UNL     1      -4.966   5.438 -30.852  1.00  0.00     0.020 C 
HETATM   13  C   UNL     1      -3.873   3.614 -32.182  1.00  0.00     0.128 C 
HETATM   14  C   UNL     1      -3.202   2.645 -31.217  1.00  0.00     0.033 C 
HETATM   15  C   UNL     1      -4.008   1.355 -31.074  1.00  0.00     0.013 C 
ENDROOT
BRANCH   7  16
HETATM   16  N   UNL     1     -10.745   1.907 -33.940  1.00  0.00    -0.305 N 
HETATM   17  C   UNL     1     -11.906   1.167 -33.897  1.00  0.00     0.227 C 
HETATM   18  O   UNL     1     -12.008   0.055 -33.386  1.00  0.00    -0.273 OA
HETATM   19  H   UNL     1     -10.566   2.559 -34.693  1.00  0.00     0.171 HD
BRANCH  17  20
HETATM   20  C   UNL     1     -13.098   1.883 -34.542  1.00  0.00     0.078 C 
HETATM   21  C   UNL     1     -14.438   1.200 -34.222  1.00  0.00     0.014 C 
HETATM   22  C   UNL     1     -14.915   1.417 -32.782  1.00  0.00     0.001 C 
HETATM   23  C   UNL     1     -14.902   2.888 -32.382  1.00  0.00     0.000 C 
HETATM   24  C   UNL     1     -13.551   3.538 -32.657  1.00  0.00     0.001 C 
HETATM   25  C   UNL     1     -13.131   3.362 -34.116  1.00  0.00     0.014 C 
ENDBRANCH  17  20
ENDBRANCH   7  16
BRANCH   3  26
HETATM   26  C   UNL     1      -6.360  -0.566 -32.132  1.00  0.00     0.114 C 
BRANCH  26  27
HETATM   27  C   UNL     1      -5.752  -1.184 -33.377  1.00  0.00     0.218 C 
HETATM   28  N   UNL     1      -6.485  -2.184 -33.955  1.00  0.00    -0.359 N 
HETATM   29  H   UNL     1      -7.481  -2.235 -33.728  1.00  0.00     0.162 HD
HETATM   30  O   UNL     1      -4.642  -0.848 -33.785  1.00  0.00    -0.274 OA
BRANCH  28  31
HETATM   31  C   UNL     1      -5.995  -2.916 -35.103  1.00  0.00     0.148 C 
BRANCH  31  32
HETATM   32  C   UNL     1      -6.565  -4.335 -35.176  1.00  0.00     0.186 C 
BRANCH  32  33
HETATM   33  O   UNL     1      -5.561  -5.360 -35.137  1.00  0.00    -0.394 OA
HETATM   34  C   UNL     1      -4.550  -5.096 -34.167  1.00  0.00     0.201 C 
ENDBRANCH  32  33
ENDBRANCH  31  32
ENDBRANCH  28  31
ENDBRANCH  26  27
ENDBRANCH   3  26
BRANCH  11  35
HETATM   35  C   UNL     1      -6.136   4.509 -32.861  1.00  0.00     0.176 C 
BRANCH  35  36
HETATM   36  O   UNL     1      -5.528   5.489 -33.693  1.00  0.00    -0.400 OA
HETATM   37  H   UNL     1      -4.569   5.437 -33.533  1.00  0.00     0.209 HD
ENDBRANCH  35  36
ENDBRANCH  11  35
BRANCH  13  38
HETATM   38  O   UNL     1      -4.024   2.959 -33.443  1.00  0.00    -0.395 OA
HETATM   39  H   UNL     1      -3.497   3.451 -34.098  1.00  0.00     0.210 HD
ENDBRANCH  13  38
TORSDOF 10
ENDMDL
MODEL 2
REMARK VINA RESULT:      -8.2      2.883      7.406
REMARK  10 active torsions:
REMARK  status: ('A' for Active; 'I' for Inactive)
REMARK    1  A    between atoms: C_3  and  C_4 
REMARK    2  A    between atoms: C_4  and  C_5 
REMARK       I    between atoms: C_5  and  N_6 
REMARK    3  A    between atoms: N_6  and  C_7 
REMARK    4  A    between atoms: C_7  and  C_8 
REMARK    5  A    between atoms: C_8  and  O_9 
REMARK    6  A    between atoms: C_15  and  N_16 
REMARK       I    between atoms: N_16  and  C_17 
REMARK    7  A    between atoms: C_17  and  C_18 
REMARK    8  A    between atoms: C_28  and  C_29 
REMARK    9  A    between atoms: C_29  and  O_30 
REMARK   10  A    between atoms: C_32  and  O_33 
ROOT
HETATM    1  C   UNL     1      -5.843   4.798 -29.926  1.00  0.00     0.016 C 
HETATM    2  C   UNL     1      -6.507   4.683 -31.337  1.00  0.00    -0.030 C 
HETATM    3  C   UNL     1      -5.606   3.765 -32.283  1.00  0.00     0.056 C 
HETATM    4  C   UNL     1      -5.872   2.299 -32.009  1.00  0.00     0.056 C 
HETATM    5  C   UNL     1      -6.878   1.837 -31.185  1.00  0.00     0.012 C 
HETATM    6  S   UNL     1      -6.852   0.141 -31.109  1.00  0.00    -0.055 SA
HETATM    7  C   UNL     1      -5.668   0.128 -32.343  1.00  0.00     0.173 C 
HETATM    8  N   UNL     1      -5.213   1.305 -32.716  1.00  0.00    -0.227 NA
HETATM    9  C   UNL     1      -7.893   2.668 -30.487  1.00  0.00     0.055 C 
HETATM   10  C   UNL     1      -7.962   4.077 -31.138  1.00  0.00     0.012 C 
HETATM   11  C   UNL     1      -8.946   4.204 -32.389  1.00  0.00     0.008 C 
HETATM   12  C   UNL     1     -10.383   4.352 -31.807  1.00  0.00     0.020 C 
HETATM   13  C   UNL     1      -8.646   5.500 -33.206  1.00  0.00     0.128 C 
HETATM   14  C   UNL     1      -7.973   6.572 -32.361  1.00  0.00     0.033 C 
HETATM   15  C   UNL     1      -6.581   6.133 -31.910  1.00  0.00     0.013 C 
ENDROOT
BRANCH   7  16
HETATM   16  N   UNL     1      -5.383  -1.024 -33.030  1.00  0.00    -0.305 N 
HETATM   17  C   UNL     1      -6.247  -1.630 -33.915  1.00  0.00     0.227 C 
HETATM   18  O   UNL     1      -7.472  -1.605 -33.823  1.00  0.00    -0.273 OA
HETATM   19  H   UNL     1      -4.456  -1.396 -32.864  1.00  0.00     0.171 HD
BRANCH  17  20
HETATM   20  C   UNL     1      -5.528  -2.339 -35.067  1.00  0.00     0.078 C 
HETATM   21  C   UNL     1      -4.094  -2.754 -34.699  1.00  0.00     0.014 C 
HETATM   22  C   UNL     1      -4.021  -3.947 -33.741  1.00  0.00     0.001 C 
HETATM   23  C   UNL     1      -4.863  -5.126 -34.217  1.00  0.00     0.000 C 
HETATM   24  C   UNL     1      -6.295  -4.709 -34.528  1.00  0.00     0.001 C 
HETATM   25  C   UNL     1      -6.339  -3.560 -35.536  1.00  0.00     0.014 C 
ENDBRANCH  17  20
ENDBRANCH   7  16
BRANCH   3  26
HETATM   26  C   UNL     1      -4.104   4.100 -32.174  1.00  0.00     0.114 C 
BRANCH  26  27
HETATM   27  C   UNL     1      -3.509   4.761 -33.403  1.00  0.00     0.218 C 
HETATM   28  N   UNL     1      -2.147   4.690 -33.508  1.00  0.00    -0.359 N 
HETATM   29  H   UNL     1      -1.665   3.968 -32.967  1.00  0.00     0.162 HD
HETATM   30  O   UNL     1      -4.209   5.378 -34.204  1.00  0.00    -0.274 OA
BRANCH  28  31
HETATM   31  C   UNL     1      -1.434   5.341 -34.586  1.00  0.00     0.148 C 
BRANCH  31  32
HETATM   32  C   UNL     1      -0.736   6.625 -34.132  1.00  0.00     0.186 C 
BRANCH  32  33
HETATM   33  O   UNL     1      -1.635   7.726 -33.928  1.00  0.00    -0.394 OA
HETATM   34  C   UNL     1      -1.847   8.009 -32.547  1.00  0.00     0.201 C 
ENDBRANCH  32  33
ENDBRANCH  31  32
ENDBRANCH  28  31
ENDBRANCH  26  27
ENDBRANCH   3  26
BRANCH  11  35
HETATM   35  C   UNL     1      -8.973   2.999 -33.370  1.00  0.00     0.176 C 
BRANCH  35  36
HETATM   36  O   UNL     1      -9.906   3.180 -34.427  1.00  0.00    -0.400 OA
HETATM   37  H   UNL     1      -9.477   3.753 -35.086  1.00  0.00     0.209 HD
ENDBRANCH  35  36
ENDBRANCH  11  35
BRANCH  13  38
HETATM   38  O   UNL     1      -7.807   5.219 -34.328  1.00  0.00    -0.395 OA
HETATM   39  H   UNL     1      -7.183   4.518 -34.065  1.00  0.00     0.210 HD
ENDBRANCH  13  38
TORSDOF 10
ENDMDL
MODEL 3
REMARK VINA RESULT:      -8.2      3.112      7.393
REMARK  10 active torsions:
REMARK  status: ('A' for Active; 'I' for Inactive)
REMARK    1  A    between atoms: C_3  and  C_4 
REMARK    2  A    between atoms: C_4  and  C_5 
REMARK       I    between atoms: C_5  and  N_6 
REMARK    3  A    between atoms: N_6  and  C_7 
REMARK    4  A    between atoms: C_7  and  C_8 
REMARK    5  A    between atoms: C_8  and  O_9 
REMARK    6  A    between atoms: C_15  and  N_16 
REMARK       I    between atoms: N_16  and  C_17 
REMARK    7  A    between atoms: C_17  and  C_18 
REMARK    8  A    between atoms: C_28  and  C_29 
REMARK    9  A    between atoms: C_29  and  O_30 
REMARK   10  A    between atoms: C_32  and  O_33 
ROOT
HETATM    1  C   UNL     1      -7.006   0.966 -35.389  1.00  0.00     0.016 C 
HETATM    2  C   UNL     1      -7.407   0.962 -33.877  1.00  0.00    -0.030 C 
HETATM    3  C   UNL     1      -6.095   0.868 -32.972  1.00  0.00     0.056 C 
HETATM    4  C   UNL     1      -5.453   2.232 -32.826  1.00  0.00     0.056 C 
HETATM    5  C   UNL     1      -6.025   3.407 -33.267  1.00  0.00     0.012 C 
HETATM    6  S   UNL     1      -5.002   4.724 -32.946  1.00  0.00    -0.055 SA
HETATM    7  C   UNL     1      -3.986   3.683 -32.046  1.00  0.00     0.173 C 
HETATM    8  N   UNL     1      -4.300   2.406 -32.074  1.00  0.00    -0.227 NA
HETATM    9  C   UNL     1      -7.365   3.551 -33.891  1.00  0.00     0.055 C 
HETATM   10  C   UNL     1      -8.227   2.293 -33.592  1.00  0.00     0.012 C 
HETATM   11  C   UNL     1      -9.036   2.331 -32.216  1.00  0.00     0.008 C 
HETATM   12  C   UNL     1     -10.306   3.195 -32.474  1.00  0.00     0.020 C 
HETATM   13  C   UNL     1      -9.525   0.904 -31.817  1.00  0.00     0.128 C 
HETATM   14  C   UNL     1      -9.659  -0.018 -33.021  1.00  0.00     0.033 C 
HETATM   15  C   UNL     1      -8.300  -0.299 -33.660  1.00  0.00     0.013 C 
ENDROOT
BRANCH   7  16
HETATM   16  N   UNL     1      -3.042   4.191 -31.190  1.00  0.00    -0.305 N 
HETATM   17  C   UNL     1      -1.867   4.781 -31.599  1.00  0.00     0.227 C 
HETATM   18  O   UNL     1      -1.248   4.477 -32.615  1.00  0.00    -0.273 OA
HETATM   19  H   UNL     1      -3.285   4.130 -30.209  1.00  0.00     0.171 HD
BRANCH  17  20
HETATM   20  C   UNL     1      -1.397   5.897 -30.658  1.00  0.00     0.078 C 
HETATM   21  C   UNL     1      -0.424   6.871 -31.342  1.00  0.00     0.014 C 
HETATM   22  C   UNL     1      -1.095   7.815 -32.344  1.00  0.00     0.001 C 
HETATM   23  C   UNL     1      -2.307   8.524 -31.751  1.00  0.00     0.000 C 
HETATM   24  C   UNL     1      -3.288   7.541 -31.124  1.00  0.00     0.001 C 
HETATM   25  C   UNL     1      -2.604   6.657 -30.081  1.00  0.00     0.014 C 
ENDBRANCH  17  20
ENDBRANCH   7  16
BRANCH   3  26
HETATM   26  C   UNL     1      -5.091  -0.180 -33.495  1.00  0.00     0.114 C 
BRANCH  26  27
HETATM   27  C   UNL     1      -4.537  -1.115 -32.436  1.00  0.00     0.218 C 
HETATM   28  N   UNL     1      -3.643  -2.047 -32.884  1.00  0.00    -0.359 N 
HETATM   29  H   UNL     1      -3.179  -1.871 -33.778  1.00  0.00     0.162 HD
HETATM   30  O   UNL     1      -4.930  -1.071 -31.271  1.00  0.00    -0.274 OA
BRANCH  28  31
HETATM   31  C   UNL     1      -3.090  -3.053 -32.002  1.00  0.00     0.148 C 
BRANCH  31  32
HETATM   32  C   UNL     1      -3.263  -4.471 -32.554  1.00  0.00     0.186 C 
BRANCH  32  33
HETATM   33  O   UNL     1      -3.473  -4.513 -33.973  1.00  0.00    -0.394 OA
HETATM   34  C   UNL     1      -4.763  -5.012 -34.319  1.00  0.00     0.201 C 
ENDBRANCH  32  33
ENDBRANCH  31  32
ENDBRANCH  28  31
ENDBRANCH  26  27
ENDBRANCH   3  26
BRANCH  11  35
HETATM   35  C   UNL     1      -8.298   2.956 -31.000  1.00  0.00     0.176 C 
BRANCH  35  36
HETATM   36  O   UNL     1      -9.151   3.125 -29.875  1.00  0.00    -0.400 OA
HETATM   37  H   UNL     1      -9.112   2.297 -29.365  1.00  0.00     0.209 HD
ENDBRANCH  35  36
ENDBRANCH  11  35
BRANCH  13  38
HETATM   38  O   UNL     1      -8.633   0.295 -30.881  1.00  0.00    -0.395 OA
HETATM   39  H   UNL     1      -7.733   0.609 -31.082  1.00  0.00     0.210 HD
ENDBRANCH  13  38
TORSDOF 10
ENDMDL
MODEL 4
REMARK VINA RESULT:      -7.9      3.930      7.932
REMARK  10 active torsions:
REMARK  status: ('A' for Active; 'I' for Inactive)
REMARK    1  A    between atoms: C_3  and  C_4 
REMARK    2  A    between atoms: C_4  and  C_5 
REMARK       I    between atoms: C_5  and  N_6 
REMARK    3  A    between atoms: N_6  and  C_7 
REMARK    4  A    between atoms: C_7  and  C_8 
REMARK    5  A    between atoms: C_8  and  O_9 
REMARK    6  A    between atoms: C_15  and  N_16 
REMARK       I    between atoms: N_16  and  C_17 
REMARK    7  A    between atoms: C_17  and  C_18 
REMARK    8  A    between atoms: C_28  and  C_29 
REMARK    9  A    between atoms: C_29  and  O_30 
REMARK   10  A    between atoms: C_32  and  O_33 
ROOT
HETATM    1  C   UNL     1      -3.126   8.999 -30.960  1.00  0.00     0.016 C 
HETATM    2  C   UNL     1      -2.390   7.822 -30.240  1.00  0.00    -0.030 C 
HETATM    3  C   UNL     1      -3.417   6.631 -29.967  1.00  0.00     0.056 C 
HETATM    4  C   UNL     1      -3.598   5.790 -31.213  1.00  0.00     0.056 C 
HETATM    5  C   UNL     1      -2.844   5.935 -32.360  1.00  0.00     0.012 C 
HETATM    6  S   UNL     1      -3.349   4.832 -33.547  1.00  0.00    -0.055 SA
HETATM    7  C   UNL     1      -4.368   4.090 -32.391  1.00  0.00     0.173 C 
HETATM    8  N   UNL     1      -4.439   4.687 -31.221  1.00  0.00    -0.227 NA
HETATM    9  C   UNL     1      -1.709   6.874 -32.551  1.00  0.00     0.055 C 
HETATM   10  C   UNL     1      -1.188   7.363 -31.171  1.00  0.00     0.012 C 
HETATM   11  C   UNL     1      -0.094   6.425 -30.484  1.00  0.00     0.008 C 
HETATM   12  C   UNL     1       1.266   6.760 -31.166  1.00  0.00     0.020 C 
HETATM   13  C   UNL     1       0.059   6.765 -28.967  1.00  0.00     0.128 C 
HETATM   14  C   UNL     1      -0.365   8.192 -28.650  1.00  0.00     0.033 C 
HETATM   15  C   UNL     1      -1.861   8.394 -28.888  1.00  0.00     0.013 C 
ENDROOT
BRANCH   7  16
HETATM   16  N   UNL     1      -4.896   2.845 -32.616  1.00  0.00    -0.305 N 
HETATM   17  C   UNL     1      -4.338   1.674 -32.155  1.00  0.00     0.227 C 
HETATM   18  O   UNL     1      -3.134   1.488 -31.997  1.00  0.00    -0.273 OA
HETATM   19  H   UNL     1      -5.767   2.844 -33.134  1.00  0.00     0.171 HD
BRANCH  17  20
HETATM   20  C   UNL     1      -5.382   0.600 -31.827  1.00  0.00     0.078 C 
HETATM   21  C   UNL     1      -6.535   0.571 -32.842  1.00  0.00     0.014 C 
HETATM   22  C   UNL     1      -6.152  -0.026 -34.200  1.00  0.00     0.001 C 
HETATM   23  C   UNL     1      -5.462  -1.379 -34.065  1.00  0.00     0.000 C 
HETATM   24  C   UNL     1      -4.288  -1.322 -33.096  1.00  0.00     0.001 C 
HETATM   25  C   UNL     1      -4.715  -0.784 -31.730  1.00  0.00     0.014 C 
ENDBRANCH  17  20
ENDBRANCH   7  16
BRANCH   3  26
HETATM   26  C   UNL     1      -4.770   7.131 -29.418  1.00  0.00     0.114 C 
BRANCH  26  27
HETATM   27  C   UNL     1      -5.638   6.058 -28.790  1.00  0.00     0.218 C 
HETATM   28  N   UNL     1      -6.697   5.639 -29.549  1.00  0.00    -0.359 N 
HETATM   29  H   UNL     1      -6.662   5.819 -30.555  1.00  0.00     0.162 HD
HETATM   30  O   UNL     1      -5.434   5.652 -27.647  1.00  0.00    -0.274 OA
BRANCH  28  31
HETATM   31  C   UNL     1      -7.654   4.675 -29.049  1.00  0.00     0.148 C 
BRANCH  31  32
HETATM   32  C   UNL     1      -7.543   3.323 -29.757  1.00  0.00     0.186 C 
BRANCH  32  33
HETATM   33  O   UNL     1      -7.636   3.413 -31.187  1.00  0.00    -0.394 OA
HETATM   34  C   UNL     1      -8.967   3.216 -31.660  1.00  0.00     0.201 C 
ENDBRANCH  32  33
ENDBRANCH  31  32
ENDBRANCH  28  31
ENDBRANCH  26  27
ENDBRANCH   3  26
BRANCH  11  35
HETATM   35  C   UNL     1      -0.311   4.894 -30.625  1.00  0.00     0.176 C 
BRANCH  35  36
HETATM   36  O   UNL     1       0.653   4.139 -29.902  1.00  0.00    -0.400 OA
HETATM   37  H   UNL     1       1.038   3.502 -30.528  1.00  0.00     0.209 HD
ENDBRANCH  35  36
ENDBRANCH  11  35
BRANCH  13  38
HETATM   38  O   UNL     1      -0.715   5.876 -28.160  1.00  0.00    -0.395 OA
HETATM   39  H   UNL     1      -1.631   5.892 -28.492  1.00  0.00     0.210 HD
ENDBRANCH  13  38
TORSDOF 10
ENDMDL
MODEL 5
REMARK VINA RESULT:      -7.6      4.808      9.120
REMARK  10 active torsions:
REMARK  status: ('A' for Active; 'I' for Inactive)
REMARK    1  A    between atoms: C_3  and  C_4 
REMARK    2  A    between atoms: C_4  and  C_5 
REMARK       I    between atoms: C_5  and  N_6 
REMARK    3  A    between atoms: N_6  and  C_7 
REMARK    4  A    between atoms: C_7  and  C_8 
REMARK    5  A    between atoms: C_8  and  O_9 
REMARK    6  A    between atoms: C_15  and  N_16 
REMARK       I    between atoms: N_16  and  C_17 
REMARK    7  A    between atoms: C_17  and  C_18 
REMARK    8  A    between atoms: C_28  and  C_29 
REMARK    9  A    between atoms: C_29  and  O_30 
REMARK   10  A    between atoms: C_32  and  O_33 
ROOT
HETATM    1  C   UNL     1      -2.812   8.985 -31.409  1.00  0.00     0.016 C 
HETATM    2  C   UNL     1      -2.183   7.826 -30.569  1.00  0.00    -0.030 C 
HETATM    3  C   UNL     1      -3.287   6.708 -30.283  1.00  0.00     0.056 C 
HETATM    4  C   UNL     1      -3.438   5.793 -31.480  1.00  0.00     0.056 C 
HETATM    5  C   UNL     1      -2.611   5.822 -32.584  1.00  0.00     0.012 C 
HETATM    6  S   UNL     1      -3.103   4.666 -33.726  1.00  0.00    -0.055 SA
HETATM    7  C   UNL     1      -4.226   4.056 -32.589  1.00  0.00     0.173 C 
HETATM    8  N   UNL     1      -4.334   4.735 -31.468  1.00  0.00    -0.227 NA
HETATM    9  C   UNL     1      -1.418   6.688 -32.765  1.00  0.00     0.055 C 
HETATM   10  C   UNL     1      -0.954   7.245 -31.390  1.00  0.00     0.012 C 
HETATM   11  C   UNL     1       0.046   6.304 -30.575  1.00  0.00     0.008 C 
HETATM   12  C   UNL     1       1.460   6.524 -31.192  1.00  0.00     0.020 C 
HETATM   13  C   UNL     1       0.126   6.739 -29.078  1.00  0.00     0.128 C 
HETATM   14  C   UNL     1      -0.239   8.204 -28.883  1.00  0.00     0.033 C 
HETATM   15  C   UNL     1      -1.705   8.463 -29.227  1.00  0.00     0.013 C 
ENDROOT
BRANCH   7  16
HETATM   16  N   UNL     1      -4.805   2.826 -32.765  1.00  0.00    -0.305 N 
HETATM   17  C   UNL     1      -4.333   1.662 -32.203  1.00  0.00     0.227 C 
HETATM   18  O   UNL     1      -3.150   1.428 -31.968  1.00  0.00    -0.273 OA
HETATM   19  H   UNL     1      -5.647   2.833 -33.329  1.00  0.00     0.171 HD
BRANCH  17  20
HETATM   20  C   UNL     1      -5.446   0.663 -31.865  1.00  0.00     0.078 C 
HETATM   21  C   UNL     1      -6.611   0.720 -32.866  1.00  0.00     0.014 C 
HETATM   22  C   UNL     1      -6.287   0.105 -34.231  1.00  0.00     0.001 C 
HETATM   23  C   UNL     1      -5.694  -1.295 -34.110  1.00  0.00     0.000 C 
HETATM   24  C   UNL     1      -4.507  -1.326 -33.155  1.00  0.00     0.001 C 
HETATM   25  C   UNL     1      -4.877  -0.766 -31.782  1.00  0.00     0.014 C 
ENDBRANCH  17  20
ENDBRANCH   7  16
BRANCH   3  26
HETATM   26  C   UNL     1      -4.641   7.311 -29.854  1.00  0.00     0.114 C 
BRANCH  26  27
HETATM   27  C   UNL     1      -4.861   7.379 -28.355  1.00  0.00     0.218 C 
HETATM   28  N   UNL     1      -3.921   6.741 -27.593  1.00  0.00    -0.359 N 
HETATM   29  H   UNL     1      -3.013   6.546 -28.021  1.00  0.00     0.162 HD
HETATM   30  O   UNL     1      -5.859   7.914 -27.874  1.00  0.00    -0.274 OA
BRANCH  28  31
HETATM   31  C   UNL     1      -4.041   6.657 -26.153  1.00  0.00     0.148 C 
BRANCH  31  32
HETATM   32  C   UNL     1      -3.167   7.688 -25.434  1.00  0.00     0.186 C 
BRANCH  32  33
HETATM   33  O   UNL     1      -1.774   7.595 -25.772  1.00  0.00    -0.394 OA
HETATM   34  C   UNL     1      -1.049   8.773 -25.426  1.00  0.00     0.201 C 
ENDBRANCH  32  33
ENDBRANCH  31  32
ENDBRANCH  28  31
ENDBRANCH  26  27
ENDBRANCH   3  26
BRANCH  11  35
HETATM   35  C   UNL     1      -0.244   4.779 -30.629  1.00  0.00     0.176 C 
BRANCH  35  36
HETATM   36  O   UNL     1       0.692   4.021 -29.873  1.00  0.00    -0.400 OA
HETATM   37  H   UNL     1       1.569   4.406 -30.045  1.00  0.00     0.209 HD
ENDBRANCH  35  36
ENDBRANCH  11  35
BRANCH  13  38
HETATM   38  O   UNL     1      -0.740   5.947 -28.264  1.00  0.00    -0.395 OA
HETATM   39  H   UNL     1      -1.286   6.554 -27.732  1.00  0.00     0.210 HD
ENDBRANCH  13  38
TORSDOF 10
ENDMDL
MODEL 6
REMARK VINA RESULT:      -7.5      4.365      8.666
REMARK  10 active torsions:
REMARK  status: ('A' for Active; 'I' for Inactive)
REMARK    1  A    between atoms: C_3  and  C_4 
REMARK    2  A    between atoms: C_4  and  C_5 
REMARK       I    between atoms: C_5  and  N_6 
REMARK    3  A    between atoms: N_6  and  C_7 
REMARK    4  A    between atoms: C_7  and  C_8 
REMARK    5  A    between atoms: C_8  and  O_9 
REMARK    6  A    between atoms: C_15  and  N_16 
REMARK       I    between atoms: N_16  and  C_17 
REMARK    7  A    between atoms: C_17  and  C_18 
REMARK    8  A    between atoms: C_28  and  C_29 
REMARK    9  A    between atoms: C_29  and  O_30 
REMARK   10  A    between atoms: C_32  and  O_33 
ROOT
HETATM    1  C   UNL     1      -6.008   3.599 -34.011  1.00  0.00     0.016 C 
HETATM    2  C   UNL     1      -6.065   3.417 -32.459  1.00  0.00    -0.030 C 
HETATM    3  C   UNL     1      -4.584   3.316 -31.872  1.00  0.00     0.056 C 
HETATM    4  C   UNL     1      -3.980   4.697 -31.715  1.00  0.00     0.056 C 
HETATM    5  C   UNL     1      -4.683   5.871 -31.888  1.00  0.00     0.012 C 
HETATM    6  S   UNL     1      -3.669   7.212 -31.649  1.00  0.00    -0.055 SA
HETATM    7  C   UNL     1      -2.438   6.154 -31.111  1.00  0.00     0.173 C 
HETATM    8  N   UNL     1      -2.699   4.869 -31.214  1.00  0.00    -0.227 NA
HETATM    9  C   UNL     1      -6.133   5.991 -32.190  1.00  0.00     0.055 C 
HETATM   10  C   UNL     1      -6.855   4.657 -31.856  1.00  0.00     0.012 C 
HETATM   11  C   UNL     1      -7.342   4.504 -30.343  1.00  0.00     0.008 C 
HETATM   12  C   UNL     1      -8.672   5.306 -30.224  1.00  0.00     0.020 C 
HETATM   13  C   UNL     1      -7.673   3.015 -30.011  1.00  0.00     0.128 C 
HETATM   14  C   UNL     1      -8.031   2.212 -31.254  1.00  0.00     0.033 C 
HETATM   15  C   UNL     1      -6.837   2.086 -32.198  1.00  0.00     0.013 C 
ENDROOT
BRANCH   7  16
HETATM   16  N   UNL     1      -1.350   6.632 -30.426  1.00  0.00    -0.305 N 
HETATM   17  C   UNL     1      -1.324   6.840 -29.065  1.00  0.00     0.227 C 
HETATM   18  O   UNL     1      -2.297   7.163 -28.388  1.00  0.00    -0.273 OA
HETATM   19  H   UNL     1      -0.532   6.800 -30.998  1.00  0.00     0.171 HD
BRANCH  17  20
HETATM   20  C   UNL     1       0.059   6.605 -28.447  1.00  0.00     0.078 C 
HETATM   21  C   UNL     1       0.985   7.822 -28.600  1.00  0.00     0.014 C 
HETATM   22  C   UNL     1       0.626   8.993 -27.681  1.00  0.00     0.001 C 
HETATM   23  C   UNL     1       0.467   8.562 -26.227  1.00  0.00     0.000 C 
HETATM   24  C   UNL     1      -0.495   7.389 -26.086  1.00  0.00     0.001 C 
HETATM   25  C   UNL     1      -0.075   6.211 -26.965  1.00  0.00     0.014 C 
ENDBRANCH  17  20
ENDBRANCH   7  16
BRANCH   3  26
HETATM   26  C   UNL     1      -3.677   2.393 -32.713  1.00  0.00     0.114 C 
BRANCH  26  27
HETATM   27  C   UNL     1      -3.474   1.005 -32.138  1.00  0.00     0.218 C 
HETATM   28  N   UNL     1      -4.011  -0.020 -32.869  1.00  0.00    -0.359 N 
HETATM   29  H   UNL     1      -4.218   0.158 -33.855  1.00  0.00     0.162 HD
HETATM   30  O   UNL     1      -2.927   0.833 -31.050  1.00  0.00    -0.274 OA
BRANCH  28  31
HETATM   31  C   UNL     1      -3.961  -1.390 -32.405  1.00  0.00     0.148 C 
BRANCH  31  32
HETATM   32  C   UNL     1      -4.250  -2.394 -33.524  1.00  0.00     0.186 C 
BRANCH  32  33
HETATM   33  O   UNL     1      -5.554  -2.248 -34.106  1.00  0.00    -0.394 OA
HETATM   34  C   UNL     1      -5.952  -3.397 -34.849  1.00  0.00     0.201 C 
ENDBRANCH  32  33
ENDBRANCH  31  32
ENDBRANCH  28  31
ENDBRANCH  26  27
ENDBRANCH   3  26
BRANCH  11  35
HETATM   35  C   UNL     1      -6.380   5.049 -29.251  1.00  0.00     0.176 C 
BRANCH  35  36
HETATM   36  O   UNL     1      -6.919   4.925 -27.941  1.00  0.00    -0.400 OA
HETATM   37  H   UNL     1      -7.646   5.569 -27.875  1.00  0.00     0.209 HD
ENDBRANCH  35  36
ENDBRANCH  11  35
BRANCH  13  38
HETATM   38  O   UNL     1      -6.573   2.374 -29.364  1.00  0.00    -0.395 OA
HETATM   39  H   UNL     1      -5.889   2.204 -30.037  1.00  0.00     0.210 HD
ENDBRANCH  13  38
TORSDOF 10
ENDMDL
MODEL 7
REMARK VINA RESULT:      -7.4      3.093      8.499
REMARK  10 active torsions:
REMARK  status: ('A' for Active; 'I' for Inactive)
REMARK    1  A    between atoms: C_3  and  C_4 
REMARK    2  A    between atoms: C_4  and  C_5 
REMARK       I    between atoms: C_5  and  N_6 
REMARK    3  A    between atoms: N_6  and  C_7 
REMARK    4  A    between atoms: C_7  and  C_8 
REMARK    5  A    between atoms: C_8  and  O_9 
REMARK    6  A    between atoms: C_15  and  N_16 
REMARK       I    between atoms: N_16  and  C_17 
REMARK    7  A    between atoms: C_17  and  C_18 
REMARK    8  A    between atoms: C_28  and  C_29 
REMARK    9  A    between atoms: C_29  and  O_30 
REMARK   10  A    between atoms: C_32  and  O_33 
ROOT
HETATM    1  C   UNL     1      -9.392   3.052 -30.530  1.00  0.00     0.016 C 
HETATM    2  C   UNL     1      -8.874   2.506 -31.901  1.00  0.00    -0.030 C 
HETATM    3  C   UNL     1      -8.377   3.719 -32.812  1.00  0.00     0.056 C 
HETATM    4  C   UNL     1      -6.975   4.138 -32.419  1.00  0.00     0.056 C 
HETATM    5  C   UNL     1      -6.185   3.448 -31.523  1.00  0.00     0.012 C 
HETATM    6  S   UNL     1      -4.691   4.231 -31.322  1.00  0.00    -0.055 SA
HETATM    7  C   UNL     1      -5.103   5.292 -32.598  1.00  0.00     0.173 C 
HETATM    8  N   UNL     1      -6.323   5.171 -33.076  1.00  0.00    -0.227 NA
HETATM    9  C   UNL     1      -6.532   2.171 -30.848  1.00  0.00     0.055 C 
HETATM   10  C   UNL     1      -7.702   1.476 -31.599  1.00  0.00     0.012 C 
HETATM   11  C   UNL     1      -7.270   0.536 -32.815  1.00  0.00     0.008 C 
HETATM   12  C   UNL     1      -6.811  -0.814 -32.187  1.00  0.00     0.020 C 
HETATM   13  C   UNL     1      -8.489   0.222 -33.737  1.00  0.00     0.128 C 
HETATM   14  C   UNL     1      -9.817   0.346 -33.002  1.00  0.00     0.033 C 
HETATM   15  C   UNL     1     -10.084   1.789 -32.576  1.00  0.00     0.013 C 
ENDROOT
BRANCH   7  16
HETATM   16  N   UNL     1      -4.145   6.060 -33.209  1.00  0.00    -0.305 N 
HETATM   17  C   UNL     1      -3.411   7.033 -32.568  1.00  0.00     0.227 C 
HETATM   18  O   UNL     1      -3.820   7.714 -31.631  1.00  0.00    -0.273 OA
HETATM   19  H   UNL     1      -3.986   5.839 -34.185  1.00  0.00     0.171 HD
BRANCH  17  20
HETATM   20  C   UNL     1      -1.992   7.181 -33.128  1.00  0.00     0.078 C 
HETATM   21  C   UNL     1      -1.042   7.884 -32.146  1.00  0.00     0.014 C 
HETATM   22  C   UNL     1      -0.626   7.015 -30.955  1.00  0.00     0.001 C 
HETATM   23  C   UNL     1      -0.106   5.648 -31.389  1.00  0.00     0.000 C 
HETATM   24  C   UNL     1      -1.082   4.941 -32.321  1.00  0.00     0.001 C 
HETATM   25  C   UNL     1      -1.428   5.807 -33.532  1.00  0.00     0.014 C 
ENDBRANCH  17  20
ENDBRANCH   7  16
BRANCH   3  26
HETATM   26  C   UNL     1      -9.353   4.914 -32.789  1.00  0.00     0.114 C 
BRANCH  26  27
HETATM   27  C   UNL     1     -10.055   5.186 -34.106  1.00  0.00     0.218 C 
HETATM   28  N   UNL     1     -11.404   4.956 -34.112  1.00  0.00    -0.359 N 
HETATM   29  H   UNL     1     -11.886   4.930 -33.211  1.00  0.00     0.162 HD
HETATM   30  O   UNL     1      -9.431   5.521 -35.111  1.00  0.00    -0.274 OA
BRANCH  28  31
HETATM   31  C   UNL     1     -12.192   5.099 -35.318  1.00  0.00     0.148 C 
BRANCH  31  32
HETATM   32  C   UNL     1     -12.468   3.756 -35.997  1.00  0.00     0.186 C 
BRANCH  32  33
HETATM   33  O   UNL     1     -13.120   2.803 -35.143  1.00  0.00    -0.394 OA
HETATM   34  C   UNL     1     -12.539   1.504 -35.232  1.00  0.00     0.201 C 
ENDBRANCH  32  33
ENDBRANCH  31  32
ENDBRANCH  28  31
ENDBRANCH  26  27
ENDBRANCH   3  26
BRANCH  11  35
HETATM   35  C   UNL     1      -6.102   1.049 -33.701  1.00  0.00     0.176 C 
BRANCH  35  36
HETATM   36  O   UNL     1      -5.049   0.099 -33.815  1.00  0.00    -0.400 OA
HETATM   37  H   UNL     1      -5.095  -0.264 -34.717  1.00  0.00     0.209 HD
ENDBRANCH  35  36
ENDBRANCH  11  35
BRANCH  13  38
HETATM   38  O   UNL     1      -8.518   1.095 -34.868  1.00  0.00    -0.395 OA
HETATM   39  H   UNL     1      -9.316   1.649 -34.796  1.00  0.00     0.210 HD
ENDBRANCH  13  38
TORSDOF 10
ENDMDL
MODEL 8
REMARK VINA RESULT:      -7.4      3.719      9.366
REMARK  10 active torsions:
REMARK  status: ('A' for Active; 'I' for Inactive)
REMARK    1  A    between atoms: C_3  and  C_4 
REMARK    2  A    between atoms: C_4  and  C_5 
REMARK       I    between atoms: C_5  and  N_6 
REMARK    3  A    between atoms: N_6  and  C_7 
REMARK    4  A    between atoms: C_7  and  C_8 
REMARK    5  A    between atoms: C_8  and  O_9 
REMARK    6  A    between atoms: C_15  and  N_16 
REMARK       I    between atoms: N_16  and  C_17 
REMARK    7  A    between atoms: C_17  and  C_18 
REMARK    8  A    between atoms: C_28  and  C_29 
REMARK    9  A    between atoms: C_29  and  O_30 
REMARK   10  A    between atoms: C_32  and  O_33 
ROOT
HETATM    1  C   UNL     1     -10.674   4.466 -31.001  1.00  0.00     0.016 C 
HETATM    2  C   UNL     1     -10.462   3.755 -32.378  1.00  0.00    -0.030 C 
HETATM    3  C   UNL     1      -9.605   4.695 -33.343  1.00  0.00     0.056 C 
HETATM    4  C   UNL     1      -8.129   4.577 -33.025  1.00  0.00     0.056 C 
HETATM    5  C   UNL     1      -7.599   3.654 -32.146  1.00  0.00     0.012 C 
HETATM    6  S   UNL     1      -5.915   3.839 -32.034  1.00  0.00    -0.055 SA
HETATM    7  C   UNL     1      -5.978   4.965 -33.320  1.00  0.00     0.173 C 
HETATM    8  N   UNL     1      -7.180   5.294 -33.739  1.00  0.00    -0.227 NA
HETATM    9  C   UNL     1      -8.353   2.599 -31.422  1.00  0.00     0.055 C 
HETATM   10  C   UNL     1      -9.732   2.372 -32.100  1.00  0.00     0.012 C 
HETATM   11  C   UNL     1      -9.736   1.328 -33.307  1.00  0.00     0.008 C 
HETATM   12  C   UNL     1      -9.768  -0.091 -32.664  1.00  0.00     0.020 C 
HETATM   13  C   UNL     1     -11.032   1.471 -34.166  1.00  0.00     0.128 C 
HETATM   14  C   UNL     1     -12.183   2.079 -33.376  1.00  0.00     0.033 C 
HETATM   15  C   UNL     1     -11.884   3.523 -32.978  1.00  0.00     0.013 C 
ENDROOT
BRANCH   7  16
HETATM   16  N   UNL     1      -4.839   5.325 -33.994  1.00  0.00    -0.305 N 
HETATM   17  C   UNL     1      -3.829   6.089 -33.452  1.00  0.00     0.227 C 
HETATM   18  O   UNL     1      -3.992   6.965 -32.606  1.00  0.00    -0.273 OA
HETATM   19  H   UNL     1      -4.771   4.957 -34.935  1.00  0.00     0.171 HD
BRANCH  17  20
HETATM   20  C   UNL     1      -2.443   5.726 -33.996  1.00  0.00     0.078 C 
HETATM   21  C   UNL     1      -1.443   6.888 -33.882  1.00  0.00     0.014 C 
HETATM   22  C   UNL     1      -0.961   7.153 -32.453  1.00  0.00     0.001 C 
HETATM   23  C   UNL     1      -0.461   5.887 -31.766  1.00  0.00     0.000 C 
HETATM   24  C   UNL     1      -1.484   4.760 -31.841  1.00  0.00     0.001 C 
HETATM   25  C   UNL     1      -1.898   4.474 -33.285  1.00  0.00     0.014 C 
ENDBRANCH  17  20
ENDBRANCH   7  16
BRANCH   3  26
HETATM   26  C   UNL     1     -10.078   6.163 -33.310  1.00  0.00     0.114 C 
BRANCH  26  27
HETATM   27  C   UNL     1     -10.265   6.802 -34.673  1.00  0.00     0.218 C 
HETATM   28  N   UNL     1     -10.834   8.046 -34.667  1.00  0.00    -0.359 N 
HETATM   29  H   UNL     1     -10.803   8.578 -33.794  1.00  0.00     0.162 HD
HETATM   30  O   UNL     1      -9.987   6.201 -35.709  1.00  0.00    -0.274 OA
BRANCH  28  31
HETATM   31  C   UNL     1     -11.143   8.745 -35.896  1.00  0.00     0.148 C 
BRANCH  31  32
HETATM   32  C   UNL     1     -12.631   8.673 -36.249  1.00  0.00     0.186 C 
BRANCH  32  33
HETATM   33  O   UNL     1     -13.003   7.461 -36.923  1.00  0.00    -0.394 OA
HETATM   34  C   UNL     1     -13.840   6.627 -36.125  1.00  0.00     0.201 C 
ENDBRANCH  32  33
ENDBRANCH  31  32
ENDBRANCH  28  31
ENDBRANCH  26  27
ENDBRANCH   3  26
BRANCH  11  35
HETATM   35  C   UNL     1      -8.509   1.369 -34.259  1.00  0.00     0.176 C 
BRANCH  35  36
HETATM   36  O   UNL     1      -8.598   0.409 -35.304  1.00  0.00    -0.400 OA
HETATM   37  H   UNL     1      -7.812   0.530 -35.865  1.00  0.00     0.209 HD
ENDBRANCH  35  36
ENDBRANCH  11  35
BRANCH  13  38
HETATM   38  O   UNL     1     -10.799   2.284 -35.318  1.00  0.00    -0.395 OA
HETATM   39  H   UNL     1     -10.259   1.767 -35.942  1.00  0.00     0.210 HD
ENDBRANCH  13  38
TORSDOF 10
ENDMDL
MODEL 9
REMARK VINA RESULT:      -7.3      5.035      9.102
REMARK  10 active torsions:
REMARK  status: ('A' for Active; 'I' for Inactive)
REMARK    1  A    between atoms: C_3  and  C_4 
REMARK    2  A    between atoms: C_4  and  C_5 
REMARK       I    between atoms: C_5  and  N_6 
REMARK    3  A    between atoms: N_6  and  C_7 
REMARK    4  A    between atoms: C_7  and  C_8 
REMARK    5  A    between atoms: C_8  and  O_9 
REMARK    6  A    between atoms: C_15  and  N_16 
REMARK       I    between atoms: N_16  and  C_17 
REMARK    7  A    between atoms: C_17  and  C_18 
REMARK    8  A    between atoms: C_28  and  C_29 
REMARK    9  A    between atoms: C_29  and  O_30 
REMARK   10  A    between atoms: C_32  and  O_33 
ROOT
HETATM    1  C   UNL     1      -3.071   9.069 -30.854  1.00  0.00     0.016 C 
HETATM    2  C   UNL     1      -2.351   7.872 -30.152  1.00  0.00    -0.030 C 
HETATM    3  C   UNL     1      -3.414   6.733 -29.802  1.00  0.00     0.056 C 
HETATM    4  C   UNL     1      -3.699   5.881 -31.021  1.00  0.00     0.056 C 
HETATM    5  C   UNL     1      -3.002   5.973 -32.208  1.00  0.00     0.012 C 
HETATM    6  S   UNL     1      -3.620   4.875 -33.347  1.00  0.00    -0.055 SA
HETATM    7  C   UNL     1      -4.607   4.200 -32.123  1.00  0.00     0.173 C 
HETATM    8  N   UNL     1      -4.588   4.818 -30.963  1.00  0.00    -0.227 NA
HETATM    9  C   UNL     1      -1.838   6.856 -32.477  1.00  0.00     0.055 C 
HETATM   10  C   UNL     1      -1.222   7.343 -31.137  1.00  0.00     0.012 C 
HETATM   11  C   UNL     1      -0.135   6.368 -30.491  1.00  0.00     0.008 C 
HETATM   12  C   UNL     1       1.199   6.628 -31.252  1.00  0.00     0.020 C 
HETATM   13  C   UNL     1       0.114   6.724 -28.992  1.00  0.00     0.128 C 
HETATM   14  C   UNL     1      -0.227   8.175 -28.680  1.00  0.00     0.033 C 
HETATM   15  C   UNL     1      -1.723   8.441 -28.841  1.00  0.00     0.013 C 
ENDROOT
BRANCH   7  16
HETATM   16  N   UNL     1      -5.202   2.977 -32.297  1.00  0.00    -0.305 N 
HETATM   17  C   UNL     1      -6.029   2.663 -33.353  1.00  0.00     0.227 C 
HETATM   18  O   UNL     1      -6.763   3.462 -33.927  1.00  0.00    -0.273 OA
HETATM   19  H   UNL     1      -4.964   2.287 -31.594  1.00  0.00     0.171 HD
BRANCH  17  20
HETATM   20  C   UNL     1      -5.933   1.192 -33.774  1.00  0.00     0.078 C 
HETATM   21  C   UNL     1      -6.144   0.227 -32.596  1.00  0.00     0.014 C 
HETATM   22  C   UNL     1      -7.598   0.136 -32.123  1.00  0.00     0.001 C 
HETATM   23  C   UNL     1      -8.566  -0.127 -33.272  1.00  0.00     0.000 C 
HETATM   24  C   UNL     1      -8.380   0.869 -34.409  1.00  0.00     0.001 C 
HETATM   25  C   UNL     1      -6.934   0.891 -34.904  1.00  0.00     0.014 C 
ENDBRANCH  17  20
ENDBRANCH   7  16
BRANCH   3  26
HETATM   26  C   UNL     1      -4.711   7.304 -29.191  1.00  0.00     0.114 C 
BRANCH  26  27
HETATM   27  C   UNL     1      -4.841   7.124 -27.691  1.00  0.00     0.218 C 
HETATM   28  N   UNL     1      -4.748   8.270 -26.950  1.00  0.00    -0.359 N 
HETATM   29  H   UNL     1      -4.913   9.159 -27.428  1.00  0.00     0.162 HD
HETATM   30  O   UNL     1      -4.950   6.008 -27.184  1.00  0.00    -0.274 OA
BRANCH  28  31
HETATM   31  C   UNL     1      -4.778   8.243 -25.504  1.00  0.00     0.148 C 
BRANCH  31  32
HETATM   32  C   UNL     1      -4.914   9.642 -24.897  1.00  0.00     0.186 C 
BRANCH  32  33
HETATM   33  O   UNL     1      -6.269  10.007 -24.595  1.00  0.00    -0.394 OA
HETATM   34  C   UNL     1      -6.412  11.402 -24.335  1.00  0.00     0.201 C 
ENDBRANCH  32  33
ENDBRANCH  31  32
ENDBRANCH  28  31
ENDBRANCH  26  27
ENDBRANCH   3  26
BRANCH  11  35
HETATM   35  C   UNL     1      -0.429   4.845 -30.592  1.00  0.00     0.176 C 
BRANCH  35  36
HETATM   36  O   UNL     1       0.571   4.056 -29.959  1.00  0.00    -0.400 OA
HETATM   37  H   UNL     1       0.113   3.309 -29.536  1.00  0.00     0.209 HD
ENDBRANCH  35  36
ENDBRANCH  11  35
BRANCH  13  38
HETATM   38  O   UNL     1      -0.654   5.885 -28.128  1.00  0.00    -0.395 OA
HETATM   39  H   UNL     1      -1.416   5.553 -28.636  1.00  0.00     0.210 HD
ENDBRANCH  13  38
TORSDOF 10
ENDMDL
MODEL 10
REMARK VINA RESULT:      -7.1      4.374      8.758
REMARK  10 active torsions:
REMARK  status: ('A' for Active; 'I' for Inactive)
REMARK    1  A    between atoms: C_3  and  C_4 
REMARK    2  A    between atoms: C_4  and  C_5 
REMARK       I    between atoms: C_5  and  N_6 
REMARK    3  A    between atoms: N_6  and  C_7 
REMARK    4  A    between atoms: C_7  and  C_8 
REMARK    5  A    between atoms: C_8  and  O_9 
REMARK    6  A    between atoms: C_15  and  N_16 
REMARK       I    between atoms: N_16  and  C_17 
REMARK    7  A    between atoms: C_17  and  C_18 
REMARK    8  A    between atoms: C_28  and  C_29 
REMARK    9  A    between atoms: C_29  and  O_30 
REMARK   10  A    between atoms: C_32  and  O_33 
ROOT
HETATM    1  C   UNL     1      -8.047   3.867 -33.539  1.00  0.00     0.016 C 
HETATM    2  C   UNL     1      -6.827   3.004 -33.079  1.00  0.00    -0.030 C 
HETATM    3  C   UNL     1      -5.598   3.958 -32.718  1.00  0.00     0.056 C 
HETATM    4  C   UNL     1      -5.758   4.526 -31.323  1.00  0.00     0.056 C 
HETATM    5  C   UNL     1      -6.736   4.128 -30.435  1.00  0.00     0.012 C 
HETATM    6  S   UNL     1      -6.611   5.000 -28.983  1.00  0.00    -0.055 SA
HETATM    7  C   UNL     1      -5.141   5.672 -29.542  1.00  0.00     0.173 C 
HETATM    8  N   UNL     1      -4.809   5.378 -30.781  1.00  0.00    -0.227 NA
HETATM    9  C   UNL     1      -7.742   3.058 -30.657  1.00  0.00     0.055 C 
HETATM   10  C   UNL     1      -7.290   2.141 -31.828  1.00  0.00     0.012 C 
HETATM   11  C   UNL     1      -6.327   0.936 -31.418  1.00  0.00     0.008 C 
HETATM   12  C   UNL     1      -7.242  -0.182 -30.836  1.00  0.00     0.020 C 
HETATM   13  C   UNL     1      -5.615   0.339 -32.673  1.00  0.00     0.128 C 
HETATM   14  C   UNL     1      -6.397   0.593 -33.955  1.00  0.00     0.033 C 
HETATM   15  C   UNL     1      -6.457   2.084 -34.283  1.00  0.00     0.013 C 
ENDROOT
BRANCH   7  16
HETATM   16  N   UNL     1      -4.279   6.295 -28.676  1.00  0.00    -0.305 N 
HETATM   17  C   UNL     1      -4.394   7.610 -28.285  1.00  0.00     0.227 C 
HETATM   18  O   UNL     1      -4.853   8.510 -28.985  1.00  0.00    -0.273 OA
HETATM   19  H   UNL     1      -3.548   5.699 -28.307  1.00  0.00     0.171 HD
BRANCH  17  20
HETATM   20  C   UNL     1      -3.905   7.857 -26.854  1.00  0.00     0.078 C 
HETATM   21  C   UNL     1      -2.846   6.834 -26.410  1.00  0.00     0.014 C 
HETATM   22  C   UNL     1      -1.474   7.042 -27.058  1.00  0.00     0.001 C 
HETATM   23  C   UNL     1      -0.983   8.480 -26.929  1.00  0.00     0.000 C 
HETATM   24  C   UNL     1      -2.022   9.479 -27.421  1.00  0.00     0.001 C 
HETATM   25  C   UNL     1      -3.363   9.290 -26.711  1.00  0.00     0.014 C 
ENDBRANCH  17  20
ENDBRANCH   7  16
BRANCH   3  26
HETATM   26  C   UNL     1      -5.390   5.073 -33.764  1.00  0.00     0.114 C 
BRANCH  26  27
HETATM   27  C   UNL     1      -3.966   5.216 -34.268  1.00  0.00     0.218 C 
HETATM   28  N   UNL     1      -2.989   4.998 -33.336  1.00  0.00    -0.359 N 
HETATM   29  H   UNL     1      -3.240   4.471 -32.497  1.00  0.00     0.162 HD
HETATM   30  O   UNL     1      -3.723   5.573 -35.419  1.00  0.00    -0.274 OA
BRANCH  28  31
HETATM   31  C   UNL     1      -1.587   5.173 -33.652  1.00  0.00     0.148 C 
BRANCH  31  32
HETATM   32  C   UNL     1      -0.763   5.595 -32.433  1.00  0.00     0.186 C 
BRANCH  32  33
HETATM   33  O   UNL     1      -0.836   4.666 -31.341  1.00  0.00    -0.394 OA
HETATM   34  C   UNL     1      -0.032   5.064 -30.232  1.00  0.00     0.201 C 
ENDBRANCH  32  33
ENDBRANCH  31  32
ENDBRANCH  28  31
ENDBRANCH  26  27
ENDBRANCH   3  26
BRANCH  11  35
HETATM   35  C   UNL     1      -5.249   1.249 -30.344  1.00  0.00     0.176 C 
BRANCH  35  36
HETATM   36  O   UNL     1      -4.317   0.187 -30.184  1.00  0.00    -0.400 OA
HETATM   37  H   UNL     1      -3.771   0.407 -29.409  1.00  0.00     0.209 HD
ENDBRANCH  35  36
ENDBRANCH  11  35
BRANCH  13  38
HETATM   38  O   UNL     1      -4.304   0.884 -32.830  1.00  0.00    -0.395 OA
HETATM   39  H   UNL     1      -4.110   0.922 -33.784  1.00  0.00     0.210 HD
ENDBRANCH  13  38
TORSDOF 10
ENDMDL
