MODEL 1
REMARK VINA RESULT:      -8.4      0.000      0.000
REMARK  8 active torsions:
REMARK  status: ('A' for Active; 'I' for Inactive)
REMARK    1  A    between atoms: C_4  and  O_5 
REMARK    2  A    between atoms: O_5  and  C_6 
REMARK    3  A    between atoms: C_6  and  C_7 
REMARK       I    between atoms: C_7  and  N_8 
REMARK    4  A    between atoms: N_8  and  N_9 
REMARK       I    between atoms: N_9  and  C_10 
REMARK    5  A    between atoms: C_10  and  C_11 
REMARK    6  A    between atoms: C_11  and  C_12 
REMARK    7  A    between atoms: C_12  and  N_13 
REMARK    8  A    between atoms: C_12  and  C_17 
REMARK       I    between atoms: N_13  and  C_14 
REMARK       I    between atoms: C_14  and  N_15 
ROOT
HETATM    1  N   UNL     1      -4.472   4.023 -33.378  1.00  0.00    -0.267 N 
HETATM    2  C   UNL     1      -5.760   4.011 -33.878  1.00  0.00     0.238 C 
HETATM    3  O   UNL     1      -6.380   5.031 -34.181  1.00  0.00    -0.272 OA
HETATM    4  H   UNL     1      -3.870   3.206 -33.422  1.00  0.00     0.190 HD
ENDROOT
BRANCH   2   5
HETATM    5  C   UNL     1      -6.361   2.631 -34.023  1.00  0.00     0.134 C 
BRANCH   5   6
HETATM    6  C   UNL     1      -5.719   1.612 -33.063  1.00  0.00     0.129 C 
BRANCH   6   7
HETATM    7  N   UNL     1      -6.410   1.594 -31.779  1.00  0.00    -0.339 N 
HETATM    8  C   UNL     1      -5.828   2.079 -30.649  1.00  0.00     0.292 C 
HETATM    9  N   UNL     1      -6.625   1.944 -29.561  1.00  0.00    -0.254 NA
HETATM   10  O   UNL     1      -4.720   2.588 -30.575  1.00  0.00    -0.254 OA
HETATM   11  H   UNL     1      -7.608   2.120 -29.709  1.00  0.00     0.128 HD
HETATM   12  H   UNL     1      -6.244   2.405 -28.743  1.00  0.00     0.128 HD
HETATM   13  H   UNL     1      -7.143   0.912 -31.637  1.00  0.00     0.164 HD
ENDBRANCH   6   7
BRANCH   6  14
HETATM   14  C   UNL     1      -5.682   0.188 -33.616  1.00  0.00    -0.013 A 
HETATM   15  C   UNL     1      -4.574  -0.658 -33.399  1.00  0.00     0.042 A 
HETATM   16 CL   UNL     1      -3.172  -0.142 -32.528  1.00  0.00    -0.084 Cl
HETATM   17  C   UNL     1      -4.571  -1.976 -33.870  1.00  0.00     0.024 A 
HETATM   18  C   UNL     1      -5.669  -2.481 -34.560  1.00  0.00     0.002 A 
HETATM   19  C   UNL     1      -6.780  -1.671 -34.771  1.00  0.00     0.001 A 
HETATM   20  C   UNL     1      -6.790  -0.355 -34.298  1.00  0.00     0.011 A 
ENDBRANCH   6  14
ENDBRANCH   5   6
ENDBRANCH   2   5
BRANCH   1  21
HETATM   21  N   UNL     1      -3.820   5.259 -33.285  1.00  0.00    -0.266 N 
HETATM   22  C   UNL     1      -2.717   5.472 -34.093  1.00  0.00     0.260 C 
HETATM   23  O   UNL     1      -2.162   4.571 -34.723  1.00  0.00    -0.269 OA
HETATM   24  H   UNL     1      -4.400   6.038 -32.976  1.00  0.00     0.190 HD
BRANCH  22  25
HETATM   25  C   UNL     1      -2.261   6.923 -34.136  1.00  0.00     0.280 C 
BRANCH  25  26
HETATM   26  O   UNL     1      -0.914   6.982 -33.675  1.00  0.00    -0.342 OA
BRANCH  26  27
HETATM   27  C   UNL     1      -0.756   6.859 -32.322  1.00  0.00     0.069 A 
HETATM   28  C   UNL     1      -0.000   5.867 -31.694  1.00  0.00     0.043 A 
HETATM   29  C   UNL     1       0.111   5.839 -30.295  1.00  0.00    -0.059 A 
HETATM   30  C   UNL     1       0.953   4.800 -29.614  1.00  0.00     0.048 C 
HETATM   31  C   UNL     1      -0.524   6.831 -29.537  1.00  0.00     0.007 A 
HETATM   32  C   UNL     1      -1.265   7.831 -30.166  1.00  0.00     0.003 A 
HETATM   33  C   UNL     1      -1.373   7.848 -31.555  1.00  0.00     0.037 A 
ENDBRANCH  26  27
ENDBRANCH  25  26
ENDBRANCH  22  25
ENDBRANCH   1  21
TORSDOF 8
ENDMDL
MODEL 2
REMARK VINA RESULT:      -8.2      1.297      1.773
REMARK  8 active torsions:
REMARK  status: ('A' for Active; 'I' for Inactive)
REMARK    1  A    between atoms: C_4  and  O_5 
REMARK    2  A    between atoms: O_5  and  C_6 
REMARK    3  A    between atoms: C_6  and  C_7 
REMARK       I    between atoms: C_7  and  N_8 
REMARK    4  A    between atoms: N_8  and  N_9 
REMARK       I    between atoms: N_9  and  C_10 
REMARK    5  A    between atoms: C_10  and  C_11 
REMARK    6  A    between atoms: C_11  and  C_12 
REMARK    7  A    between atoms: C_12  and  N_13 
REMARK    8  A    between atoms: C_12  and  C_17 
REMARK       I    between atoms: N_13  and  C_14 
REMARK       I    between atoms: C_14  and  N_15 
ROOT
HETATM    1  N   UNL     1      -4.970   3.562 -32.769  1.00  0.00    -0.267 N 
HETATM    2  C   UNL     1      -5.855   3.685 -33.823  1.00  0.00     0.238 C 
HETATM    3  O   UNL     1      -6.115   4.757 -34.370  1.00  0.00    -0.272 OA
HETATM    4  H   UNL     1      -4.535   2.676 -32.533  1.00  0.00     0.190 HD
ENDROOT
BRANCH   2   5
HETATM    5  C   UNL     1      -6.494   2.385 -34.258  1.00  0.00     0.134 C 
BRANCH   5   6
HETATM    6  C   UNL     1      -6.464   1.321 -33.145  1.00  0.00     0.129 C 
BRANCH   6   7
HETATM    7  N   UNL     1      -7.754   1.228 -32.472  1.00  0.00    -0.339 N 
HETATM    8  C   UNL     1      -8.003   1.891 -31.311  1.00  0.00     0.292 C 
HETATM    9  N   UNL     1      -9.250   1.650 -30.837  1.00  0.00    -0.254 NA
HETATM   10  O   UNL     1      -7.226   2.631 -30.727  1.00  0.00    -0.254 OA
HETATM   11  H   UNL     1      -9.983   1.601 -31.529  1.00  0.00     0.128 HD
HETATM   12  H   UNL     1      -9.478   2.229 -30.038  1.00  0.00     0.128 HD
HETATM   13  H   UNL     1      -8.328   0.413 -32.643  1.00  0.00     0.164 HD
ENDBRANCH   6   7
BRANCH   6  14
HETATM   14  C   UNL     1      -6.070  -0.072 -33.639  1.00  0.00    -0.013 A 
HETATM   15  C   UNL     1      -4.769  -0.580 -33.447  1.00  0.00     0.042 A 
HETATM   16 CL   UNL     1      -3.520   0.335 -32.677  1.00  0.00    -0.084 Cl
HETATM   17  C   UNL     1      -4.434  -1.875 -33.862  1.00  0.00     0.024 A 
HETATM   18  C   UNL     1      -5.386  -2.690 -34.467  1.00  0.00     0.002 A 
HETATM   19  C   UNL     1      -6.680  -2.216 -34.651  1.00  0.00     0.001 A 
HETATM   20  C   UNL     1      -7.021  -0.925 -34.235  1.00  0.00     0.011 A 
ENDBRANCH   6  14
ENDBRANCH   5   6
ENDBRANCH   2   5
BRANCH   1  21
HETATM   21  N   UNL     1      -4.282   4.711 -32.359  1.00  0.00    -0.266 N 
HETATM   22  C   UNL     1      -2.979   4.874 -32.792  1.00  0.00     0.260 C 
HETATM   23  O   UNL     1      -2.334   3.977 -33.335  1.00  0.00    -0.269 OA
HETATM   24  H   UNL     1      -4.866   5.517 -32.142  1.00  0.00     0.190 HD
BRANCH  22  25
HETATM   25  C   UNL     1      -2.420   6.268 -32.543  1.00  0.00     0.280 C 
BRANCH  25  26
HETATM   26  O   UNL     1      -0.999   6.180 -32.503  1.00  0.00    -0.342 OA
BRANCH  26  27
HETATM   27  C   UNL     1      -0.448   6.226 -31.253  1.00  0.00     0.069 A 
HETATM   28  C   UNL     1      -0.494   7.332 -30.402  1.00  0.00     0.043 A 
HETATM   29  C   UNL     1       0.092   7.271 -29.127  1.00  0.00    -0.059 A 
HETATM   30  C   UNL     1       0.012   8.441 -28.190  1.00  0.00     0.048 C 
HETATM   31  C   UNL     1       0.700   6.081 -28.709  1.00  0.00     0.007 A 
HETATM   32  C   UNL     1       0.732   4.972 -29.553  1.00  0.00     0.003 A 
HETATM   33  C   UNL     1       0.152   5.043 -30.819  1.00  0.00     0.037 A 
ENDBRANCH  26  27
ENDBRANCH  25  26
ENDBRANCH  22  25
ENDBRANCH   1  21
TORSDOF 8
ENDMDL
MODEL 3
REMARK VINA RESULT:      -8.0      2.470      8.978
REMARK  8 active torsions:
REMARK  status: ('A' for Active; 'I' for Inactive)
REMARK    1  A    between atoms: C_4  and  O_5 
REMARK    2  A    between atoms: O_5  and  C_6 
REMARK    3  A    between atoms: C_6  and  C_7 
REMARK       I    between atoms: C_7  and  N_8 
REMARK    4  A    between atoms: N_8  and  N_9 
REMARK       I    between atoms: N_9  and  C_10 
REMARK    5  A    between atoms: C_10  and  C_11 
REMARK    6  A    between atoms: C_11  and  C_12 
REMARK    7  A    between atoms: C_12  and  N_13 
REMARK    8  A    between atoms: C_12  and  C_17 
REMARK       I    between atoms: N_13  and  C_14 
REMARK       I    between atoms: C_14  and  N_15 
ROOT
HETATM    1  N   UNL     1      -4.211   3.856 -30.544  1.00  0.00    -0.267 N 
HETATM    2  C   UNL     1      -4.228   5.105 -31.135  1.00  0.00     0.238 C 
HETATM    3  O   UNL     1      -4.734   5.330 -32.234  1.00  0.00    -0.272 OA
HETATM    4  H   UNL     1      -4.080   3.736 -29.544  1.00  0.00     0.190 HD
ENDROOT
BRANCH   2   5
HETATM    5  C   UNL     1      -3.561   6.191 -30.319  1.00  0.00     0.134 C 
BRANCH   5   6
HETATM    6  C   UNL     1      -2.125   6.479 -30.795  1.00  0.00     0.129 C 
BRANCH   6   7
HETATM    7  N   UNL     1      -2.128   7.233 -32.043  1.00  0.00    -0.339 N 
HETATM    8  C   UNL     1      -1.611   6.716 -33.190  1.00  0.00     0.292 C 
HETATM    9  N   UNL     1      -1.687   7.587 -34.227  1.00  0.00    -0.254 NA
HETATM   10  O   UNL     1      -1.127   5.602 -33.321  1.00  0.00    -0.254 OA
HETATM   11  H   UNL     1      -2.534   8.132 -34.285  1.00  0.00     0.128 HD
HETATM   12  H   UNL     1      -1.409   7.166 -35.106  1.00  0.00     0.128 HD
HETATM   13  H   UNL     1      -2.165   8.242 -31.994  1.00  0.00     0.164 HD
ENDBRANCH   6   7
BRANCH   6  14
HETATM   14  C   UNL     1      -1.279   7.234 -29.771  1.00  0.00    -0.013 A 
HETATM   15  C   UNL     1       0.035   6.829 -29.458  1.00  0.00     0.042 A 
HETATM   16 CL   UNL     1       0.772   5.440 -30.178  1.00  0.00    -0.084 Cl
HETATM   17  C   UNL     1       0.817   7.556 -28.553  1.00  0.00     0.024 A 
HETATM   18  C   UNL     1       0.311   8.703 -27.947  1.00  0.00     0.002 A 
HETATM   19  C   UNL     1      -0.977   9.131 -28.252  1.00  0.00     0.001 A 
HETATM   20  C   UNL     1      -1.760   8.411 -29.159  1.00  0.00     0.011 A 
ENDBRANCH   6  14
ENDBRANCH   5   6
ENDBRANCH   2   5
BRANCH   1  21
HETATM   21  N   UNL     1      -4.874   2.814 -31.205  1.00  0.00    -0.266 N 
HETATM   22  C   UNL     1      -4.129   1.714 -31.591  1.00  0.00     0.260 C 
HETATM   23  O   UNL     1      -2.898   1.696 -31.572  1.00  0.00    -0.269 OA
HETATM   24  H   UNL     1      -5.867   2.726 -30.998  1.00  0.00     0.190 HD
BRANCH  22  25
HETATM   25  C   UNL     1      -4.972   0.526 -32.030  1.00  0.00     0.280 C 
BRANCH  25  26
HETATM   26  O   UNL     1      -4.206  -0.253 -32.944  1.00  0.00    -0.342 OA
BRANCH  26  27
HETATM   27  C   UNL     1      -4.889  -1.262 -33.564  1.00  0.00     0.069 A 
HETATM   28  C   UNL     1      -4.425  -2.572 -33.701  1.00  0.00     0.043 A 
HETATM   29  C   UNL     1      -5.214  -3.541 -34.342  1.00  0.00    -0.059 A 
HETATM   30  C   UNL     1      -4.740  -4.960 -34.459  1.00  0.00     0.048 C 
HETATM   31  C   UNL     1      -6.481  -3.185 -34.821  1.00  0.00     0.007 A 
HETATM   32  C   UNL     1      -6.950  -1.881 -34.669  1.00  0.00     0.003 A 
HETATM   33  C   UNL     1      -6.158  -0.925 -34.035  1.00  0.00     0.037 A 
ENDBRANCH  26  27
ENDBRANCH  25  26
ENDBRANCH  22  25
ENDBRANCH   1  21
TORSDOF 8
ENDMDL
MODEL 4
REMARK VINA RESULT:      -8.0      2.514      8.407
REMARK  8 active torsions:
REMARK  status: ('A' for Active; 'I' for Inactive)
REMARK    1  A    between atoms: C_4  and  O_5 
REMARK    2  A    between atoms: O_5  and  C_6 
REMARK    3  A    between atoms: C_6  and  C_7 
REMARK       I    between atoms: C_7  and  N_8 
REMARK    4  A    between atoms: N_8  and  N_9 
REMARK       I    between atoms: N_9  and  C_10 
REMARK    5  A    between atoms: C_10  and  C_11 
REMARK    6  A    between atoms: C_11  and  C_12 
REMARK    7  A    between atoms: C_12  and  N_13 
REMARK    8  A    between atoms: C_12  and  C_17 
REMARK       I    between atoms: N_13  and  C_14 
REMARK       I    between atoms: C_14  and  N_15 
ROOT
HETATM    1  N   UNL     1      -4.465   2.655 -30.638  1.00  0.00    -0.267 N 
HETATM    2  C   UNL     1      -3.535   2.840 -31.644  1.00  0.00     0.238 C 
HETATM    3  O   UNL     1      -3.337   2.025 -32.545  1.00  0.00    -0.272 OA
HETATM    4  H   UNL     1      -4.835   3.431 -30.099  1.00  0.00     0.190 HD
ENDROOT
BRANCH   2   5
HETATM    5  C   UNL     1      -2.763   4.138 -31.550  1.00  0.00     0.134 C 
BRANCH   5   6
HETATM    6  C   UNL     1      -3.334   5.224 -32.480  1.00  0.00     0.129 C 
BRANCH   6   7
HETATM    7  N   UNL     1      -4.727   4.951 -32.812  1.00  0.00    -0.339 N 
HETATM    8  C   UNL     1      -5.181   5.015 -34.093  1.00  0.00     0.292 C 
HETATM    9  N   UNL     1      -6.508   4.754 -34.183  1.00  0.00    -0.254 NA
HETATM   10  O   UNL     1      -4.509   5.272 -35.080  1.00  0.00    -0.254 OA
HETATM   11  H   UNL     1      -6.854   4.016 -33.588  1.00  0.00     0.128 HD
HETATM   12  H   UNL     1      -6.825   4.689 -35.144  1.00  0.00     0.128 HD
HETATM   13  H   UNL     1      -5.426   5.075 -32.093  1.00  0.00     0.164 HD
ENDBRANCH   6   7
BRANCH   6  14
HETATM   14  C   UNL     1      -3.239   6.637 -31.904  1.00  0.00    -0.013 A 
HETATM   15  C   UNL     1      -2.126   7.464 -32.162  1.00  0.00     0.042 A 
HETATM   16 CL   UNL     1      -0.781   6.937 -33.113  1.00  0.00    -0.084 Cl
HETATM   17  C   UNL     1      -2.072   8.773 -31.668  1.00  0.00     0.024 A 
HETATM   18  C   UNL     1      -3.123   9.286 -30.915  1.00  0.00     0.002 A 
HETATM   19  C   UNL     1      -4.238   8.494 -30.661  1.00  0.00     0.001 A 
HETATM   20  C   UNL     1      -4.300   7.188 -31.157  1.00  0.00     0.011 A 
ENDBRANCH   6  14
ENDBRANCH   5   6
ENDBRANCH   2   5
BRANCH   1  21
HETATM   21  N   UNL     1      -5.271   1.511 -30.700  1.00  0.00    -0.266 N 
HETATM   22  C   UNL     1      -6.433   1.577 -31.449  1.00  0.00     0.260 C 
HETATM   23  O   UNL     1      -6.893   2.634 -31.883  1.00  0.00    -0.269 OA
HETATM   24  H   UNL     1      -4.787   0.626 -30.564  1.00  0.00     0.190 HD
BRANCH  22  25
HETATM   25  C   UNL     1      -7.082   0.223 -31.694  1.00  0.00     0.280 C 
BRANCH  25  26
HETATM   26  O   UNL     1      -7.149   0.007 -33.100  1.00  0.00    -0.342 OA
BRANCH  26  27
HETATM   27  C   UNL     1      -6.422  -1.055 -33.562  1.00  0.00     0.069 A 
HETATM   28  C   UNL     1      -6.961  -2.172 -34.204  1.00  0.00     0.043 A 
HETATM   29  C   UNL     1      -6.123  -3.204 -34.656  1.00  0.00    -0.059 A 
HETATM   30  C   UNL     1      -6.689  -4.389 -35.382  1.00  0.00     0.048 C 
HETATM   31  C   UNL     1      -4.738  -3.089 -34.477  1.00  0.00     0.007 A 
HETATM   32  C   UNL     1      -4.200  -1.966 -33.850  1.00  0.00     0.003 A 
HETATM   33  C   UNL     1      -5.040  -0.949 -33.401  1.00  0.00     0.037 A 
ENDBRANCH  26  27
ENDBRANCH  25  26
ENDBRANCH  22  25
ENDBRANCH   1  21
TORSDOF 8
ENDMDL
MODEL 5
REMARK VINA RESULT:      -7.9      1.836      3.031
REMARK  8 active torsions:
REMARK  status: ('A' for Active; 'I' for Inactive)
REMARK    1  A    between atoms: C_4  and  O_5 
REMARK    2  A    between atoms: O_5  and  C_6 
REMARK    3  A    between atoms: C_6  and  C_7 
REMARK       I    between atoms: C_7  and  N_8 
REMARK    4  A    between atoms: N_8  and  N_9 
REMARK       I    between atoms: N_9  and  C_10 
REMARK    5  A    between atoms: C_10  and  C_11 
REMARK    6  A    between atoms: C_11  and  C_12 
REMARK    7  A    between atoms: C_12  and  N_13 
REMARK    8  A    between atoms: C_12  and  C_17 
REMARK       I    between atoms: N_13  and  C_14 
REMARK       I    between atoms: C_14  and  N_15 
ROOT
HETATM    1  N   UNL     1      -3.363   2.561 -31.216  1.00  0.00    -0.267 N 
HETATM    2  C   UNL     1      -4.684   2.564 -30.808  1.00  0.00     0.238 C 
HETATM    3  O   UNL     1      -5.241   3.545 -30.316  1.00  0.00    -0.272 OA
HETATM    4  H   UNL     1      -3.008   1.881 -31.881  1.00  0.00     0.190 HD
ENDROOT
BRANCH   2   5
HETATM    5  C   UNL     1      -5.403   1.248 -31.010  1.00  0.00     0.134 C 
BRANCH   5   6
HETATM    6  C   UNL     1      -6.077   1.159 -32.392  1.00  0.00     0.129 C 
BRANCH   6   7
HETATM    7  N   UNL     1      -5.636   2.242 -33.262  1.00  0.00    -0.339 N 
HETATM    8  C   UNL     1      -6.468   3.259 -33.613  1.00  0.00     0.292 C 
HETATM    9  N   UNL     1      -5.873   4.147 -34.447  1.00  0.00    -0.254 NA
HETATM   10  O   UNL     1      -7.624   3.400 -33.243  1.00  0.00    -0.254 OA
HETATM   11  H   UNL     1      -4.908   4.364 -34.246  1.00  0.00     0.128 HD
HETATM   12  H   UNL     1      -6.450   4.962 -34.619  1.00  0.00     0.128 HD
HETATM   13  H   UNL     1      -4.865   2.069 -33.892  1.00  0.00     0.164 HD
ENDBRANCH   6   7
BRANCH   6  14
HETATM   14  C   UNL     1      -5.834  -0.170 -33.107  1.00  0.00    -0.013 A 
HETATM   15  C   UNL     1      -6.750  -0.676 -34.053  1.00  0.00     0.042 A 
HETATM   16 CL   UNL     1      -8.221   0.144 -34.447  1.00  0.00    -0.084 Cl
HETATM   17  C   UNL     1      -6.494  -1.870 -34.736  1.00  0.00     0.024 A 
HETATM   18  C   UNL     1      -5.322  -2.581 -34.499  1.00  0.00     0.002 A 
HETATM   19  C   UNL     1      -4.395  -2.093 -33.583  1.00  0.00     0.001 A 
HETATM   20  C   UNL     1      -4.644  -0.898 -32.901  1.00  0.00     0.011 A 
ENDBRANCH   6  14
ENDBRANCH   5   6
ENDBRANCH   2   5
BRANCH   1  21
HETATM   21  N   UNL     1      -2.653   3.765 -31.130  1.00  0.00    -0.266 N 
HETATM   22  C   UNL     1      -2.570   4.550 -32.266  1.00  0.00     0.260 C 
HETATM   23  O   UNL     1      -2.903   4.153 -33.383  1.00  0.00    -0.269 OA
HETATM   24  H   UNL     1      -2.608   4.182 -30.202  1.00  0.00     0.190 HD
BRANCH  22  25
HETATM   25  C   UNL     1      -2.040   5.952 -32.004  1.00  0.00     0.280 C 
BRANCH  25  26
HETATM   26  O   UNL     1      -0.627   5.872 -31.836  1.00  0.00    -0.342 OA
BRANCH  26  27
HETATM   27  C   UNL     1      -0.173   6.166 -30.580  1.00  0.00     0.069 A 
HETATM   28  C   UNL     1      -0.333   7.398 -29.943  1.00  0.00     0.043 A 
HETATM   29  C   UNL     1       0.159   7.592 -28.642  1.00  0.00    -0.059 A 
HETATM   30  C   UNL     1      -0.043   8.900 -27.933  1.00  0.00     0.048 C 
HETATM   31  C   UNL     1       0.789   6.530 -27.982  1.00  0.00     0.007 A 
HETATM   32  C   UNL     1       0.934   5.295 -28.613  1.00  0.00     0.003 A 
HETATM   33  C   UNL     1       0.446   5.113 -29.906  1.00  0.00     0.037 A 
ENDBRANCH  26  27
ENDBRANCH  25  26
ENDBRANCH  22  25
ENDBRANCH   1  21
TORSDOF 8
ENDMDL
MODEL 6
REMARK VINA RESULT:      -7.8      3.128      8.998
REMARK  8 active torsions:
REMARK  status: ('A' for Active; 'I' for Inactive)
REMARK    1  A    between atoms: C_4  and  O_5 
REMARK    2  A    between atoms: O_5  and  C_6 
REMARK    3  A    between atoms: C_6  and  C_7 
REMARK       I    between atoms: C_7  and  N_8 
REMARK    4  A    between atoms: N_8  and  N_9 
REMARK       I    between atoms: N_9  and  C_10 
REMARK    5  A    between atoms: C_10  and  C_11 
REMARK    6  A    between atoms: C_11  and  C_12 
REMARK    7  A    between atoms: C_12  and  N_13 
REMARK    8  A    between atoms: C_12  and  C_17 
REMARK       I    between atoms: N_13  and  C_14 
REMARK       I    between atoms: C_14  and  N_15 
ROOT
HETATM    1  N   UNL     1      -2.471   4.891 -32.263  1.00  0.00    -0.267 N 
HETATM    2  C   UNL     1      -1.461   5.341 -31.434  1.00  0.00     0.238 C 
HETATM    3  O   UNL     1      -0.754   4.594 -30.758  1.00  0.00    -0.272 OA
HETATM    4  H   UNL     1      -2.832   5.455 -33.026  1.00  0.00     0.190 HD
ENDROOT
BRANCH   2   5
HETATM    5  C   UNL     1      -1.292   6.844 -31.414  1.00  0.00     0.134 C 
BRANCH   5   6
HETATM    6  C   UNL     1      -1.957   7.488 -30.184  1.00  0.00     0.129 C 
BRANCH   6   7
HETATM    7  N   UNL     1      -2.778   6.522 -29.464  1.00  0.00    -0.339 N 
HETATM    8  C   UNL     1      -4.134   6.624 -29.427  1.00  0.00     0.292 C 
HETATM    9  N   UNL     1      -4.704   5.643 -28.684  1.00  0.00    -0.254 NA
HETATM   10  O   UNL     1      -4.804   7.481 -29.983  1.00  0.00    -0.254 OA
HETATM   11  H   UNL     1      -4.294   4.726 -28.775  1.00  0.00     0.128 HD
HETATM   12  H   UNL     1      -5.715   5.650 -28.748  1.00  0.00     0.128 HD
HETATM   13  H   UNL     1      -2.356   6.004 -28.706  1.00  0.00     0.164 HD
ENDBRANCH   6   7
BRANCH   6  14
HETATM   14  C   UNL     1      -0.962   8.108 -29.203  1.00  0.00    -0.013 A 
HETATM   15  C   UNL     1      -1.323   9.189 -28.372  1.00  0.00     0.042 A 
HETATM   16 CL   UNL     1      -2.894   9.912 -28.422  1.00  0.00    -0.084 Cl
HETATM   17  C   UNL     1      -0.418   9.718 -27.444  1.00  0.00     0.024 A 
HETATM   18  C   UNL     1       0.859   9.180 -27.320  1.00  0.00     0.002 A 
HETATM   19  C   UNL     1       1.232   8.103 -28.117  1.00  0.00     0.001 A 
HETATM   20  C   UNL     1       0.330   7.567 -29.042  1.00  0.00     0.011 A 
ENDBRANCH   6  14
ENDBRANCH   5   6
ENDBRANCH   2   5
BRANCH   1  21
HETATM   21  N   UNL     1      -2.640   3.507 -32.391  1.00  0.00    -0.266 N 
HETATM   22  C   UNL     1      -3.714   2.922 -31.743  1.00  0.00     0.260 C 
HETATM   23  O   UNL     1      -4.393   3.512 -30.903  1.00  0.00    -0.269 OA
HETATM   24  H   UNL     1      -2.255   3.095 -33.240  1.00  0.00     0.190 HD
BRANCH  22  25
HETATM   25  C   UNL     1      -3.982   1.487 -32.173  1.00  0.00     0.280 C 
BRANCH  25  26
HETATM   26  O   UNL     1      -5.269   1.436 -32.781  1.00  0.00    -0.342 OA
BRANCH  26  27
HETATM   27  C   UNL     1      -5.550   0.278 -33.453  1.00  0.00     0.069 A 
HETATM   28  C   UNL     1      -4.765  -0.877 -33.413  1.00  0.00     0.043 A 
HETATM   29  C   UNL     1      -5.151  -2.022 -34.129  1.00  0.00    -0.059 A 
HETATM   30  C   UNL     1      -4.335  -3.280 -34.061  1.00  0.00     0.048 C 
HETATM   31  C   UNL     1      -6.344  -2.001 -34.863  1.00  0.00     0.007 A 
HETATM   32  C   UNL     1      -7.135  -0.853 -34.889  1.00  0.00     0.003 A 
HETATM   33  C   UNL     1      -6.741   0.280 -34.178  1.00  0.00     0.037 A 
ENDBRANCH  26  27
ENDBRANCH  25  26
ENDBRANCH  22  25
ENDBRANCH   1  21
TORSDOF 8
ENDMDL
MODEL 7
REMARK VINA RESULT:      -7.7      5.570      9.056
REMARK  8 active torsions:
REMARK  status: ('A' for Active; 'I' for Inactive)
REMARK    1  A    between atoms: C_4  and  O_5 
REMARK    2  A    between atoms: O_5  and  C_6 
REMARK    3  A    between atoms: C_6  and  C_7 
REMARK       I    between atoms: C_7  and  N_8 
REMARK    4  A    between atoms: N_8  and  N_9 
REMARK       I    between atoms: N_9  and  C_10 
REMARK    5  A    between atoms: C_10  and  C_11 
REMARK    6  A    between atoms: C_11  and  C_12 
REMARK    7  A    between atoms: C_12  and  N_13 
REMARK    8  A    between atoms: C_12  and  C_17 
REMARK       I    between atoms: N_13  and  C_14 
REMARK       I    between atoms: C_14  and  N_15 
ROOT
HETATM    1  N   UNL     1      -9.305   1.763 -34.581  1.00  0.00    -0.267 N 
HETATM    2  C   UNL     1      -7.953   1.676 -34.313  1.00  0.00     0.238 C 
HETATM    3  O   UNL     1      -7.325   2.539 -33.698  1.00  0.00    -0.272 OA
HETATM    4  H   UNL     1      -9.863   0.944 -34.802  1.00  0.00     0.190 HD
ENDROOT
BRANCH   2   5
HETATM    5  C   UNL     1      -7.289   0.425 -34.845  1.00  0.00     0.134 C 
BRANCH   5   6
HETATM    6  C   UNL     1      -6.397  -0.254 -33.789  1.00  0.00     0.129 C 
BRANCH   6   7
HETATM    7  N   UNL     1      -7.031  -0.237 -32.476  1.00  0.00    -0.339 N 
HETATM    8  C   UNL     1      -6.355   0.153 -31.362  1.00  0.00     0.292 C 
HETATM    9  N   UNL     1      -7.115   0.071 -30.243  1.00  0.00    -0.254 NA
HETATM   10  O   UNL     1      -5.197   0.542 -31.325  1.00  0.00    -0.254 OA
HETATM   11  H   UNL     1      -8.079   0.352 -30.342  1.00  0.00     0.128 HD
HETATM   12  H   UNL     1      -6.654   0.466 -29.432  1.00  0.00     0.128 HD
HETATM   13  H   UNL     1      -7.825  -0.842 -32.318  1.00  0.00     0.164 HD
ENDBRANCH   6   7
BRANCH   6  14
HETATM   14  C   UNL     1      -6.030  -1.698 -34.134  1.00  0.00    -0.013 A 
HETATM   15  C   UNL     1      -4.715  -2.181 -33.975  1.00  0.00     0.042 A 
HETATM   16 CL   UNL     1      -3.420  -1.179 -33.416  1.00  0.00    -0.084 Cl
HETATM   17  C   UNL     1      -4.400  -3.517 -34.249  1.00  0.00     0.024 A 
HETATM   18  C   UNL     1      -5.387  -4.399 -34.679  1.00  0.00     0.002 A 
HETATM   19  C   UNL     1      -6.695  -3.949 -34.827  1.00  0.00     0.001 A 
HETATM   20  C   UNL     1      -7.015  -2.617 -34.549  1.00  0.00     0.011 A 
ENDBRANCH   6  14
ENDBRANCH   5   6
ENDBRANCH   2   5
BRANCH   1  21
HETATM   21  N   UNL     1     -10.005   2.857 -34.056  1.00  0.00    -0.266 N 
HETATM   22  C   UNL     1     -11.272   3.112 -34.549  1.00  0.00     0.260 C 
HETATM   23  O   UNL     1     -11.725   2.566 -35.555  1.00  0.00    -0.269 OA
HETATM   24  H   UNL     1      -9.749   3.127 -33.108  1.00  0.00     0.190 HD
BRANCH  22  25
HETATM   25  C   UNL     1     -12.057   4.124 -33.726  1.00  0.00     0.280 C 
BRANCH  25  26
HETATM   26  O   UNL     1     -12.474   3.491 -32.519  1.00  0.00    -0.342 OA
BRANCH  26  27
HETATM   27  C   UNL     1     -13.827   3.388 -32.353  1.00  0.00     0.069 A 
HETATM   28  C   UNL     1     -14.666   4.437 -31.972  1.00  0.00     0.043 A 
HETATM   29  C   UNL     1     -16.049   4.230 -31.845  1.00  0.00    -0.059 A 
HETATM   30  C   UNL     1     -16.963   5.361 -31.475  1.00  0.00     0.048 C 
HETATM   31  C   UNL     1     -16.581   2.966 -32.129  1.00  0.00     0.007 A 
HETATM   32  C   UNL     1     -15.745   1.923 -32.525  1.00  0.00     0.003 A 
HETATM   33  C   UNL     1     -14.372   2.137 -32.644  1.00  0.00     0.037 A 
ENDBRANCH  26  27
ENDBRANCH  25  26
ENDBRANCH  22  25
ENDBRANCH   1  21
TORSDOF 8
ENDMDL
MODEL 8
REMARK VINA RESULT:      -7.6      2.606      8.815
REMARK  8 active torsions:
REMARK  status: ('A' for Active; 'I' for Inactive)
REMARK    1  A    between atoms: C_4  and  O_5 
REMARK    2  A    between atoms: O_5  and  C_6 
REMARK    3  A    between atoms: C_6  and  C_7 
REMARK       I    between atoms: C_7  and  N_8 
REMARK    4  A    between atoms: N_8  and  N_9 
REMARK       I    between atoms: N_9  and  C_10 
REMARK    5  A    between atoms: C_10  and  C_11 
REMARK    6  A    between atoms: C_11  and  C_12 
REMARK    7  A    between atoms: C_12  and  N_13 
REMARK    8  A    between atoms: C_12  and  C_17 
REMARK       I    between atoms: N_13  and  C_14 
REMARK       I    between atoms: C_14  and  N_15 
ROOT
HETATM    1  N   UNL     1      -3.927   3.460 -32.020  1.00  0.00    -0.267 N 
HETATM    2  C   UNL     1      -4.568   4.234 -31.071  1.00  0.00     0.238 C 
HETATM    3  O   UNL     1      -5.630   3.913 -30.538  1.00  0.00    -0.272 OA
HETATM    4  H   UNL     1      -2.937   3.567 -32.221  1.00  0.00     0.190 HD
ENDROOT
BRANCH   2   5
HETATM    5  C   UNL     1      -3.858   5.527 -30.736  1.00  0.00     0.134 C 
BRANCH   5   6
HETATM    6  C   UNL     1      -2.462   5.609 -31.381  1.00  0.00     0.129 C 
BRANCH   6   7
HETATM    7  N   UNL     1      -2.466   6.507 -32.529  1.00  0.00    -0.339 N 
HETATM    8  C   UNL     1      -2.193   6.061 -33.785  1.00  0.00     0.292 C 
HETATM    9  N   UNL     1      -2.223   7.058 -34.704  1.00  0.00    -0.254 NA
HETATM   10  O   UNL     1      -1.945   4.906 -34.098  1.00  0.00    -0.254 OA
HETATM   11  H   UNL     1      -2.953   7.745 -34.587  1.00  0.00     0.128 HD
HETATM   12  H   UNL     1      -2.132   6.712 -35.652  1.00  0.00     0.128 HD
HETATM   13  H   UNL     1      -2.308   7.492 -32.370  1.00  0.00     0.164 HD
ENDBRANCH   6   7
BRANCH   6  14
HETATM   14  C   UNL     1      -1.366   6.060 -30.415  1.00  0.00    -0.013 A 
HETATM   15  C   UNL     1      -1.406   7.326 -29.795  1.00  0.00     0.042 A 
HETATM   16 CL   UNL     1      -2.667   8.468 -30.101  1.00  0.00    -0.084 Cl
HETATM   17  C   UNL     1      -0.422   7.709 -28.876  1.00  0.00     0.024 A 
HETATM   18  C   UNL     1       0.617   6.840 -28.552  1.00  0.00     0.002 A 
HETATM   19  C   UNL     1       0.667   5.580 -29.139  1.00  0.00     0.001 A 
HETATM   20  C   UNL     1      -0.316   5.191 -30.053  1.00  0.00     0.011 A 
ENDBRANCH   6  14
ENDBRANCH   5   6
ENDBRANCH   2   5
BRANCH   1  21
HETATM   21  N   UNL     1      -4.484   2.213 -32.329  1.00  0.00    -0.266 N 
HETATM   22  C   UNL     1      -3.910   1.089 -31.762  1.00  0.00     0.260 C 
HETATM   23  O   UNL     1      -2.825   1.110 -31.180  1.00  0.00    -0.269 OA
HETATM   24  H   UNL     1      -5.471   2.225 -32.583  1.00  0.00     0.190 HD
BRANCH  22  25
HETATM   25  C   UNL     1      -4.749  -0.171 -31.917  1.00  0.00     0.280 C 
BRANCH  25  26
HETATM   26  O   UNL     1      -4.829  -0.487 -33.304  1.00  0.00    -0.342 OA
BRANCH  26  27
HETATM   27  C   UNL     1      -4.804  -1.822 -33.599  1.00  0.00     0.069 A 
HETATM   28  C   UNL     1      -5.718  -2.472 -34.431  1.00  0.00     0.043 A 
HETATM   29  C   UNL     1      -5.594  -3.848 -34.683  1.00  0.00    -0.059 A 
HETATM   30  C   UNL     1      -6.548  -4.546 -35.608  1.00  0.00     0.048 C 
HETATM   31  C   UNL     1      -4.531  -4.556 -34.110  1.00  0.00     0.007 A 
HETATM   32  C   UNL     1      -3.610  -3.904 -33.292  1.00  0.00     0.003 A 
HETATM   33  C   UNL     1      -3.743  -2.538 -33.044  1.00  0.00     0.037 A 
ENDBRANCH  26  27
ENDBRANCH  25  26
ENDBRANCH  22  25
ENDBRANCH   1  21
TORSDOF 8
ENDMDL
MODEL 9
REMARK VINA RESULT:      -7.6      3.337      8.979
REMARK  8 active torsions:
REMARK  status: ('A' for Active; 'I' for Inactive)
REMARK    1  A    between atoms: C_4  and  O_5 
REMARK    2  A    between atoms: O_5  and  C_6 
REMARK    3  A    between atoms: C_6  and  C_7 
REMARK       I    between atoms: C_7  and  N_8 
REMARK    4  A    between atoms: N_8  and  N_9 
REMARK       I    between atoms: N_9  and  C_10 
REMARK    5  A    between atoms: C_10  and  C_11 
REMARK    6  A    between atoms: C_11  and  C_12 
REMARK    7  A    between atoms: C_12  and  N_13 
REMARK    8  A    between atoms: C_12  and  C_17 
REMARK       I    between atoms: N_13  and  C_14 
REMARK       I    between atoms: C_14  and  N_15 
ROOT
HETATM    1  N   UNL     1      -2.262   4.930 -30.833  1.00  0.00    -0.267 N 
HETATM    2  C   UNL     1      -2.920   6.120 -30.589  1.00  0.00     0.238 C 
HETATM    3  O   UNL     1      -4.144   6.243 -30.643  1.00  0.00    -0.272 OA
HETATM    4  H   UNL     1      -1.319   4.759 -30.496  1.00  0.00     0.190 HD
ENDROOT
BRANCH   2   5
HETATM    5  C   UNL     1      -2.010   7.281 -30.252  1.00  0.00     0.134 C 
BRANCH   5   6
HETATM    6  C   UNL     1      -2.216   7.782 -28.810  1.00  0.00     0.129 C 
BRANCH   6   7
HETATM    7  N   UNL     1      -2.764   6.730 -27.962  1.00  0.00    -0.339 N 
HETATM    8  C   UNL     1      -3.771   6.975 -27.082  1.00  0.00     0.292 C 
HETATM    9  N   UNL     1      -4.116   5.873 -26.372  1.00  0.00    -0.254 NA
HETATM   10  O   UNL     1      -4.334   8.047 -26.916  1.00  0.00    -0.254 OA
HETATM   11  H   UNL     1      -4.127   5.003 -26.885  1.00  0.00     0.128 HD
HETATM   12  H   UNL     1      -4.938   6.022 -25.800  1.00  0.00     0.128 HD
HETATM   13  H   UNL     1      -2.182   5.931 -27.751  1.00  0.00     0.164 HD
ENDBRANCH   6   7
BRANCH   6  14
HETATM   14  C   UNL     1      -0.941   8.318 -28.159  1.00  0.00    -0.013 A 
HETATM   15  C   UNL     1       0.242   7.550 -28.115  1.00  0.00     0.042 A 
HETATM   16 CL   UNL     1       0.331   5.947 -28.758  1.00  0.00    -0.084 Cl
HETATM   17  C   UNL     1       1.417   8.069 -27.558  1.00  0.00     0.024 A 
HETATM   18  C   UNL     1       1.441   9.361 -27.041  1.00  0.00     0.002 A 
HETATM   19  C   UNL     1       0.291  10.142 -27.088  1.00  0.00     0.001 A 
HETATM   20  C   UNL     1      -0.884   9.630 -27.648  1.00  0.00     0.011 A 
ENDBRANCH   6  14
ENDBRANCH   5   6
ENDBRANCH   2   5
BRANCH   1  21
HETATM   21  N   UNL     1      -3.041   3.793 -31.079  1.00  0.00    -0.266 N 
HETATM   22  C   UNL     1      -3.033   3.267 -32.359  1.00  0.00     0.260 C 
HETATM   23  O   UNL     1      -2.553   3.860 -33.326  1.00  0.00    -0.269 OA
HETATM   24  H   UNL     1      -3.215   3.198 -30.271  1.00  0.00     0.190 HD
BRANCH  22  25
HETATM   25  C   UNL     1      -3.664   1.887 -32.458  1.00  0.00     0.280 C 
BRANCH  25  26
HETATM   26  O   UNL     1      -5.071   2.048 -32.616  1.00  0.00    -0.342 OA
BRANCH  26  27
HETATM   27  C   UNL     1      -5.678   1.121 -33.417  1.00  0.00     0.069 A 
HETATM   28  C   UNL     1      -5.327  -0.229 -33.481  1.00  0.00     0.043 A 
HETATM   29  C   UNL     1      -6.025  -1.105 -34.328  1.00  0.00    -0.059 A 
HETATM   30  C   UNL     1      -5.681  -2.565 -34.373  1.00  0.00     0.048 C 
HETATM   31  C   UNL     1      -7.094  -0.614 -35.089  1.00  0.00     0.007 A 
HETATM   32  C   UNL     1      -7.454   0.730 -35.012  1.00  0.00     0.003 A 
HETATM   33  C   UNL     1      -6.752   1.593 -34.171  1.00  0.00     0.037 A 
ENDBRANCH  26  27
ENDBRANCH  25  26
ENDBRANCH  22  25
ENDBRANCH   1  21
TORSDOF 8
ENDMDL
MODEL 10
REMARK VINA RESULT:      -7.5      3.496      9.439
REMARK  8 active torsions:
REMARK  status: ('A' for Active; 'I' for Inactive)
REMARK    1  A    between atoms: C_4  and  O_5 
REMARK    2  A    between atoms: O_5  and  C_6 
REMARK    3  A    between atoms: C_6  and  C_7 
REMARK       I    between atoms: C_7  and  N_8 
REMARK    4  A    between atoms: N_8  and  N_9 
REMARK       I    between atoms: N_9  and  C_10 
REMARK    5  A    between atoms: C_10  and  C_11 
REMARK    6  A    between atoms: C_11  and  C_12 
REMARK    7  A    between atoms: C_12  and  N_13 
REMARK    8  A    between atoms: C_12  and  C_17 
REMARK       I    between atoms: N_13  and  C_14 
REMARK       I    between atoms: C_14  and  N_15 
ROOT
HETATM    1  N   UNL     1      -2.742   5.121 -30.855  1.00  0.00    -0.267 N 
HETATM    2  C   UNL     1      -2.843   6.431 -30.427  1.00  0.00     0.238 C 
HETATM    3  O   UNL     1      -3.914   7.025 -30.302  1.00  0.00    -0.272 OA
HETATM    4  H   UNL     1      -1.920   4.556 -30.666  1.00  0.00     0.190 HD
ENDROOT
BRANCH   2   5
HETATM    5  C   UNL     1      -1.517   7.094 -30.126  1.00  0.00     0.134 C 
BRANCH   5   6
HETATM    6  C   UNL     1      -1.056   6.843 -28.678  1.00  0.00     0.129 C 
BRANCH   6   7
HETATM    7  N   UNL     1      -0.218   5.653 -28.593  1.00  0.00    -0.339 N 
HETATM    8  C   UNL     1       0.519   5.222 -29.652  1.00  0.00     0.292 C 
HETATM    9  N   UNL     1       1.205   4.086 -29.373  1.00  0.00    -0.254 NA
HETATM   10  O   UNL     1       0.588   5.762 -30.745  1.00  0.00    -0.254 OA
HETATM   11  H   UNL     1       1.611   4.030 -28.451  1.00  0.00     0.128 HD
HETATM   12  H   UNL     1       1.840   3.826 -30.118  1.00  0.00     0.128 HD
HETATM   13  H   UNL     1      -0.450   4.950 -27.905  1.00  0.00     0.164 HD
ENDBRANCH   6   7
BRANCH   6  14
HETATM   14  C   UNL     1      -0.296   8.019 -28.064  1.00  0.00    -0.013 A 
HETATM   15  C   UNL     1      -0.970   9.156 -27.572  1.00  0.00     0.042 A 
HETATM   16 CL   UNL     1      -2.690   9.321 -27.655  1.00  0.00    -0.084 Cl
HETATM   17  C   UNL     1      -0.267  10.205 -26.969  1.00  0.00     0.024 A 
HETATM   18  C   UNL     1       1.117  10.143 -26.838  1.00  0.00     0.002 A 
HETATM   19  C   UNL     1       1.802   9.024 -27.300  1.00  0.00     0.001 A 
HETATM   20  C   UNL     1       1.104   7.971 -27.898  1.00  0.00     0.011 A 
ENDBRANCH   6  14
ENDBRANCH   5   6
ENDBRANCH   2   5
BRANCH   1  21
HETATM   21  N   UNL     1      -3.931   4.417 -31.082  1.00  0.00    -0.266 N 
HETATM   22  C   UNL     1      -3.881   3.314 -31.916  1.00  0.00     0.260 C 
HETATM   23  O   UNL     1      -2.908   3.050 -32.623  1.00  0.00    -0.269 OA
HETATM   24  H   UNL     1      -4.627   4.480 -30.340  1.00  0.00     0.190 HD
BRANCH  22  25
HETATM   25  C   UNL     1      -5.136   2.455 -31.870  1.00  0.00     0.280 C 
BRANCH  25  26
HETATM   26  O   UNL     1      -4.776   1.119 -32.213  1.00  0.00    -0.342 OA
BRANCH  26  27
HETATM   27  C   UNL     1      -5.561   0.531 -33.166  1.00  0.00     0.069 A 
HETATM   28  C   UNL     1      -5.583  -0.837 -33.447  1.00  0.00     0.043 A 
HETATM   29  C   UNL     1      -6.440  -1.343 -34.438  1.00  0.00    -0.059 A 
HETATM   30  C   UNL     1      -6.500  -2.816 -34.719  1.00  0.00     0.048 C 
HETATM   31  C   UNL     1      -7.290  -0.465 -35.122  1.00  0.00     0.007 A 
HETATM   32  C   UNL     1      -7.278   0.898 -34.829  1.00  0.00     0.003 A 
HETATM   33  C   UNL     1      -6.421   1.392 -33.848  1.00  0.00     0.037 A 
ENDBRANCH  26  27
ENDBRANCH  25  26
ENDBRANCH  22  25
ENDBRANCH   1  21
TORSDOF 8
ENDMDL
