MODEL 1
REMARK VINA RESULT:      -8.6      0.000      0.000
REMARK  9 active torsions:
REMARK  status: ('A' for Active; 'I' for Inactive)
REMARK    1  A    between atoms: C_2  and  C_3 
REMARK    2  A    between atoms: C_3  and  O_4 
REMARK    3  A    between atoms: O_4  and  C_5 
REMARK    4  A    between atoms: C_8  and  C_9 
REMARK       I    between atoms: C_9  and  N_10 
REMARK    5  A    between atoms: N_10  and  C_11 
REMARK    6  A    between atoms: C_11  and  N_12 
REMARK    7  A    between atoms: N_12  and  C_13 
REMARK    8  A    between atoms: C_15  and  C_16 
REMARK    9  A    between atoms: C_25  and  O_26 
ROOT
HETATM    1  C   UNL     1      -3.969   2.926 -31.166  1.00  0.00     0.035 A 
HETATM    2  C   UNL     1      -4.053   1.683 -31.803  1.00  0.00     0.046 A 
HETATM    3  C   UNL     1      -5.245   0.930 -31.800  1.00  0.00     0.036 A 
HETATM    4  C   UNL     1      -6.358   1.456 -31.118  1.00  0.00     0.084 A 
HETATM    5  C   UNL     1      -6.277   2.680 -30.435  1.00  0.00    -0.026 A 
HETATM    6  C   UNL     1      -7.447   3.221 -29.659  1.00  0.00     0.051 C 
HETATM    7  C   UNL     1      -5.069   3.394 -30.447  1.00  0.00     0.039 A 
ENDROOT
BRANCH   1   8
HETATM    8  N   UNL     1      -2.756   3.637 -31.280  1.00  0.00    -0.333 N 
HETATM    9  H   UNL     1      -1.930   3.174 -30.911  1.00  0.00     0.168 HD
BRANCH   8  10
HETATM   10  C   UNL     1      -2.452   4.807 -31.943  1.00  0.00     0.179 C 
HETATM   11  S   UNL     1      -1.732   6.017 -31.044  1.00  0.00    -0.040 SA
BRANCH  10  12
HETATM   12  N   UNL     1      -2.677   4.803 -33.311  1.00  0.00    -0.299 N 
HETATM   13  C   UNL     1      -3.745   5.181 -34.114  1.00  0.00     0.257 C 
HETATM   14  O   UNL     1      -3.504   5.773 -35.167  1.00  0.00    -0.267 OA
HETATM   15  H   UNL     1      -1.837   5.055 -33.818  1.00  0.00     0.171 HD
BRANCH  13  16
HETATM   16  C   UNL     1      -5.153   4.929 -33.748  1.00  0.00     0.032 A 
HETATM   17  C   UNL     1      -5.812   5.930 -33.024  1.00  0.00     0.020 A 
HETATM   18  C   UNL     1      -7.174   5.819 -32.738  1.00  0.00     0.038 A 
HETATM   19  C   UNL     1      -7.895   4.716 -33.195  1.00  0.00     0.068 A 
HETATM   20  C   UNL     1      -7.231   3.709 -33.906  1.00  0.00     0.038 A 
HETATM   21  C   UNL     1      -5.863   3.814 -34.195  1.00  0.00     0.020 A 
BRANCH  19  22
HETATM   22  O   UNL     1      -9.240   4.523 -33.019  1.00  0.00    -0.351 OA
BRANCH  22  23
HETATM   23  C   UNL     1      -9.822   3.430 -33.734  1.00  0.00     0.175 C 
BRANCH  23  24
HETATM   24  C   UNL     1     -10.306   2.372 -32.745  1.00  0.00     0.022 C 
HETATM   25  C   UNL     1     -10.280   0.972 -33.341  1.00  0.00     0.007 C 
ENDBRANCH  23  24
ENDBRANCH  22  23
ENDBRANCH  19  22
ENDBRANCH  13  16
ENDBRANCH  10  12
ENDBRANCH   8  10
ENDBRANCH   1   8
BRANCH   3  26
HETATM   26  C   UNL     1      -5.261  -0.325 -32.571  1.00  0.00     0.112 A 
HETATM   27  S   UNL     1      -3.849  -1.296 -32.730  1.00  0.00    -0.067 SA
HETATM   28  C   UNL     1      -4.736  -2.458 -33.635  1.00  0.00     0.035 A 
HETATM   29  C   UNL     1      -6.043  -2.002 -33.798  1.00  0.00     0.075 A 
HETATM   30  C   UNL     1      -4.306  -3.687 -34.163  1.00  0.00     0.021 A 
HETATM   31  N   UNL     1      -6.320  -0.779 -33.209  1.00  0.00    -0.239 NA
HETATM   32  C   UNL     1      -6.955  -2.799 -34.518  1.00  0.00     0.033 A 
HETATM   33  C   UNL     1      -6.540  -4.027 -35.046  1.00  0.00     0.002 A 
HETATM   34  C   UNL     1      -5.231  -4.464 -34.867  1.00  0.00     0.002 A 
ENDBRANCH   3  26
BRANCH   4  35
HETATM   35  O   UNL     1      -7.582   0.839 -31.097  1.00  0.00    -0.359 OA
HETATM   36  H   UNL     1      -7.716   0.396 -30.243  1.00  0.00     0.218 HD
ENDBRANCH   4  35
TORSDOF 9
ENDMDL
MODEL 2
REMARK VINA RESULT:      -8.1      3.607      6.083
REMARK  9 active torsions:
REMARK  status: ('A' for Active; 'I' for Inactive)
REMARK    1  A    between atoms: C_2  and  C_3 
REMARK    2  A    between atoms: C_3  and  O_4 
REMARK    3  A    between atoms: O_4  and  C_5 
REMARK    4  A    between atoms: C_8  and  C_9 
REMARK       I    between atoms: C_9  and  N_10 
REMARK    5  A    between atoms: N_10  and  C_11 
REMARK    6  A    between atoms: C_11  and  N_12 
REMARK    7  A    between atoms: N_12  and  C_13 
REMARK    8  A    between atoms: C_15  and  C_16 
REMARK    9  A    between atoms: C_25  and  O_26 
ROOT
HETATM    1  C   UNL     1      -3.346   3.938 -31.896  1.00  0.00     0.035 A 
HETATM    2  C   UNL     1      -3.571   2.661 -32.425  1.00  0.00     0.046 A 
HETATM    3  C   UNL     1      -4.708   1.907 -32.073  1.00  0.00     0.036 A 
HETATM    4  C   UNL     1      -5.615   2.465 -31.153  1.00  0.00     0.084 A 
HETATM    5  C   UNL     1      -5.380   3.725 -30.578  1.00  0.00    -0.026 A 
HETATM    6  C   UNL     1      -6.317   4.303 -29.553  1.00  0.00     0.051 C 
HETATM    7  C   UNL     1      -4.229   4.440 -30.940  1.00  0.00     0.039 A 
ENDROOT
BRANCH   1   8
HETATM    8  N   UNL     1      -2.216   4.645 -32.358  1.00  0.00    -0.333 N 
HETATM    9  H   UNL     1      -1.318   4.343 -31.990  1.00  0.00     0.168 HD
BRANCH   8  10
HETATM   10  C   UNL     1      -2.086   5.597 -33.347  1.00  0.00     0.179 C 
HETATM   11  S   UNL     1      -1.645   5.054 -34.863  1.00  0.00    -0.040 SA
BRANCH  10  12
HETATM   12  N   UNL     1      -2.449   6.888 -32.994  1.00  0.00    -0.299 N 
HETATM   13  C   UNL     1      -1.902   7.848 -32.153  1.00  0.00     0.257 C 
HETATM   14  O   UNL     1      -1.903   9.022 -32.526  1.00  0.00    -0.267 OA
HETATM   15  H   UNL     1      -2.827   7.389 -33.789  1.00  0.00     0.171 HD
BRANCH  13  16
HETATM   16  C   UNL     1      -1.297   7.518 -30.846  1.00  0.00     0.032 A 
HETATM   17  C   UNL     1      -2.144   7.536 -29.730  1.00  0.00     0.020 A 
HETATM   18  C   UNL     1      -1.677   7.127 -28.480  1.00  0.00     0.038 A 
HETATM   19  C   UNL     1      -0.366   6.672 -28.339  1.00  0.00     0.068 A 
HETATM   20  C   UNL     1       0.483   6.669 -29.453  1.00  0.00     0.038 A 
HETATM   21  C   UNL     1       0.021   7.081 -30.711  1.00  0.00     0.020 A 
BRANCH  19  22
HETATM   22  O   UNL     1       0.187   6.200 -27.178  1.00  0.00    -0.351 OA
BRANCH  22  23
HETATM   23  C   UNL     1       0.460   7.173 -26.165  1.00  0.00     0.175 C 
BRANCH  23  24
HETATM   24  C   UNL     1       1.833   7.793 -26.409  1.00  0.00     0.022 C 
HETATM   25  C   UNL     1       2.298   8.642 -25.234  1.00  0.00     0.007 C 
ENDBRANCH  23  24
ENDBRANCH  22  23
ENDBRANCH  19  22
ENDBRANCH  13  16
ENDBRANCH  10  12
ENDBRANCH   8  10
ENDBRANCH   1   8
BRANCH   3  26
HETATM   26  C   UNL     1      -4.903   0.612 -32.747  1.00  0.00     0.112 A 
HETATM   27  S   UNL     1      -3.617  -0.523 -32.892  1.00  0.00    -0.067 SA
HETATM   28  C   UNL     1      -4.672  -1.636 -33.672  1.00  0.00     0.035 A 
HETATM   29  C   UNL     1      -5.927  -1.044 -33.813  1.00  0.00     0.075 A 
HETATM   30  C   UNL     1      -4.409  -2.939 -34.125  1.00  0.00     0.021 A 
HETATM   31  N   UNL     1      -6.036   0.240 -33.305  1.00  0.00    -0.239 NA
HETATM   32  C   UNL     1      -6.956  -1.780 -34.434  1.00  0.00     0.033 A 
HETATM   33  C   UNL     1      -6.708  -3.081 -34.886  1.00  0.00     0.002 A 
HETATM   34  C   UNL     1      -5.449  -3.651 -34.731  1.00  0.00     0.002 A 
ENDBRANCH   3  26
BRANCH   4  35
HETATM   35  O   UNL     1      -6.781   1.846 -30.782  1.00  0.00    -0.359 OA
HETATM   36  H   UNL     1      -7.129   2.253 -29.972  1.00  0.00     0.218 HD
ENDBRANCH   4  35
TORSDOF 9
ENDMDL
MODEL 3
REMARK VINA RESULT:      -8.0      2.967      5.734
REMARK  9 active torsions:
REMARK  status: ('A' for Active; 'I' for Inactive)
REMARK    1  A    between atoms: C_2  and  C_3 
REMARK    2  A    between atoms: C_3  and  O_4 
REMARK    3  A    between atoms: O_4  and  C_5 
REMARK    4  A    between atoms: C_8  and  C_9 
REMARK       I    between atoms: C_9  and  N_10 
REMARK    5  A    between atoms: N_10  and  C_11 
REMARK    6  A    between atoms: C_11  and  N_12 
REMARK    7  A    between atoms: N_12  and  C_13 
REMARK    8  A    between atoms: C_15  and  C_16 
REMARK    9  A    between atoms: C_25  and  O_26 
ROOT
HETATM    1  C   UNL     1      -6.191   3.337 -33.055  1.00  0.00     0.035 A 
HETATM    2  C   UNL     1      -5.847   1.988 -33.201  1.00  0.00     0.046 A 
HETATM    3  C   UNL     1      -6.736   1.057 -33.776  1.00  0.00     0.036 A 
HETATM    4  C   UNL     1      -8.000   1.517 -34.188  1.00  0.00     0.084 A 
HETATM    5  C   UNL     1      -8.378   2.857 -34.006  1.00  0.00    -0.026 A 
HETATM    6  C   UNL     1      -9.748   3.342 -34.396  1.00  0.00     0.051 C 
HETATM    7  C   UNL     1      -7.473   3.751 -33.416  1.00  0.00     0.039 A 
ENDROOT
BRANCH   1   8
HETATM    8  N   UNL     1      -5.212   4.207 -32.531  1.00  0.00    -0.333 N 
HETATM    9  H   UNL     1      -4.488   3.775 -31.962  1.00  0.00     0.168 HD
BRANCH   8  10
HETATM   10  C   UNL     1      -4.967   5.543 -32.771  1.00  0.00     0.179 C 
HETATM   11  S   UNL     1      -5.671   6.637 -31.724  1.00  0.00    -0.040 SA
BRANCH  10  12
HETATM   12  N   UNL     1      -4.069   5.819 -33.790  1.00  0.00    -0.299 N 
HETATM   13  C   UNL     1      -2.693   5.686 -33.926  1.00  0.00     0.257 C 
HETATM   14  O   UNL     1      -2.248   5.281 -35.000  1.00  0.00    -0.267 OA
HETATM   15  H   UNL     1      -4.466   5.596 -34.694  1.00  0.00     0.171 HD
BRANCH  13  16
HETATM   16  C   UNL     1      -1.746   5.983 -32.831  1.00  0.00     0.032 A 
HETATM   17  C   UNL     1      -1.677   7.312 -32.393  1.00  0.00     0.020 A 
HETATM   18  C   UNL     1      -0.893   7.654 -31.290  1.00  0.00     0.038 A 
HETATM   19  C   UNL     1      -0.192   6.666 -30.599  1.00  0.00     0.068 A 
HETATM   20  C   UNL     1      -0.251   5.341 -31.047  1.00  0.00     0.038 A 
HETATM   21  C   UNL     1      -1.035   4.991 -32.156  1.00  0.00     0.020 A 
BRANCH  19  22
HETATM   22  O   UNL     1       0.567   6.873 -29.477  1.00  0.00    -0.351 OA
BRANCH  22  23
HETATM   23  C   UNL     1       0.192   7.982 -28.655  1.00  0.00     0.175 C 
BRANCH  23  24
HETATM   24  C   UNL     1       1.411   8.484 -27.886  1.00  0.00     0.022 C 
HETATM   25  C   UNL     1       1.641   7.706 -26.598  1.00  0.00     0.007 C 
ENDBRANCH  23  24
ENDBRANCH  22  23
ENDBRANCH  19  22
ENDBRANCH  13  16
ENDBRANCH  10  12
ENDBRANCH   8  10
ENDBRANCH   1   8
BRANCH   3  26
HETATM   26  C   UNL     1      -6.251  -0.320 -33.966  1.00  0.00     0.112 A 
HETATM   27  S   UNL     1      -4.656  -0.779 -33.511  1.00  0.00    -0.067 SA
HETATM   28  C   UNL     1      -4.973  -2.400 -33.988  1.00  0.00     0.035 A 
HETATM   29  C   UNL     1      -6.264  -2.473 -34.510  1.00  0.00     0.075 A 
HETATM   30  C   UNL     1      -4.140  -3.529 -33.905  1.00  0.00     0.021 A 
HETATM   31  N   UNL     1      -6.969  -1.280 -34.513  1.00  0.00    -0.239 NA
HETATM   32  C   UNL     1      -6.740  -3.717 -34.970  1.00  0.00     0.033 A 
HETATM   33  C   UNL     1      -5.922  -4.849 -34.889  1.00  0.00     0.002 A 
HETATM   34  C   UNL     1      -4.638  -4.754 -34.361  1.00  0.00     0.002 A 
ENDBRANCH   3  26
BRANCH   4  35
HETATM   35  O   UNL     1      -8.921   0.714 -34.810  1.00  0.00    -0.359 OA
HETATM   36  H   UNL     1      -9.614   0.455 -34.180  1.00  0.00     0.218 HD
ENDBRANCH   4  35
TORSDOF 9
ENDMDL
MODEL 4
REMARK VINA RESULT:      -7.7      1.969      2.565
REMARK  9 active torsions:
REMARK  status: ('A' for Active; 'I' for Inactive)
REMARK    1  A    between atoms: C_2  and  C_3 
REMARK    2  A    between atoms: C_3  and  O_4 
REMARK    3  A    between atoms: O_4  and  C_5 
REMARK    4  A    between atoms: C_8  and  C_9 
REMARK       I    between atoms: C_9  and  N_10 
REMARK    5  A    between atoms: N_10  and  C_11 
REMARK    6  A    between atoms: C_11  and  N_12 
REMARK    7  A    between atoms: N_12  and  C_13 
REMARK    8  A    between atoms: C_15  and  C_16 
REMARK    9  A    between atoms: C_25  and  O_26 
ROOT
HETATM    1  C   UNL     1      -6.561   3.264 -29.857  1.00  0.00     0.035 A 
HETATM    2  C   UNL     1      -6.161   2.128 -30.570  1.00  0.00     0.046 A 
HETATM    3  C   UNL     1      -7.034   1.471 -31.461  1.00  0.00     0.036 A 
HETATM    4  C   UNL     1      -8.338   1.977 -31.605  1.00  0.00     0.084 A 
HETATM    5  C   UNL     1      -8.770   3.088 -30.862  1.00  0.00    -0.026 A 
HETATM    6  C   UNL     1     -10.180   3.600 -30.971  1.00  0.00     0.051 C 
HETATM    7  C   UNL     1      -7.879   3.707 -29.973  1.00  0.00     0.039 A 
ENDROOT
BRANCH   1   8
HETATM    8  N   UNL     1      -5.599   3.894 -29.040  1.00  0.00    -0.333 N 
HETATM    9  H   UNL     1      -5.037   3.281 -28.455  1.00  0.00     0.168 HD
BRANCH   8  10
HETATM   10  C   UNL     1      -5.170   5.204 -28.993  1.00  0.00     0.179 C 
HETATM   11  S   UNL     1      -5.672   6.114 -27.686  1.00  0.00    -0.040 SA
BRANCH  10  12
HETATM   12  N   UNL     1      -4.276   5.583 -29.982  1.00  0.00    -0.299 N 
HETATM   13  C   UNL     1      -4.412   6.182 -31.228  1.00  0.00     0.257 C 
HETATM   14  O   UNL     1      -3.592   7.041 -31.556  1.00  0.00    -0.267 OA
HETATM   15  H   UNL     1      -3.425   5.957 -29.579  1.00  0.00     0.171 HD
BRANCH  13  16
HETATM   16  C   UNL     1      -5.509   5.853 -32.161  1.00  0.00     0.032 A 
HETATM   17  C   UNL     1      -5.302   4.778 -33.034  1.00  0.00     0.020 A 
HETATM   18  C   UNL     1      -6.330   4.333 -33.866  1.00  0.00     0.038 A 
HETATM   19  C   UNL     1      -7.583   4.942 -33.814  1.00  0.00     0.068 A 
HETATM   20  C   UNL     1      -7.784   6.026 -32.950  1.00  0.00     0.038 A 
HETATM   21  C   UNL     1      -6.755   6.480 -32.113  1.00  0.00     0.020 A 
BRANCH  19  22
HETATM   22  O   UNL     1      -8.679   4.560 -34.543  1.00  0.00    -0.351 OA
BRANCH  22  23
HETATM   23  C   UNL     1      -9.743   5.512 -34.633  1.00  0.00     0.175 C 
BRANCH  23  24
HETATM   24  C   UNL     1     -10.966   4.853 -35.265  1.00  0.00     0.022 C 
HETATM   25  C   UNL     1     -11.156   3.418 -34.794  1.00  0.00     0.007 C 
ENDBRANCH  23  24
ENDBRANCH  22  23
ENDBRANCH  19  22
ENDBRANCH  13  16
ENDBRANCH  10  12
ENDBRANCH   8  10
ENDBRANCH   1   8
BRANCH   3  26
HETATM   26  C   UNL     1      -6.494   0.337 -32.231  1.00  0.00     0.112 A 
HETATM   27  S   UNL     1      -4.852  -0.153 -32.071  1.00  0.00    -0.067 SA
HETATM   28  C   UNL     1      -5.118  -1.446 -33.173  1.00  0.00     0.035 A 
HETATM   29  C   UNL     1      -6.435  -1.388 -33.628  1.00  0.00     0.075 A 
HETATM   30  C   UNL     1      -4.226  -2.443 -33.603  1.00  0.00     0.021 A 
HETATM   31  N   UNL     1      -7.196  -0.356 -33.103  1.00  0.00    -0.239 NA
HETATM   32  C   UNL     1      -6.877  -2.357 -34.550  1.00  0.00     0.033 A 
HETATM   33  C   UNL     1      -6.000  -3.357 -34.984  1.00  0.00     0.002 A 
HETATM   34  C   UNL     1      -4.691  -3.398 -34.513  1.00  0.00     0.002 A 
ENDBRANCH   3  26
BRANCH   4  35
HETATM   35  O   UNL     1      -9.251   1.453 -32.483  1.00  0.00    -0.359 OA
HETATM   36  H   UNL     1      -9.312   2.015 -33.273  1.00  0.00     0.218 HD
ENDBRANCH   4  35
TORSDOF 9
ENDMDL
MODEL 5
REMARK VINA RESULT:      -7.2     16.191     18.362
REMARK  9 active torsions:
REMARK  status: ('A' for Active; 'I' for Inactive)
REMARK    1  A    between atoms: C_2  and  C_3 
REMARK    2  A    between atoms: C_3  and  O_4 
REMARK    3  A    between atoms: O_4  and  C_5 
REMARK    4  A    between atoms: C_8  and  C_9 
REMARK       I    between atoms: C_9  and  N_10 
REMARK    5  A    between atoms: N_10  and  C_11 
REMARK    6  A    between atoms: C_11  and  N_12 
REMARK    7  A    between atoms: N_12  and  C_13 
REMARK    8  A    between atoms: C_15  and  C_16 
REMARK    9  A    between atoms: C_25  and  O_26 
ROOT
HETATM    1  C   UNL     1      -8.293 -15.873 -39.204  1.00  0.00     0.035 A 
HETATM    2  C   UNL     1      -7.856 -15.787 -37.876  1.00  0.00     0.046 A 
HETATM    3  C   UNL     1      -6.489 -15.875 -37.542  1.00  0.00     0.036 A 
HETATM    4  C   UNL     1      -5.564 -16.071 -38.584  1.00  0.00     0.084 A 
HETATM    5  C   UNL     1      -5.990 -16.205 -39.915  1.00  0.00    -0.026 A 
HETATM    6  C   UNL     1      -5.010 -16.469 -41.026  1.00  0.00     0.051 C 
HETATM    7  C   UNL     1      -7.359 -16.128 -40.208  1.00  0.00     0.039 A 
ENDROOT
BRANCH   1   8
HETATM    8  N   UNL     1      -9.672 -15.707 -39.448  1.00  0.00    -0.333 N 
HETATM    9  H   UNL     1     -10.301 -16.106 -38.757  1.00  0.00     0.168 HD
BRANCH   8  10
HETATM   10  C   UNL     1     -10.339 -14.962 -40.398  1.00  0.00     0.179 C 
HETATM   11  S   UNL     1     -10.867 -15.774 -41.758  1.00  0.00    -0.040 SA
BRANCH  10  12
HETATM   12  N   UNL     1     -10.595 -13.641 -40.060  1.00  0.00    -0.299 N 
HETATM   13  C   UNL     1      -9.872 -12.461 -40.170  1.00  0.00     0.257 C 
HETATM   14  O   UNL     1     -10.468 -11.439 -40.515  1.00  0.00    -0.267 OA
HETATM   15  H   UNL     1     -11.561 -13.401 -40.243  1.00  0.00     0.171 HD
BRANCH  13  16
HETATM   16  C   UNL     1      -8.418 -12.383 -39.916  1.00  0.00     0.032 A 
HETATM   17  C   UNL     1      -8.009 -12.289 -38.580  1.00  0.00     0.020 A 
HETATM   18  C   UNL     1      -6.653 -12.325 -38.250  1.00  0.00     0.038 A 
HETATM   19  C   UNL     1      -5.696 -12.484 -39.252  1.00  0.00     0.068 A 
HETATM   20  C   UNL     1      -6.106 -12.564 -40.588  1.00  0.00     0.038 A 
HETATM   21  C   UNL     1      -7.466 -12.525 -40.927  1.00  0.00     0.020 A 
BRANCH  19  22
HETATM   22  O   UNL     1      -4.345 -12.584 -39.044  1.00  0.00    -0.351 OA
BRANCH  22  23
HETATM   23  C   UNL     1      -3.914 -12.620 -37.681  1.00  0.00     0.175 C 
BRANCH  23  24
HETATM   24  C   UNL     1      -2.489 -13.163 -37.609  1.00  0.00     0.022 C 
HETATM   25  C   UNL     1      -1.497 -12.276 -38.347  1.00  0.00     0.007 C 
ENDBRANCH  23  24
ENDBRANCH  22  23
ENDBRANCH  19  22
ENDBRANCH  13  16
ENDBRANCH  10  12
ENDBRANCH   8  10
ENDBRANCH   1   8
BRANCH   3  26
HETATM   26  C   UNL     1      -6.120 -15.687 -36.129  1.00  0.00     0.112 A 
HETATM   27  S   UNL     1      -6.833 -14.443 -35.175  1.00  0.00    -0.067 SA
HETATM   28  C   UNL     1      -5.946 -14.973 -33.801  1.00  0.00     0.035 A 
HETATM   29  C   UNL     1      -5.125 -16.036 -34.175  1.00  0.00     0.075 A 
HETATM   30  C   UNL     1      -5.974 -14.483 -32.484  1.00  0.00     0.021 A 
HETATM   31  N   UNL     1      -5.218 -16.415 -35.504  1.00  0.00    -0.239 NA
HETATM   32  C   UNL     1      -4.299 -16.631 -33.200  1.00  0.00     0.033 A 
HETATM   33  C   UNL     1      -4.321 -16.155 -31.884  1.00  0.00     0.002 A 
HETATM   34  C   UNL     1      -5.151 -15.095 -31.533  1.00  0.00     0.002 A 
ENDBRANCH   3  26
BRANCH   4  35
HETATM   35  O   UNL     1      -4.209 -16.114 -38.382  1.00  0.00    -0.359 OA
HETATM   36  H   UNL     1      -3.924 -15.336 -37.875  1.00  0.00     0.218 HD
ENDBRANCH   4  35
TORSDOF 9
ENDMDL
MODEL 6
REMARK VINA RESULT:      -7.2     16.045     17.796
REMARK  9 active torsions:
REMARK  status: ('A' for Active; 'I' for Inactive)
REMARK    1  A    between atoms: C_2  and  C_3 
REMARK    2  A    between atoms: C_3  and  O_4 
REMARK    3  A    between atoms: O_4  and  C_5 
REMARK    4  A    between atoms: C_8  and  C_9 
REMARK       I    between atoms: C_9  and  N_10 
REMARK    5  A    between atoms: N_10  and  C_11 
REMARK    6  A    between atoms: C_11  and  N_12 
REMARK    7  A    between atoms: N_12  and  C_13 
REMARK    8  A    between atoms: C_15  and  C_16 
REMARK    9  A    between atoms: C_25  and  O_26 
ROOT
HETATM    1  C   UNL     1      -4.629 -15.927 -35.182  1.00  0.00     0.035 A 
HETATM    2  C   UNL     1      -5.630 -15.824 -36.156  1.00  0.00     0.046 A 
HETATM    3  C   UNL     1      -6.638 -14.843 -36.076  1.00  0.00     0.036 A 
HETATM    4  C   UNL     1      -6.626 -13.969 -34.974  1.00  0.00     0.084 A 
HETATM    5  C   UNL     1      -5.656 -14.088 -33.965  1.00  0.00    -0.026 A 
HETATM    6  C   UNL     1      -5.671 -13.192 -32.757  1.00  0.00     0.051 C 
HETATM    7  C   UNL     1      -4.677 -15.087 -34.070  1.00  0.00     0.039 A 
ENDROOT
BRANCH   1   8
HETATM    8  N   UNL     1      -3.624 -16.897 -35.381  1.00  0.00    -0.333 N 
HETATM    9  H   UNL     1      -3.883 -17.703 -35.943  1.00  0.00     0.168 HD
BRANCH   8  10
HETATM   10  C   UNL     1      -2.280 -16.885 -35.067  1.00  0.00     0.179 C 
HETATM   11  S   UNL     1      -1.874 -17.224 -33.483  1.00  0.00    -0.040 SA
BRANCH  10  12
HETATM   12  N   UNL     1      -1.412 -16.703 -36.133  1.00  0.00    -0.299 N 
HETATM   13  C   UNL     1      -1.113 -15.629 -36.960  1.00  0.00     0.257 C 
HETATM   14  O   UNL     1       0.065 -15.437 -37.267  1.00  0.00    -0.267 OA
HETATM   15  H   UNL     1      -0.540 -17.194 -35.978  1.00  0.00     0.171 HD
BRANCH  13  16
HETATM   16  C   UNL     1      -2.140 -14.695 -37.465  1.00  0.00     0.032 A 
HETATM   17  C   UNL     1      -2.835 -15.077 -38.620  1.00  0.00     0.020 A 
HETATM   18  C   UNL     1      -3.896 -14.305 -39.096  1.00  0.00     0.038 A 
HETATM   19  C   UNL     1      -4.290 -13.158 -38.406  1.00  0.00     0.068 A 
HETATM   20  C   UNL     1      -3.584 -12.772 -37.259  1.00  0.00     0.038 A 
HETATM   21  C   UNL     1      -2.516 -13.541 -36.778  1.00  0.00     0.020 A 
BRANCH  19  22
HETATM   22  O   UNL     1      -5.344 -12.353 -38.747  1.00  0.00    -0.351 OA
BRANCH  22  23
HETATM   23  C   UNL     1      -5.331 -11.821 -40.075  1.00  0.00     0.175 C 
BRANCH  23  24
HETATM   24  C   UNL     1      -6.647 -12.153 -40.772  1.00  0.00     0.022 C 
HETATM   25  C   UNL     1      -6.660 -13.568 -41.336  1.00  0.00     0.007 C 
ENDBRANCH  23  24
ENDBRANCH  22  23
ENDBRANCH  19  22
ENDBRANCH  13  16
ENDBRANCH  10  12
ENDBRANCH   8  10
ENDBRANCH   1   8
BRANCH   3  26
HETATM   26  C   UNL     1      -7.596 -14.758 -37.192  1.00  0.00     0.112 A 
HETATM   27  S   UNL     1      -7.967 -16.132 -38.159  1.00  0.00    -0.067 SA
HETATM   28  C   UNL     1      -9.099 -15.205 -39.063  1.00  0.00     0.035 A 
HETATM   29  C   UNL     1      -9.081 -13.891 -38.596  1.00  0.00     0.075 A 
HETATM   30  C   UNL     1      -9.943 -15.610 -40.110  1.00  0.00     0.021 A 
HETATM   31  N   UNL     1      -8.206 -13.647 -37.550  1.00  0.00    -0.239 NA
HETATM   32  C   UNL     1      -9.935 -12.946 -39.199  1.00  0.00     0.033 A 
HETATM   33  C   UNL     1     -10.783 -13.338 -40.240  1.00  0.00     0.002 A 
HETATM   34  C   UNL     1     -10.787 -14.656 -40.687  1.00  0.00     0.002 A 
ENDBRANCH   3  26
BRANCH   4  35
HETATM   35  O   UNL     1      -7.522 -12.942 -34.823  1.00  0.00    -0.359 OA
HETATM   36  H   UNL     1      -7.137 -12.114 -35.155  1.00  0.00     0.218 HD
ENDBRANCH   4  35
TORSDOF 9
ENDMDL
MODEL 7
REMARK VINA RESULT:      -7.1      2.802      5.042
REMARK  9 active torsions:
REMARK  status: ('A' for Active; 'I' for Inactive)
REMARK    1  A    between atoms: C_2  and  C_3 
REMARK    2  A    between atoms: C_3  and  O_4 
REMARK    3  A    between atoms: O_4  and  C_5 
REMARK    4  A    between atoms: C_8  and  C_9 
REMARK       I    between atoms: C_9  and  N_10 
REMARK    5  A    between atoms: N_10  and  C_11 
REMARK    6  A    between atoms: C_11  and  N_12 
REMARK    7  A    between atoms: N_12  and  C_13 
REMARK    8  A    between atoms: C_15  and  C_16 
REMARK    9  A    between atoms: C_25  and  O_26 
ROOT
HETATM    1  C   UNL     1      -9.743   3.367 -31.239  1.00  0.00     0.035 A 
HETATM    2  C   UNL     1      -8.816   2.384 -31.602  1.00  0.00     0.046 A 
HETATM    3  C   UNL     1      -8.993   1.593 -32.755  1.00  0.00     0.036 A 
HETATM    4  C   UNL     1     -10.146   1.804 -33.533  1.00  0.00     0.084 A 
HETATM    5  C   UNL     1     -11.109   2.755 -33.157  1.00  0.00    -0.026 A 
HETATM    6  C   UNL     1     -12.370   2.947 -33.955  1.00  0.00     0.051 C 
HETATM    7  C   UNL     1     -10.907   3.513 -31.995  1.00  0.00     0.039 A 
ENDROOT
BRANCH   1   8
HETATM    8  N   UNL     1      -9.449   4.155 -30.107  1.00  0.00    -0.333 N 
HETATM    9  H   UNL     1      -9.778   3.797 -29.214  1.00  0.00     0.168 HD
BRANCH   8  10
HETATM   10  C   UNL     1      -8.654   5.274 -29.965  1.00  0.00     0.179 C 
HETATM   11  S   UNL     1      -7.480   5.219 -28.779  1.00  0.00    -0.040 SA
BRANCH  10  12
HETATM   12  N   UNL     1      -8.849   6.277 -30.902  1.00  0.00    -0.299 N 
HETATM   13  C   UNL     1      -8.491   6.434 -32.235  1.00  0.00     0.257 C 
HETATM   14  O   UNL     1      -9.312   6.934 -33.006  1.00  0.00    -0.267 OA
HETATM   15  H   UNL     1      -9.768   6.692 -30.804  1.00  0.00     0.171 HD
BRANCH  13  16
HETATM   16  C   UNL     1      -7.183   6.005 -32.770  1.00  0.00     0.032 A 
HETATM   17  C   UNL     1      -6.051   6.684 -32.304  1.00  0.00     0.020 A 
HETATM   18  C   UNL     1      -4.771   6.266 -32.674  1.00  0.00     0.038 A 
HETATM   19  C   UNL     1      -4.612   5.148 -33.492  1.00  0.00     0.068 A 
HETATM   20  C   UNL     1      -5.746   4.479 -33.969  1.00  0.00     0.038 A 
HETATM   21  C   UNL     1      -7.034   4.896 -33.603  1.00  0.00     0.020 A 
BRANCH  19  22
HETATM   22  O   UNL     1      -3.410   4.616 -33.879  1.00  0.00    -0.351 OA
BRANCH  22  23
HETATM   23  C   UNL     1      -2.760   5.255 -34.981  1.00  0.00     0.175 C 
BRANCH  23  24
HETATM   24  C   UNL     1      -1.313   5.568 -34.611  1.00  0.00     0.022 C 
HETATM   25  C   UNL     1      -1.205   6.753 -33.662  1.00  0.00     0.007 C 
ENDBRANCH  23  24
ENDBRANCH  22  23
ENDBRANCH  19  22
ENDBRANCH  13  16
ENDBRANCH  10  12
ENDBRANCH   8  10
ENDBRANCH   1   8
BRANCH   3  26
HETATM   26  C   UNL     1      -7.921   0.644 -33.102  1.00  0.00     0.112 A 
HETATM   27  S   UNL     1      -6.306   0.878 -32.552  1.00  0.00    -0.067 SA
HETATM   28  C   UNL     1      -5.825  -0.591 -33.305  1.00  0.00     0.035 A 
HETATM   29  C   UNL     1      -6.921  -1.139 -33.970  1.00  0.00     0.075 A 
HETATM   30  C   UNL     1      -4.566  -1.216 -33.307  1.00  0.00     0.021 A 
HETATM   31  N   UNL     1      -8.098  -0.414 -33.866  1.00  0.00    -0.239 NA
HETATM   32  C   UNL     1      -6.755  -2.353 -34.666  1.00  0.00     0.033 A 
HETATM   33  C   UNL     1      -5.508  -2.987 -34.672  1.00  0.00     0.002 A 
HETATM   34  C   UNL     1      -4.429  -2.424 -33.998  1.00  0.00     0.002 A 
ENDBRANCH   3  26
BRANCH   4  35
HETATM   35  O   UNL     1     -10.392   1.133 -34.703  1.00  0.00    -0.359 OA
HETATM   36  H   UNL     1     -11.241   1.422 -35.079  1.00  0.00     0.218 HD
ENDBRANCH   4  35
TORSDOF 9
ENDMDL
MODEL 8
REMARK VINA RESULT:      -7.1      3.095      4.444
REMARK  9 active torsions:
REMARK  status: ('A' for Active; 'I' for Inactive)
REMARK    1  A    between atoms: C_2  and  C_3 
REMARK    2  A    between atoms: C_3  and  O_4 
REMARK    3  A    between atoms: O_4  and  C_5 
REMARK    4  A    between atoms: C_8  and  C_9 
REMARK       I    between atoms: C_9  and  N_10 
REMARK    5  A    between atoms: N_10  and  C_11 
REMARK    6  A    between atoms: C_11  and  N_12 
REMARK    7  A    between atoms: N_12  and  C_13 
REMARK    8  A    between atoms: C_15  and  C_16 
REMARK    9  A    between atoms: C_25  and  O_26 
ROOT
HETATM    1  C   UNL     1      -6.665   3.561 -31.548  1.00  0.00     0.035 A 
HETATM    2  C   UNL     1      -6.695   2.290 -32.135  1.00  0.00     0.046 A 
HETATM    3  C   UNL     1      -5.512   1.622 -32.509  1.00  0.00     0.036 A 
HETATM    4  C   UNL     1      -4.286   2.276 -32.294  1.00  0.00     0.084 A 
HETATM    5  C   UNL     1      -4.240   3.569 -31.749  1.00  0.00    -0.026 A 
HETATM    6  C   UNL     1      -2.935   4.295 -31.567  1.00  0.00     0.051 C 
HETATM    7  C   UNL     1      -5.439   4.210 -31.403  1.00  0.00     0.039 A 
ENDROOT
BRANCH   1   8
HETATM    8  N   UNL     1      -7.894   4.123 -31.145  1.00  0.00    -0.333 N 
HETATM    9  H   UNL     1      -8.136   4.015 -30.163  1.00  0.00     0.168 HD
BRANCH   8  10
HETATM   10  C   UNL     1      -8.782   4.935 -31.819  1.00  0.00     0.179 C 
HETATM   11  S   UNL     1      -9.874   5.791 -30.890  1.00  0.00    -0.040 SA
BRANCH  10  12
HETATM   12  N   UNL     1      -8.591   5.034 -33.189  1.00  0.00    -0.299 N 
HETATM   13  C   UNL     1      -9.421   4.884 -34.292  1.00  0.00     0.257 C 
HETATM   14  O   UNL     1      -9.298   5.675 -35.228  1.00  0.00    -0.267 OA
HETATM   15  H   UNL     1      -7.955   5.789 -33.412  1.00  0.00     0.171 HD
BRANCH  13  16
HETATM   16  C   UNL     1     -10.459   3.836 -34.378  1.00  0.00     0.032 A 
HETATM   17  C   UNL     1     -11.682   4.198 -34.958  1.00  0.00     0.020 A 
HETATM   18  C   UNL     1     -12.672   3.240 -35.180  1.00  0.00     0.038 A 
HETATM   19  C   UNL     1     -12.438   1.905 -34.848  1.00  0.00     0.068 A 
HETATM   20  C   UNL     1     -11.221   1.549 -34.255  1.00  0.00     0.038 A 
HETATM   21  C   UNL     1     -10.223   2.507 -34.027  1.00  0.00     0.020 A 
BRANCH  19  22
HETATM   22  O   UNL     1     -13.312   0.873 -35.064  1.00  0.00    -0.351 OA
BRANCH  22  23
HETATM   23  C   UNL     1     -14.616   1.016 -34.494  1.00  0.00     0.175 C 
BRANCH  23  24
HETATM   24  C   UNL     1     -14.504   1.100 -32.974  1.00  0.00     0.022 C 
HETATM   25  C   UNL     1     -15.417   2.168 -32.388  1.00  0.00     0.007 C 
ENDBRANCH  23  24
ENDBRANCH  22  23
ENDBRANCH  19  22
ENDBRANCH  13  16
ENDBRANCH  10  12
ENDBRANCH   8  10
ENDBRANCH   1   8
BRANCH   3  26
HETATM   26  C   UNL     1      -5.642   0.254 -33.039  1.00  0.00     0.112 A 
HETATM   27  S   UNL     1      -7.141  -0.333 -33.647  1.00  0.00    -0.067 SA
HETATM   28  C   UNL     1      -6.401  -1.829 -34.062  1.00  0.00     0.035 A 
HETATM   29  C   UNL     1      -5.065  -1.798 -33.662  1.00  0.00     0.075 A 
HETATM   30  C   UNL     1      -6.961  -2.950 -34.697  1.00  0.00     0.021 A 
HETATM   31  N   UNL     1      -4.655  -0.619 -33.062  1.00  0.00    -0.239 NA
HETATM   32  C   UNL     1      -4.260  -2.930 -33.901  1.00  0.00     0.033 A 
HETATM   33  C   UNL     1      -4.805  -4.051 -34.536  1.00  0.00     0.002 A 
HETATM   34  C   UNL     1      -6.139  -4.057 -34.930  1.00  0.00     0.002 A 
ENDBRANCH   3  26
BRANCH   4  35
HETATM   35  O   UNL     1      -3.072   1.699 -32.567  1.00  0.00    -0.359 OA
HETATM   36  H   UNL     1      -2.922   0.946 -31.972  1.00  0.00     0.218 HD
ENDBRANCH   4  35
TORSDOF 9
ENDMDL
MODEL 9
REMARK VINA RESULT:      -7.1      2.949      4.955
REMARK  9 active torsions:
REMARK  status: ('A' for Active; 'I' for Inactive)
REMARK    1  A    between atoms: C_2  and  C_3 
REMARK    2  A    between atoms: C_3  and  O_4 
REMARK    3  A    between atoms: O_4  and  C_5 
REMARK    4  A    between atoms: C_8  and  C_9 
REMARK       I    between atoms: C_9  and  N_10 
REMARK    5  A    between atoms: N_10  and  C_11 
REMARK    6  A    between atoms: C_11  and  N_12 
REMARK    7  A    between atoms: N_12  and  C_13 
REMARK    8  A    between atoms: C_15  and  C_16 
REMARK    9  A    between atoms: C_25  and  O_26 
ROOT
HETATM    1  C   UNL     1      -9.258   3.106 -31.016  1.00  0.00     0.035 A 
HETATM    2  C   UNL     1      -8.720   2.032 -31.734  1.00  0.00     0.046 A 
HETATM    3  C   UNL     1      -7.362   1.674 -31.620  1.00  0.00     0.036 A 
HETATM    4  C   UNL     1      -6.544   2.441 -30.769  1.00  0.00     0.084 A 
HETATM    5  C   UNL     1      -7.058   3.549 -30.077  1.00  0.00    -0.026 A 
HETATM    6  C   UNL     1      -6.176   4.405 -29.209  1.00  0.00     0.051 C 
HETATM    7  C   UNL     1      -8.411   3.885 -30.228  1.00  0.00     0.039 A 
ENDROOT
BRANCH   1   8
HETATM    8  N   UNL     1     -10.642   3.348 -31.143  1.00  0.00    -0.333 N 
HETATM    9  H   UNL     1     -11.203   3.187 -30.310  1.00  0.00     0.168 HD
BRANCH   8  10
HETATM   10  C   UNL     1     -11.372   3.912 -32.169  1.00  0.00     0.179 C 
HETATM   11  S   UNL     1     -12.304   2.875 -33.088  1.00  0.00    -0.040 SA
BRANCH  10  12
HETATM   12  N   UNL     1     -11.334   5.296 -32.247  1.00  0.00    -0.299 N 
HETATM   13  C   UNL     1     -10.530   6.202 -32.925  1.00  0.00     0.257 C 
HETATM   14  O   UNL     1     -11.063   7.187 -33.438  1.00  0.00    -0.267 OA
HETATM   15  H   UNL     1     -12.270   5.684 -32.255  1.00  0.00     0.171 HD
BRANCH  13  16
HETATM   16  C   UNL     1      -9.072   6.021 -33.081  1.00  0.00     0.032 A 
HETATM   17  C   UNL     1      -8.243   6.810 -32.274  1.00  0.00     0.020 A 
HETATM   18  C   UNL     1      -6.860   6.620 -32.280  1.00  0.00     0.038 A 
HETATM   19  C   UNL     1      -6.296   5.620 -33.072  1.00  0.00     0.068 A 
HETATM   20  C   UNL     1      -7.126   4.842 -33.889  1.00  0.00     0.038 A 
HETATM   21  C   UNL     1      -8.516   5.030 -33.891  1.00  0.00     0.020 A 
BRANCH  19  22
HETATM   22  O   UNL     1      -4.963   5.309 -33.122  1.00  0.00    -0.351 OA
BRANCH  22  23
HETATM   23  C   UNL     1      -4.173   5.727 -32.005  1.00  0.00     0.175 C 
BRANCH  23  24
HETATM   24  C   UNL     1      -2.875   4.925 -31.967  1.00  0.00     0.022 C 
HETATM   25  C   UNL     1      -2.980   3.622 -32.748  1.00  0.00     0.007 C 
ENDBRANCH  23  24
ENDBRANCH  22  23
ENDBRANCH  19  22
ENDBRANCH  13  16
ENDBRANCH  10  12
ENDBRANCH   8  10
ENDBRANCH   1   8
BRANCH   3  26
HETATM   26  C   UNL     1      -6.909   0.477 -32.349  1.00  0.00     0.112 A 
HETATM   27  S   UNL     1      -7.970  -0.395 -33.386  1.00  0.00    -0.067 SA
HETATM   28  C   UNL     1      -6.695  -1.470 -33.806  1.00  0.00     0.035 A 
HETATM   29  C   UNL     1      -5.554  -1.120 -33.086  1.00  0.00     0.075 A 
HETATM   30  C   UNL     1      -6.704  -2.546 -34.709  1.00  0.00     0.021 A 
HETATM   31  N   UNL     1      -5.696  -0.028 -32.246  1.00  0.00    -0.239 NA
HETATM   32  C   UNL     1      -4.378  -1.874 -33.272  1.00  0.00     0.033 A 
HETATM   33  C   UNL     1      -4.373  -2.946 -34.171  1.00  0.00     0.002 A 
HETATM   34  C   UNL     1      -5.523  -3.275 -34.881  1.00  0.00     0.002 A 
ENDBRANCH   3  26
BRANCH   4  35
HETATM   35  O   UNL     1      -5.224   2.150 -30.538  1.00  0.00    -0.359 OA
HETATM   36  H   UNL     1      -5.152   1.452 -29.866  1.00  0.00     0.218 HD
ENDBRANCH   4  35
TORSDOF 9
ENDMDL
MODEL 10
REMARK VINA RESULT:      -7.0      3.068      7.251
REMARK  9 active torsions:
REMARK  status: ('A' for Active; 'I' for Inactive)
REMARK    1  A    between atoms: C_2  and  C_3 
REMARK    2  A    between atoms: C_3  and  O_4 
REMARK    3  A    between atoms: O_4  and  C_5 
REMARK    4  A    between atoms: C_8  and  C_9 
REMARK       I    between atoms: C_9  and  N_10 
REMARK    5  A    between atoms: N_10  and  C_11 
REMARK    6  A    between atoms: C_11  and  N_12 
REMARK    7  A    between atoms: N_12  and  C_13 
REMARK    8  A    between atoms: C_15  and  C_16 
REMARK    9  A    between atoms: C_25  and  O_26 
ROOT
HETATM    1  C   UNL     1      -7.733   0.971 -33.106  1.00  0.00     0.035 A 
HETATM    2  C   UNL     1      -9.120   1.093 -32.963  1.00  0.00     0.046 A 
HETATM    3  C   UNL     1      -9.781   2.315 -33.197  1.00  0.00     0.036 A 
HETATM    4  C   UNL     1      -9.004   3.428 -33.565  1.00  0.00     0.084 A 
HETATM    5  C   UNL     1      -7.607   3.334 -33.668  1.00  0.00    -0.026 A 
HETATM    6  C   UNL     1      -6.766   4.534 -34.008  1.00  0.00     0.051 C 
HETATM    7  C   UNL     1      -6.982   2.105 -33.412  1.00  0.00     0.039 A 
ENDROOT
BRANCH   1   8
HETATM    8  N   UNL     1      -7.168  -0.308 -32.916  1.00  0.00    -0.333 N 
HETATM    9  H   UNL     1      -7.756  -1.099 -33.164  1.00  0.00     0.168 HD
BRANCH   8  10
HETATM   10  C   UNL     1      -5.884  -0.690 -32.585  1.00  0.00     0.179 C 
HETATM   11  S   UNL     1      -4.901  -1.190 -33.838  1.00  0.00    -0.040 SA
BRANCH  10  12
HETATM   12  N   UNL     1      -5.523  -0.507 -31.259  1.00  0.00    -0.299 N 
HETATM   13  C   UNL     1      -5.387   0.607 -30.441  1.00  0.00     0.257 C 
HETATM   14  O   UNL     1      -5.786   0.531 -29.278  1.00  0.00    -0.267 OA
HETATM   15  H   UNL     1      -5.899  -1.244 -30.675  1.00  0.00     0.171 HD
BRANCH  13  16
HETATM   16  C   UNL     1      -4.811   1.884 -30.913  1.00  0.00     0.032 A 
HETATM   17  C   UNL     1      -5.387   3.062 -30.420  1.00  0.00     0.020 A 
HETATM   18  C   UNL     1      -4.830   4.304 -30.728  1.00  0.00     0.038 A 
HETATM   19  C   UNL     1      -3.677   4.378 -31.508  1.00  0.00     0.068 A 
HETATM   20  C   UNL     1      -3.112   3.200 -32.011  1.00  0.00     0.038 A 
HETATM   21  C   UNL     1      -3.667   1.948 -31.709  1.00  0.00     0.020 A 
BRANCH  19  22
HETATM   22  O   UNL     1      -3.015   5.533 -31.832  1.00  0.00    -0.351 OA
BRANCH  22  23
HETATM   23  C   UNL     1      -3.234   6.040 -33.151  1.00  0.00     0.175 C 
BRANCH  23  24
HETATM   24  C   UNL     1      -1.892   6.339 -33.815  1.00  0.00     0.022 C 
HETATM   25  C   UNL     1      -1.498   5.269 -34.824  1.00  0.00     0.007 C 
ENDBRANCH  23  24
ENDBRANCH  22  23
ENDBRANCH  19  22
ENDBRANCH  13  16
ENDBRANCH  10  12
ENDBRANCH   8  10
ENDBRANCH   1   8
BRANCH   3  26
HETATM   26  C   UNL     1     -11.251   2.323 -33.106  1.00  0.00     0.112 A 
HETATM   27  S   UNL     1     -12.198   1.061 -33.793  1.00  0.00    -0.067 SA
HETATM   28  C   UNL     1     -13.634   1.799 -33.200  1.00  0.00     0.035 A 
HETATM   29  C   UNL     1     -13.297   2.990 -32.558  1.00  0.00     0.075 A 
HETATM   30  C   UNL     1     -14.964   1.356 -33.296  1.00  0.00     0.021 A 
HETATM   31  N   UNL     1     -11.944   3.286 -32.533  1.00  0.00    -0.239 NA
HETATM   32  C   UNL     1     -14.326   3.770 -31.994  1.00  0.00     0.033 A 
HETATM   33  C   UNL     1     -15.655   3.338 -32.079  1.00  0.00     0.002 A 
HETATM   34  C   UNL     1     -15.966   2.144 -32.722  1.00  0.00     0.002 A 
ENDBRANCH   3  26
BRANCH   4  35
HETATM   35  O   UNL     1      -9.546   4.650 -33.872  1.00  0.00    -0.359 OA
HETATM   36  H   UNL     1      -9.981   4.612 -34.740  1.00  0.00     0.218 HD
ENDBRANCH   4  35
TORSDOF 9
ENDMDL
