MODEL 1
REMARK VINA RESULT:      -8.6      0.000      0.000
REMARK  5 active torsions:
REMARK  status: ('A' for Active; 'I' for Inactive)
REMARK    1  A    between atoms: C_4  and  O_5 
REMARK    2  A    between atoms: O_5  and  C_6 
REMARK    3  A    between atoms: C_6  and  C_7 
REMARK       I    between atoms: C_7  and  N_8 
REMARK    4  A    between atoms: N_8  and  N_9 
REMARK    5  A    between atoms: C_10  and  C_11 
ROOT
HETATM    1  C   UNL     1      -9.207   2.569 -34.230  1.00  0.00     0.261 C 
HETATM    2  N   UNL     1      -8.899   1.326 -34.775  1.00  0.00    -0.246 N 
HETATM    3  O   UNL     1      -8.424   3.329 -33.665  1.00  0.00    -0.269 OA
HETATM    4  H   UNL     1      -9.686   0.713 -34.983  1.00  0.00     0.192 HD
ENDROOT
BRANCH   2   5
HETATM    5  N   UNL     1      -7.682   0.687 -34.731  1.00  0.00    -0.184 NA
HETATM    6  C   UNL     1      -7.482  -0.221 -33.830  1.00  0.00     0.153 C 
BRANCH   6   7
HETATM    7  C   UNL     1      -6.223  -0.945 -33.770  1.00  0.00     0.018 A 
HETATM    8  C   UNL     1      -6.038  -2.313 -34.165  1.00  0.00     0.004 A 
HETATM    9  C   UNL     1      -4.700  -2.637 -33.945  1.00  0.00     0.043 A 
HETATM   10  C   UNL     1      -6.887  -3.306 -34.703  1.00  0.00     0.014 A 
HETATM   11  C   UNL     1      -4.170  -3.903 -34.223  1.00  0.00     0.030 A 
HETATM   12  N   UNL     1      -4.093  -1.513 -33.438  1.00  0.00    -0.358 N 
HETATM   13  C   UNL     1      -5.033  -4.867 -34.751  1.00  0.00     0.002 A 
HETATM   14  C   UNL     1      -6.373  -4.574 -34.990  1.00  0.00     0.001 A 
HETATM   15  H   UNL     1      -3.116  -1.462 -33.185  1.00  0.00     0.166 HD
HETATM   16  C   UNL     1      -4.993  -0.482 -33.323  1.00  0.00     0.018 A 
HETATM   17  C   UNL     1      -4.580   0.842 -32.785  1.00  0.00     0.069 C 
ENDBRANCH   6   7
ENDBRANCH   2   5
BRANCH   1  18
HETATM   18  C   UNL     1     -10.650   2.986 -34.493  1.00  0.00     0.280 C 
BRANCH  18  19
HETATM   19  O   UNL     1     -11.467   1.864 -34.816  1.00  0.00    -0.342 OA
BRANCH  19  20
HETATM   20  C   UNL     1     -12.683   1.847 -34.184  1.00  0.00     0.069 A 
HETATM   21  C   UNL     1     -13.130   2.819 -33.283  1.00  0.00     0.043 A 
HETATM   22  C   UNL     1     -14.388   2.705 -32.675  1.00  0.00    -0.059 A 
HETATM   23  C   UNL     1     -14.875   3.759 -31.725  1.00  0.00     0.048 C 
HETATM   24  C   UNL     1     -15.212   1.623 -33.008  1.00  0.00     0.007 A 
HETATM   25  C   UNL     1     -14.778   0.664 -33.924  1.00  0.00     0.003 A 
HETATM   26  C   UNL     1     -13.519   0.780 -34.513  1.00  0.00     0.037 A 
ENDBRANCH  19  20
ENDBRANCH  18  19
ENDBRANCH   1  18
TORSDOF 5
ENDMDL
MODEL 2
REMARK VINA RESULT:      -8.5      5.076      8.791
REMARK  5 active torsions:
REMARK  status: ('A' for Active; 'I' for Inactive)
REMARK    1  A    between atoms: C_4  and  O_5 
REMARK    2  A    between atoms: O_5  and  C_6 
REMARK    3  A    between atoms: C_6  and  C_7 
REMARK       I    between atoms: C_7  and  N_8 
REMARK    4  A    between atoms: N_8  and  N_9 
REMARK    5  A    between atoms: C_10  and  C_11 
ROOT
HETATM    1  C   UNL     1      -6.109   1.558 -31.671  1.00  0.00     0.261 C 
HETATM    2  N   UNL     1      -4.795   1.845 -32.028  1.00  0.00    -0.246 N 
HETATM    3  O   UNL     1      -7.007   2.375 -31.486  1.00  0.00    -0.269 OA
HETATM    4  H   UNL     1      -4.115   1.096 -31.903  1.00  0.00     0.192 HD
ENDROOT
BRANCH   2   5
HETATM    5  N   UNL     1      -4.237   3.093 -32.181  1.00  0.00    -0.184 NA
HETATM    6  C   UNL     1      -3.092   3.200 -32.775  1.00  0.00     0.153 C 
BRANCH   6   7
HETATM    7  C   UNL     1      -2.483   4.503 -32.988  1.00  0.00     0.018 A 
HETATM    8  C   UNL     1      -1.502   5.106 -32.130  1.00  0.00     0.004 A 
HETATM    9  C   UNL     1      -1.183   6.352 -32.667  1.00  0.00     0.043 A 
HETATM   10  C   UNL     1      -0.847   4.699 -30.947  1.00  0.00     0.014 A 
HETATM   11  C   UNL     1      -0.251   7.216 -32.079  1.00  0.00     0.030 A 
HETATM   12  N   UNL     1      -1.935   6.502 -33.808  1.00  0.00    -0.358 N 
HETATM   13  C   UNL     1       0.380   6.790 -30.907  1.00  0.00     0.002 A 
HETATM   14  C   UNL     1       0.089   5.548 -30.347  1.00  0.00     0.001 A 
HETATM   15  H   UNL     1      -1.904   7.318 -34.402  1.00  0.00     0.166 HD
HETATM   16  C   UNL     1      -2.727   5.400 -34.019  1.00  0.00     0.018 A 
HETATM   17  C   UNL     1      -3.647   5.327 -35.186  1.00  0.00     0.069 C 
ENDBRANCH   6   7
ENDBRANCH   2   5
BRANCH   1  18
HETATM   18  C   UNL     1      -6.392   0.060 -31.624  1.00  0.00     0.280 C 
BRANCH  18  19
HETATM   19  O   UNL     1      -6.956  -0.404 -32.847  1.00  0.00    -0.342 OA
BRANCH  19  20
HETATM   20  C   UNL     1      -6.276  -1.443 -33.427  1.00  0.00     0.069 A 
HETATM   21  C   UNL     1      -6.863  -2.448 -34.204  1.00  0.00     0.043 A 
HETATM   22  C   UNL     1      -6.083  -3.481 -34.743  1.00  0.00    -0.059 A 
HETATM   23  C   UNL     1      -6.711  -4.547 -35.593  1.00  0.00     0.048 C 
HETATM   24  C   UNL     1      -4.700  -3.476 -34.526  1.00  0.00     0.007 A 
HETATM   25  C   UNL     1      -4.109  -2.464 -33.772  1.00  0.00     0.003 A 
HETATM   26  C   UNL     1      -4.896  -1.447 -33.229  1.00  0.00     0.037 A 
ENDBRANCH  19  20
ENDBRANCH  18  19
ENDBRANCH   1  18
TORSDOF 5
ENDMDL
MODEL 3
REMARK VINA RESULT:      -8.3      4.571      8.342
REMARK  5 active torsions:
REMARK  status: ('A' for Active; 'I' for Inactive)
REMARK    1  A    between atoms: C_4  and  O_5 
REMARK    2  A    between atoms: O_5  and  C_6 
REMARK    3  A    between atoms: C_6  and  C_7 
REMARK       I    between atoms: C_7  and  N_8 
REMARK    4  A    between atoms: N_8  and  N_9 
REMARK    5  A    between atoms: C_10  and  C_11 
ROOT
HETATM    1  C   UNL     1      -4.814   2.577 -31.152  1.00  0.00     0.261 C 
HETATM    2  N   UNL     1      -4.709   2.035 -32.430  1.00  0.00    -0.246 N 
HETATM    3  O   UNL     1      -5.533   2.164 -30.244  1.00  0.00    -0.269 OA
HETATM    4  H   UNL     1      -4.271   2.623 -33.138  1.00  0.00     0.192 HD
ENDROOT
BRANCH   2   5
HETATM    5  N   UNL     1      -5.428   0.980 -32.938  1.00  0.00    -0.184 NA
HETATM    6  C   UNL     1      -4.802   0.043 -33.577  1.00  0.00     0.153 C 
BRANCH   6   7
HETATM    7  C   UNL     1      -5.520  -1.108 -34.101  1.00  0.00     0.018 A 
HETATM    8  C   UNL     1      -5.052  -2.464 -34.051  1.00  0.00     0.004 A 
HETATM    9  C   UNL     1      -6.014  -3.264 -34.666  1.00  0.00     0.043 A 
HETATM   10  C   UNL     1      -3.898  -3.089 -33.526  1.00  0.00     0.014 A 
HETATM   11  C   UNL     1      -5.879  -4.652 -34.794  1.00  0.00     0.030 A 
HETATM   12  N   UNL     1      -7.028  -2.431 -35.072  1.00  0.00    -0.358 N 
HETATM   13  C   UNL     1      -4.726  -5.243 -34.270  1.00  0.00     0.002 A 
HETATM   14  C   UNL     1      -3.749  -4.474 -33.642  1.00  0.00     0.001 A 
HETATM   15  H   UNL     1      -7.861  -2.744 -35.550  1.00  0.00     0.166 HD
HETATM   16  C   UNL     1      -6.750  -1.126 -34.743  1.00  0.00     0.018 A 
HETATM   17  C   UNL     1      -7.692  -0.029 -35.091  1.00  0.00     0.069 C 
ENDBRANCH   6   7
ENDBRANCH   2   5
BRANCH   1  18
HETATM   18  C   UNL     1      -3.839   3.725 -30.916  1.00  0.00     0.280 C 
BRANCH  18  19
HETATM   19  O   UNL     1      -2.615   3.522 -31.616  1.00  0.00    -0.342 OA
BRANCH  19  20
HETATM   20  C   UNL     1      -1.876   4.661 -31.810  1.00  0.00     0.069 A 
HETATM   21  C   UNL     1      -1.123   5.302 -30.821  1.00  0.00     0.043 A 
HETATM   22  C   UNL     1      -0.410   6.473 -31.114  1.00  0.00    -0.059 A 
HETATM   23  C   UNL     1       0.415   7.149 -30.058  1.00  0.00     0.048 C 
HETATM   24  C   UNL     1      -0.431   6.976 -32.420  1.00  0.00     0.007 A 
HETATM   25  C   UNL     1      -1.163   6.326 -33.413  1.00  0.00     0.003 A 
HETATM   26  C   UNL     1      -1.879   5.168 -33.109  1.00  0.00     0.037 A 
ENDBRANCH  19  20
ENDBRANCH  18  19
ENDBRANCH   1  18
TORSDOF 5
ENDMDL
MODEL 4
REMARK VINA RESULT:      -8.2      5.388      9.148
REMARK  5 active torsions:
REMARK  status: ('A' for Active; 'I' for Inactive)
REMARK    1  A    between atoms: C_4  and  O_5 
REMARK    2  A    between atoms: O_5  and  C_6 
REMARK    3  A    between atoms: C_6  and  C_7 
REMARK       I    between atoms: C_7  and  N_8 
REMARK    4  A    between atoms: N_8  and  N_9 
REMARK    5  A    between atoms: C_10  and  C_11 
ROOT
HETATM    1  C   UNL     1      -3.120   0.275 -31.352  1.00  0.00     0.261 C 
HETATM    2  N   UNL     1      -3.935   1.312 -31.794  1.00  0.00    -0.246 N 
HETATM    3  O   UNL     1      -2.091   0.390 -30.689  1.00  0.00    -0.269 OA
HETATM    4  H   UNL     1      -4.601   1.086 -32.531  1.00  0.00     0.192 HD
ENDROOT
BRANCH   2   5
HETATM    5  N   UNL     1      -3.715   2.660 -31.628  1.00  0.00    -0.184 NA
HETATM    6  C   UNL     1      -3.070   3.308 -32.545  1.00  0.00     0.153 C 
BRANCH   6   7
HETATM    7  C   UNL     1      -2.846   4.739 -32.426  1.00  0.00     0.018 A 
HETATM    8  C   UNL     1      -1.665   5.346 -31.878  1.00  0.00     0.004 A 
HETATM    9  C   UNL     1      -1.841   6.728 -31.928  1.00  0.00     0.043 A 
HETATM   10  C   UNL     1      -0.454   4.844 -31.352  1.00  0.00     0.014 A 
HETATM   11  C   UNL     1      -0.875   7.633 -31.471  1.00  0.00     0.030 A 
HETATM   12  N   UNL     1      -3.076   6.956 -32.486  1.00  0.00    -0.358 N 
HETATM   13  C   UNL     1       0.312   7.110 -30.952  1.00  0.00     0.002 A 
HETATM   14  C   UNL     1       0.523   5.734 -30.894  1.00  0.00     0.001 A 
HETATM   15  H   UNL     1      -3.466   7.874 -32.643  1.00  0.00     0.166 HD
HETATM   16  C   UNL     1      -3.700   5.770 -32.792  1.00  0.00     0.018 A 
HETATM   17  C   UNL     1      -5.059   5.751 -33.395  1.00  0.00     0.069 C 
ENDBRANCH   6   7
ENDBRANCH   2   5
BRANCH   1  18
HETATM   18  C   UNL     1      -3.686  -1.102 -31.684  1.00  0.00     0.280 C 
BRANCH  18  19
HETATM   19  O   UNL     1      -3.615  -1.372 -33.081  1.00  0.00    -0.342 OA
BRANCH  19  20
HETATM   20  C   UNL     1      -4.781  -1.842 -33.628  1.00  0.00     0.069 A 
HETATM   21  C   UNL     1      -4.909  -3.053 -34.317  1.00  0.00     0.043 A 
HETATM   22  C   UNL     1      -6.145  -3.441 -34.854  1.00  0.00    -0.059 A 
HETATM   23  C   UNL     1      -6.287  -4.749 -35.575  1.00  0.00     0.048 C 
HETATM   24  C   UNL     1      -7.261  -2.618 -34.662  1.00  0.00     0.007 A 
HETATM   25  C   UNL     1      -7.141  -1.422 -33.956  1.00  0.00     0.003 A 
HETATM   26  C   UNL     1      -5.905  -1.039 -33.436  1.00  0.00     0.037 A 
ENDBRANCH  19  20
ENDBRANCH  18  19
ENDBRANCH   1  18
TORSDOF 5
ENDMDL
MODEL 5
REMARK VINA RESULT:      -8.2      1.660      2.110
REMARK  5 active torsions:
REMARK  status: ('A' for Active; 'I' for Inactive)
REMARK    1  A    between atoms: C_4  and  O_5 
REMARK    2  A    between atoms: O_5  and  C_6 
REMARK    3  A    between atoms: C_6  and  C_7 
REMARK       I    between atoms: C_7  and  N_8 
REMARK    4  A    between atoms: N_8  and  N_9 
REMARK    5  A    between atoms: C_10  and  C_11 
ROOT
HETATM    1  C   UNL     1      -7.511   3.409 -34.027  1.00  0.00     0.261 C 
HETATM    2  N   UNL     1      -7.634   2.025 -34.114  1.00  0.00    -0.246 N 
HETATM    3  O   UNL     1      -6.463   4.050 -34.061  1.00  0.00    -0.269 OA
HETATM    4  H   UNL     1      -8.525   1.628 -33.823  1.00  0.00     0.192 HD
ENDROOT
BRANCH   2   5
HETATM    5  N   UNL     1      -6.609   1.112 -34.194  1.00  0.00    -0.184 NA
HETATM    6  C   UNL     1      -6.610   0.095 -33.391  1.00  0.00     0.153 C 
BRANCH   6   7
HETATM    7  C   UNL     1      -5.564  -0.912 -33.465  1.00  0.00     0.018 A 
HETATM    8  C   UNL     1      -5.731  -2.238 -33.992  1.00  0.00     0.004 A 
HETATM    9  C   UNL     1      -4.507  -2.894 -33.874  1.00  0.00     0.043 A 
HETATM   10  C   UNL     1      -6.813  -2.937 -34.571  1.00  0.00     0.014 A 
HETATM   11  C   UNL     1      -4.311  -4.215 -34.294  1.00  0.00     0.030 A 
HETATM   12  N   UNL     1      -3.629  -2.006 -33.302  1.00  0.00    -0.358 N 
HETATM   13  C   UNL     1      -5.398  -4.886 -34.860  1.00  0.00     0.002 A 
HETATM   14  C   UNL     1      -6.633  -4.257 -34.999  1.00  0.00     0.001 A 
HETATM   15  H   UNL     1      -2.662  -2.217 -33.098  1.00  0.00     0.166 HD
HETATM   16  C   UNL     1      -4.246  -0.805 -33.045  1.00  0.00     0.018 A 
HETATM   17  C   UNL     1      -3.506   0.319 -32.412  1.00  0.00     0.069 C 
ENDBRANCH   6   7
ENDBRANCH   2   5
BRANCH   1  18
HETATM   18  C   UNL     1      -8.860   4.118 -33.984  1.00  0.00     0.280 C 
BRANCH  18  19
HETATM   19  O   UNL     1      -9.782   3.436 -33.138  1.00  0.00    -0.342 OA
BRANCH  19  20
HETATM   20  C   UNL     1     -10.816   2.826 -33.800  1.00  0.00     0.069 A 
HETATM   21  C   UNL     1     -11.455   1.655 -33.379  1.00  0.00     0.043 A 
HETATM   22  C   UNL     1     -12.497   1.099 -34.135  1.00  0.00    -0.059 A 
HETATM   23  C   UNL     1     -13.195  -0.146 -33.672  1.00  0.00     0.048 C 
HETATM   24  C   UNL     1     -12.917   1.751 -35.300  1.00  0.00     0.007 A 
HETATM   25  C   UNL     1     -12.297   2.931 -35.710  1.00  0.00     0.003 A 
HETATM   26  C   UNL     1     -11.253   3.469 -34.958  1.00  0.00     0.037 A 
ENDBRANCH  19  20
ENDBRANCH  18  19
ENDBRANCH   1  18
TORSDOF 5
ENDMDL
MODEL 6
REMARK VINA RESULT:      -8.2      2.059      8.504
REMARK  5 active torsions:
REMARK  status: ('A' for Active; 'I' for Inactive)
REMARK    1  A    between atoms: C_4  and  O_5 
REMARK    2  A    between atoms: O_5  and  C_6 
REMARK    3  A    between atoms: C_6  and  C_7 
REMARK       I    between atoms: C_7  and  N_8 
REMARK    4  A    between atoms: N_8  and  N_9 
REMARK    5  A    between atoms: C_10  and  C_11 
ROOT
HETATM    1  C   UNL     1      -6.557   0.824 -32.142  1.00  0.00     0.261 C 
HETATM    2  N   UNL     1      -7.811   0.446 -32.613  1.00  0.00    -0.246 N 
HETATM    3  O   UNL     1      -6.319   1.752 -31.372  1.00  0.00    -0.269 OA
HETATM    4  H   UNL     1      -7.826  -0.170 -33.425  1.00  0.00     0.192 HD
ENDROOT
BRANCH   2   5
HETATM    5  N   UNL     1      -9.009   1.071 -32.358  1.00  0.00    -0.184 NA
HETATM    6  C   UNL     1      -9.615   1.686 -33.324  1.00  0.00     0.153 C 
BRANCH   6   7
HETATM    7  C   UNL     1     -10.899   2.331 -33.106  1.00  0.00     0.018 A 
HETATM    8  C   UNL     1     -12.179   1.714 -33.317  1.00  0.00     0.004 A 
HETATM    9  C   UNL     1     -13.157   2.658 -33.010  1.00  0.00     0.043 A 
HETATM   10  C   UNL     1     -12.595   0.429 -33.731  1.00  0.00     0.014 A 
HETATM   11  C   UNL     1     -14.528   2.390 -33.107  1.00  0.00     0.030 A 
HETATM   12  N   UNL     1     -12.502   3.804 -32.626  1.00  0.00    -0.358 N 
HETATM   13  C   UNL     1     -14.912   1.113 -33.523  1.00  0.00     0.002 A 
HETATM   14  C   UNL     1     -13.961   0.143 -33.830  1.00  0.00     0.001 A 
HETATM   15  H   UNL     1     -12.968   4.656 -32.347  1.00  0.00     0.166 HD
HETATM   16  C   UNL     1     -11.140   3.629 -32.677  1.00  0.00     0.018 A 
HETATM   17  C   UNL     1     -10.210   4.733 -32.320  1.00  0.00     0.069 C 
ENDBRANCH   6   7
ENDBRANCH   2   5
BRANCH   1  18
HETATM   18  C   UNL     1      -5.448  -0.117 -32.599  1.00  0.00     0.280 C 
BRANCH  18  19
HETATM   19  O   UNL     1      -5.616  -0.498 -33.961  1.00  0.00    -0.342 OA
BRANCH  19  20
HETATM   20  C   UNL     1      -5.558  -1.850 -34.184  1.00  0.00     0.069 A 
HETATM   21  C   UNL     1      -4.448  -2.658 -33.915  1.00  0.00     0.043 A 
HETATM   22  C   UNL     1      -4.482  -4.032 -34.192  1.00  0.00    -0.059 A 
HETATM   23  C   UNL     1      -3.298  -4.902 -33.884  1.00  0.00     0.048 C 
HETATM   24  C   UNL     1      -5.655  -4.596 -34.707  1.00  0.00     0.007 A 
HETATM   25  C   UNL     1      -6.771  -3.797 -34.954  1.00  0.00     0.003 A 
HETATM   26  C   UNL     1      -6.723  -2.429 -34.687  1.00  0.00     0.037 A 
ENDBRANCH  19  20
ENDBRANCH  18  19
ENDBRANCH   1  18
TORSDOF 5
ENDMDL
MODEL 7
REMARK VINA RESULT:      -7.9      6.252     10.072
REMARK  5 active torsions:
REMARK  status: ('A' for Active; 'I' for Inactive)
REMARK    1  A    between atoms: C_4  and  O_5 
REMARK    2  A    between atoms: O_5  and  C_6 
REMARK    3  A    between atoms: C_6  and  C_7 
REMARK       I    between atoms: C_7  and  N_8 
REMARK    4  A    between atoms: N_8  and  N_9 
REMARK    5  A    between atoms: C_10  and  C_11 
ROOT
HETATM    1  C   UNL     1      -1.944   4.748 -31.813  1.00  0.00     0.261 C 
HETATM    2  N   UNL     1      -2.696   3.681 -31.329  1.00  0.00    -0.246 N 
HETATM    3  O   UNL     1      -1.446   4.838 -32.932  1.00  0.00    -0.269 OA
HETATM    4  H   UNL     1      -2.827   3.636 -30.320  1.00  0.00     0.192 HD
ENDROOT
BRANCH   2   5
HETATM    5  N   UNL     1      -2.973   2.505 -31.987  1.00  0.00    -0.184 NA
HETATM    6  C   UNL     1      -4.147   1.974 -31.856  1.00  0.00     0.153 C 
BRANCH   6   7
HETATM    7  C   UNL     1      -4.493   0.750 -32.560  1.00  0.00     0.018 A 
HETATM    8  C   UNL     1      -5.619   0.593 -33.437  1.00  0.00     0.004 A 
HETATM    9  C   UNL     1      -5.610  -0.722 -33.900  1.00  0.00     0.043 A 
HETATM   10  C   UNL     1      -6.641   1.456 -33.889  1.00  0.00     0.014 A 
HETATM   11  C   UNL     1      -6.576  -1.222 -34.782  1.00  0.00     0.030 A 
HETATM   12  N   UNL     1      -4.523  -1.341 -33.331  1.00  0.00    -0.358 N 
HETATM   13  C   UNL     1      -7.579  -0.348 -35.211  1.00  0.00     0.002 A 
HETATM   14  C   UNL     1      -7.612   0.974 -34.774  1.00  0.00     0.001 A 
HETATM   15  H   UNL     1      -4.272  -2.306 -33.493  1.00  0.00     0.166 HD
HETATM   16  C   UNL     1      -3.836  -0.472 -32.518  1.00  0.00     0.018 A 
HETATM   17  C   UNL     1      -2.624  -0.911 -31.776  1.00  0.00     0.069 C 
ENDBRANCH   6   7
ENDBRANCH   2   5
BRANCH   1  18
HETATM   18  C   UNL     1      -1.865   5.908 -30.825  1.00  0.00     0.280 C 
BRANCH  18  19
HETATM   19  O   UNL     1      -0.574   6.000 -30.231  1.00  0.00    -0.342 OA
BRANCH  19  20
HETATM   20  C   UNL     1      -0.498   6.866 -29.171  1.00  0.00     0.069 A 
HETATM   21  C   UNL     1       0.681   7.458 -28.706  1.00  0.00     0.043 A 
HETATM   22  C   UNL     1       0.659   8.322 -27.602  1.00  0.00    -0.059 A 
HETATM   23  C   UNL     1       1.921   8.972 -27.116  1.00  0.00     0.048 C 
HETATM   24  C   UNL     1      -0.565   8.617 -26.991  1.00  0.00     0.007 A 
HETATM   25  C   UNL     1      -1.745   8.047 -27.467  1.00  0.00     0.003 A 
HETATM   26  C   UNL     1      -1.711   7.178 -28.558  1.00  0.00     0.037 A 
ENDBRANCH  19  20
ENDBRANCH  18  19
ENDBRANCH   1  18
TORSDOF 5
ENDMDL
MODEL 8
REMARK VINA RESULT:      -7.7      5.133      7.096
REMARK  5 active torsions:
REMARK  status: ('A' for Active; 'I' for Inactive)
REMARK    1  A    between atoms: C_4  and  O_5 
REMARK    2  A    between atoms: O_5  and  C_6 
REMARK    3  A    between atoms: C_6  and  C_7 
REMARK       I    between atoms: C_7  and  N_8 
REMARK    4  A    between atoms: N_8  and  N_9 
REMARK    5  A    between atoms: C_10  and  C_11 
ROOT
HETATM    1  C   UNL     1      -5.752   3.161 -32.054  1.00  0.00     0.261 C 
HETATM    2  N   UNL     1      -5.422   2.173 -32.977  1.00  0.00    -0.246 N 
HETATM    3  O   UNL     1      -5.553   3.120 -30.842  1.00  0.00    -0.269 OA
HETATM    4  H   UNL     1      -5.866   2.238 -33.892  1.00  0.00     0.192 HD
ENDROOT
BRANCH   2   5
HETATM    5  N   UNL     1      -4.870   0.943 -32.704  1.00  0.00    -0.184 NA
HETATM    6  C   UNL     1      -5.077  -0.035 -33.527  1.00  0.00     0.153 C 
BRANCH   6   7
HETATM    7  C   UNL     1      -4.484  -1.341 -33.295  1.00  0.00     0.018 A 
HETATM    8  C   UNL     1      -4.911  -2.564 -33.915  1.00  0.00     0.004 A 
HETATM    9  C   UNL     1      -4.105  -3.589 -33.424  1.00  0.00     0.043 A 
HETATM   10  C   UNL     1      -5.907  -2.890 -34.863  1.00  0.00     0.014 A 
HETATM   11  C   UNL     1      -4.248  -4.924 -33.821  1.00  0.00     0.030 A 
HETATM   12  N   UNL     1      -3.220  -3.017 -32.542  1.00  0.00    -0.358 N 
HETATM   13  C   UNL     1      -5.243  -5.220 -34.757  1.00  0.00     0.002 A 
HETATM   14  C   UNL     1      -6.061  -4.219 -35.273  1.00  0.00     0.001 A 
HETATM   15  H   UNL     1      -2.515  -3.530 -32.034  1.00  0.00     0.166 HD
HETATM   16  C   UNL     1      -3.433  -1.662 -32.447  1.00  0.00     0.018 A 
HETATM   17  C   UNL     1      -2.608  -0.817 -31.543  1.00  0.00     0.069 C 
ENDBRANCH   6   7
ENDBRANCH   2   5
BRANCH   1  18
HETATM   18  C   UNL     1      -6.319   4.415 -32.712  1.00  0.00     0.280 C 
BRANCH  18  19
HETATM   19  O   UNL     1      -5.493   5.550 -32.469  1.00  0.00    -0.342 OA
BRANCH  19  20
HETATM   20  C   UNL     1      -4.226   5.449 -32.981  1.00  0.00     0.069 A 
HETATM   21  C   UNL     1      -3.057   5.387 -32.214  1.00  0.00     0.043 A 
HETATM   22  C   UNL     1      -1.802   5.299 -32.832  1.00  0.00    -0.059 A 
HETATM   23  C   UNL     1      -0.550   5.212 -32.009  1.00  0.00     0.048 C 
HETATM   24  C   UNL     1      -1.732   5.237 -34.229  1.00  0.00     0.007 A 
HETATM   25  C   UNL     1      -2.896   5.275 -34.995  1.00  0.00     0.003 A 
HETATM   26  C   UNL     1      -4.140   5.375 -34.371  1.00  0.00     0.037 A 
ENDBRANCH  19  20
ENDBRANCH  18  19
ENDBRANCH   1  18
TORSDOF 5
ENDMDL
MODEL 9
REMARK VINA RESULT:      -7.6      5.911     10.037
REMARK  5 active torsions:
REMARK  status: ('A' for Active; 'I' for Inactive)
REMARK    1  A    between atoms: C_4  and  O_5 
REMARK    2  A    between atoms: O_5  and  C_6 
REMARK    3  A    between atoms: C_6  and  C_7 
REMARK       I    between atoms: C_7  and  N_8 
REMARK    4  A    between atoms: N_8  and  N_9 
REMARK    5  A    between atoms: C_10  and  C_11 
ROOT
HETATM    1  C   UNL     1      -3.290   1.442 -31.867  1.00  0.00     0.261 C 
HETATM    2  N   UNL     1      -3.157   2.815 -32.056  1.00  0.00    -0.246 N 
HETATM    3  O   UNL     1      -2.826   0.789 -30.935  1.00  0.00    -0.269 OA
HETATM    4  H   UNL     1      -3.376   3.170 -32.986  1.00  0.00     0.192 HD
ENDROOT
BRANCH   2   5
HETATM    5  N   UNL     1      -2.437   3.688 -31.274  1.00  0.00    -0.184 NA
HETATM    6  C   UNL     1      -2.161   4.865 -31.738  1.00  0.00     0.153 C 
BRANCH   6   7
HETATM    7  C   UNL     1      -1.431   5.830 -30.933  1.00  0.00     0.018 A 
HETATM    8  C   UNL     1      -2.011   6.980 -30.297  1.00  0.00     0.004 A 
HETATM    9  C   UNL     1      -0.987   7.655 -29.635  1.00  0.00     0.043 A 
HETATM   10  C   UNL     1      -3.320   7.503 -30.215  1.00  0.00     0.014 A 
HETATM   11  C   UNL     1      -1.201   8.830 -28.904  1.00  0.00     0.030 A 
HETATM   12  N   UNL     1       0.170   6.946 -29.855  1.00  0.00    -0.358 N 
HETATM   13  C   UNL     1      -2.504   9.329 -28.842  1.00  0.00     0.002 A 
HETATM   14  C   UNL     1      -3.552   8.675 -29.486  1.00  0.00     0.001 A 
HETATM   15  H   UNL     1       1.074   7.209 -29.489  1.00  0.00     0.166 HD
HETATM   16  C   UNL     1      -0.075   5.843 -30.636  1.00  0.00     0.018 A 
HETATM   17  C   UNL     1       1.023   4.919 -31.027  1.00  0.00     0.069 C 
ENDBRANCH   6   7
ENDBRANCH   2   5
BRANCH   1  18
HETATM   18  C   UNL     1      -4.190   0.789 -32.910  1.00  0.00     0.280 C 
BRANCH  18  19
HETATM   19  O   UNL     1      -3.702  -0.495 -33.288  1.00  0.00    -0.342 OA
BRANCH  19  20
HETATM   20  C   UNL     1      -4.665  -1.354 -33.753  1.00  0.00     0.069 A 
HETATM   21  C   UNL     1      -4.453  -2.702 -34.059  1.00  0.00     0.043 A 
HETATM   22  C   UNL     1      -5.502  -3.497 -34.543  1.00  0.00    -0.059 A 
HETATM   23  C   UNL     1      -5.279  -4.949 -34.852  1.00  0.00     0.048 C 
HETATM   24  C   UNL     1      -6.776  -2.935 -34.683  1.00  0.00     0.007 A 
HETATM   25  C   UNL     1      -6.995  -1.597 -34.357  1.00  0.00     0.003 A 
HETATM   26  C   UNL     1      -5.942  -0.811 -33.888  1.00  0.00     0.037 A 
ENDBRANCH  19  20
ENDBRANCH  18  19
ENDBRANCH   1  18
TORSDOF 5
ENDMDL
MODEL 10
REMARK VINA RESULT:      -7.6      5.087      8.568
REMARK  5 active torsions:
REMARK  status: ('A' for Active; 'I' for Inactive)
REMARK    1  A    between atoms: C_4  and  O_5 
REMARK    2  A    between atoms: O_5  and  C_6 
REMARK    3  A    between atoms: C_6  and  C_7 
REMARK       I    between atoms: C_7  and  N_8 
REMARK    4  A    between atoms: N_8  and  N_9 
REMARK    5  A    between atoms: C_10  and  C_11 
ROOT
HETATM    1  C   UNL     1      -3.687   3.567 -31.535  1.00  0.00     0.261 C 
HETATM    2  N   UNL     1      -4.732   2.814 -32.060  1.00  0.00    -0.246 N 
HETATM    3  O   UNL     1      -2.488   3.318 -31.636  1.00  0.00    -0.269 OA
HETATM    4  H   UNL     1      -5.662   3.003 -31.688  1.00  0.00     0.192 HD
ENDROOT
BRANCH   2   5
HETATM    5  N   UNL     1      -4.628   1.620 -32.736  1.00  0.00    -0.184 NA
HETATM    6  C   UNL     1      -5.606   0.774 -32.669  1.00  0.00     0.153 C 
BRANCH   6   7
HETATM    7  C   UNL     1      -5.552  -0.484 -33.396  1.00  0.00     0.018 A 
HETATM    8  C   UNL     1      -4.698  -1.591 -33.066  1.00  0.00     0.004 A 
HETATM    9  C   UNL     1      -4.933  -2.596 -34.003  1.00  0.00     0.043 A 
HETATM   10  C   UNL     1      -3.753  -1.835 -32.045  1.00  0.00     0.014 A 
HETATM   11  C   UNL     1      -4.264  -3.827 -33.980  1.00  0.00     0.030 A 
HETATM   12  N   UNL     1      -5.891  -2.124 -34.868  1.00  0.00    -0.358 N 
HETATM   13  C   UNL     1      -3.332  -4.040 -32.962  1.00  0.00     0.002 A 
HETATM   14  C   UNL     1      -3.079  -3.060 -32.005  1.00  0.00     0.001 A 
HETATM   15  H   UNL     1      -6.254  -2.647 -35.651  1.00  0.00     0.166 HD
HETATM   16  C   UNL     1      -6.277  -0.851 -34.521  1.00  0.00     0.018 A 
HETATM   17  C   UNL     1      -7.296  -0.115 -35.315  1.00  0.00     0.069 C 
ENDBRANCH   6   7
ENDBRANCH   2   5
BRANCH   1  18
HETATM   18  C   UNL     1      -4.164   4.856 -30.873  1.00  0.00     0.280 C 
BRANCH  18  19
HETATM   19  O   UNL     1      -3.644   6.006 -31.534  1.00  0.00    -0.342 OA
BRANCH  19  20
HETATM   20  C   UNL     1      -2.892   6.827 -30.735  1.00  0.00     0.069 A 
HETATM   21  C   UNL     1      -1.536   6.640 -30.448  1.00  0.00     0.043 A 
HETATM   22  C   UNL     1      -0.855   7.530 -29.606  1.00  0.00    -0.059 A 
HETATM   23  C   UNL     1       0.605   7.340 -29.314  1.00  0.00     0.048 C 
HETATM   24  C   UNL     1      -1.539   8.634 -29.083  1.00  0.00     0.007 A 
HETATM   25  C   UNL     1      -2.885   8.836 -29.386  1.00  0.00     0.003 A 
HETATM   26  C   UNL     1      -3.557   7.937 -30.215  1.00  0.00     0.037 A 
ENDBRANCH  19  20
ENDBRANCH  18  19
ENDBRANCH   1  18
TORSDOF 5
ENDMDL
