MODEL 1
REMARK VINA RESULT:      -8.5      0.000      0.000
REMARK  9 active torsions:
REMARK  status: ('A' for Active; 'I' for Inactive)
REMARK    1  A    between atoms: C_4  and  C_5 
REMARK    2  A    between atoms: C_11  and  C_12 
REMARK    3  A    between atoms: C_15  and  C_16 
REMARK    4  A    between atoms: C_16  and  N_17 
REMARK    5  A    between atoms: N_17  and  C_18 
REMARK    6  A    between atoms: C_18  and  N_19 
REMARK    7  A    between atoms: N_19  and  C_20 
REMARK    8  A    between atoms: C_22  and  C_23 
REMARK    9  A    between atoms: C_23  and  O_24 
ROOT
HETATM    1  C   UNL     1      -6.585   2.896 -31.029  1.00  0.00     0.067 C 
HETATM    2  C   UNL     1      -6.590   4.158 -31.936  1.00  0.00     0.001 C 
HETATM    3  C   UNL     1      -5.253   4.298 -32.701  1.00  0.00     0.040 C 
HETATM    4  C   UNL     1      -4.088   4.507 -31.721  1.00  0.00     0.206 C 
HETATM    5  N   UNL     1      -4.627   4.272 -30.306  1.00  0.00    -0.065 N 
HETATM    6  H   UNL     1      -3.834   4.295 -29.649  1.00  0.00     0.280 HD
HETATM    7  C   UNL     1      -5.318   2.928 -30.145  1.00  0.00     0.246 C 
HETATM    8  C   UNL     1      -6.715   5.389 -31.008  1.00  0.00     0.033 C 
HETATM    9  C   UNL     1      -5.598   5.386 -29.956  1.00  0.00     0.236 C 
ENDROOT
BRANCH   4  10
HETATM   10  C   UNL     1      -2.810   3.696 -32.015  1.00  0.00     0.155 C 
BRANCH  10  11
HETATM   11  N   UNL     1      -1.599   4.494 -32.175  1.00  0.00    -0.365 N 
HETATM   12  H   UNL     1      -0.741   4.101 -31.803  1.00  0.00     0.161 HD
BRANCH  11  13
HETATM   13  C   UNL     1      -1.375   5.408 -33.170  1.00  0.00     0.172 C 
HETATM   14  S   UNL     1      -1.876   5.204 -34.748  1.00  0.00    -0.041 SA
BRANCH  13  15
HETATM   15  N   UNL     1      -0.821   6.600 -32.784  1.00  0.00    -0.333 N 
HETATM   16  H   UNL     1      -0.153   6.983 -33.449  1.00  0.00     0.168 HD
BRANCH  15  17
HETATM   17  C   UNL     1      -0.941   7.303 -31.564  1.00  0.00     0.035 A 
HETATM   18  C   UNL     1      -0.036   7.156 -30.510  1.00  0.00     0.047 A 
HETATM   19  C   UNL     1      -0.223   7.830 -29.296  1.00  0.00     0.041 A 
HETATM   20  C   UNL     1      -1.291   8.714 -29.153  1.00  0.00     0.018 A 
HETATM   21  C   UNL     1      -2.164   8.917 -30.225  1.00  0.00     0.003 A 
HETATM   22  C   UNL     1      -1.987   8.217 -31.426  1.00  0.00     0.029 A 
BRANCH  19  23
HETATM   23  C   UNL     1       0.729   7.515 -28.201  1.00  0.00     0.293 C 
HETATM   24  O   UNL     1       1.567   8.318 -27.811  1.00  0.00    -0.259 OA
BRANCH  23  25
HETATM   25  O   UNL     1       0.513   6.271 -27.719  1.00  0.00    -0.323 OA
HETATM   26  C   UNL     1      -0.322   6.234 -26.559  1.00  0.00     0.213 C 
ENDBRANCH  23  25
ENDBRANCH  19  23
ENDBRANCH  15  17
ENDBRANCH  13  15
ENDBRANCH  11  13
ENDBRANCH  10  11
ENDBRANCH   4  10
BRANCH   1  27
HETATM   27  C   UNL     1      -6.758   1.589 -31.753  1.00  0.00     0.038 A 
HETATM   28  N   UNL     1      -7.985   1.105 -32.161  1.00  0.00    -0.277 N 
HETATM   29  C   UNL     1      -9.290   1.709 -32.011  1.00  0.00     0.179 C 
HETATM   30  N   UNL     1      -7.915  -0.081 -32.777  1.00  0.00    -0.172 NA
HETATM   31  C   UNL     1      -6.609  -0.337 -32.883  1.00  0.00     0.096 A 
HETATM   32  C   UNL     1      -5.847   0.665 -32.240  1.00  0.00     0.062 A 
BRANCH  31  33
HETATM   33  C   UNL     1      -6.093  -1.534 -33.624  1.00  0.00     0.035 A 
HETATM   34  S   UNL     1      -4.444  -1.971 -33.732  1.00  0.00    -0.100 SA
HETATM   35  C   UNL     1      -4.800  -3.312 -34.734  1.00  0.00     0.050 A 
HETATM   36  C   UNL     1      -6.151  -3.431 -34.976  1.00  0.00     0.008 A 
HETATM   37  C   UNL     1      -6.900  -2.407 -34.326  1.00  0.00     0.022 A 
ENDBRANCH  31  33
ENDBRANCH   1  27
TORSDOF 9
ENDMDL
MODEL 2
REMARK VINA RESULT:      -8.4      2.930      3.722
REMARK  9 active torsions:
REMARK  status: ('A' for Active; 'I' for Inactive)
REMARK    1  A    between atoms: C_4  and  C_5 
REMARK    2  A    between atoms: C_11  and  C_12 
REMARK    3  A    between atoms: C_15  and  C_16 
REMARK    4  A    between atoms: C_16  and  N_17 
REMARK    5  A    between atoms: N_17  and  C_18 
REMARK    6  A    between atoms: C_18  and  N_19 
REMARK    7  A    between atoms: N_19  and  C_20 
REMARK    8  A    between atoms: C_22  and  C_23 
REMARK    9  A    between atoms: C_23  and  O_24 
ROOT
HETATM    1  C   UNL     1      -6.896   2.842 -33.905  1.00  0.00     0.067 C 
HETATM    2  C   UNL     1      -5.456   3.424 -33.974  1.00  0.00     0.001 C 
HETATM    3  C   UNL     1      -4.718   3.241 -32.627  1.00  0.00     0.040 C 
HETATM    4  C   UNL     1      -5.422   4.029 -31.512  1.00  0.00     0.206 C 
HETATM    5  N   UNL     1      -6.753   4.540 -32.076  1.00  0.00    -0.065 N 
HETATM    6  H   UNL     1      -7.287   4.970 -31.308  1.00  0.00     0.280 HD
HETATM    7  C   UNL     1      -7.612   3.437 -32.673  1.00  0.00     0.246 C 
HETATM    8  C   UNL     1      -5.589   4.946 -34.216  1.00  0.00     0.033 C 
HETATM    9  C   UNL     1      -6.468   5.590 -33.137  1.00  0.00     0.236 C 
ENDROOT
BRANCH   4  10
HETATM   10  C   UNL     1      -5.589   3.288 -30.169  1.00  0.00     0.155 C 
BRANCH  10  11
HETATM   11  N   UNL     1      -5.451   4.127 -28.984  1.00  0.00    -0.365 N 
HETATM   12  H   UNL     1      -5.016   3.702 -28.173  1.00  0.00     0.161 HD
BRANCH  11  13
HETATM   13  C   UNL     1      -5.353   5.493 -28.983  1.00  0.00     0.172 C 
HETATM   14  S   UNL     1      -6.665   6.518 -28.879  1.00  0.00    -0.041 SA
BRANCH  13  15
HETATM   15  N   UNL     1      -4.086   6.009 -28.936  1.00  0.00    -0.333 N 
HETATM   16  H   UNL     1      -3.570   5.773 -28.092  1.00  0.00     0.168 HD
BRANCH  15  17
HETATM   17  C   UNL     1      -3.441   6.913 -29.812  1.00  0.00     0.035 A 
HETATM   18  C   UNL     1      -3.062   6.571 -31.112  1.00  0.00     0.047 A 
HETATM   19  C   UNL     1      -2.374   7.478 -31.929  1.00  0.00     0.041 A 
HETATM   20  C   UNL     1      -2.119   8.768 -31.466  1.00  0.00     0.018 A 
HETATM   21  C   UNL     1      -2.553   9.140 -30.191  1.00  0.00     0.003 A 
HETATM   22  C   UNL     1      -3.214   8.217 -29.370  1.00  0.00     0.029 A 
BRANCH  19  23
HETATM   23  C   UNL     1      -1.914   6.978 -33.248  1.00  0.00     0.293 C 
HETATM   24  O   UNL     1      -1.665   7.729 -34.183  1.00  0.00    -0.259 OA
BRANCH  23  25
HETATM   25  O   UNL     1      -1.802   5.631 -33.239  1.00  0.00    -0.323 OA
HETATM   26  C   UNL     1      -1.913   5.030 -34.531  1.00  0.00     0.213 C 
ENDBRANCH  23  25
ENDBRANCH  19  23
ENDBRANCH  15  17
ENDBRANCH  13  15
ENDBRANCH  11  13
ENDBRANCH  10  11
ENDBRANCH   4  10
BRANCH   1  27
HETATM   27  C   UNL     1      -6.980   1.340 -33.960  1.00  0.00     0.038 A 
HETATM   28  N   UNL     1      -8.173   0.651 -34.038  1.00  0.00    -0.277 N 
HETATM   29  C   UNL     1      -9.519   1.177 -34.098  1.00  0.00     0.179 C 
HETATM   30  N   UNL     1      -8.022  -0.679 -34.066  1.00  0.00    -0.172 NA
HETATM   31  C   UNL     1      -6.702  -0.874 -34.121  1.00  0.00     0.096 A 
HETATM   32  C   UNL     1      -6.009   0.355 -34.037  1.00  0.00     0.062 A 
BRANCH  31  33
HETATM   33  C   UNL     1      -6.109  -2.242 -34.280  1.00  0.00     0.035 A 
HETATM   34  S   UNL     1      -4.479  -2.636 -33.953  1.00  0.00    -0.100 SA
HETATM   35  C   UNL     1      -4.708  -4.260 -34.440  1.00  0.00     0.050 A 
HETATM   36  C   UNL     1      -6.005  -4.502 -34.837  1.00  0.00     0.008 A 
HETATM   37  C   UNL     1      -6.818  -3.335 -34.736  1.00  0.00     0.022 A 
ENDBRANCH  31  33
ENDBRANCH   1  27
TORSDOF 9
ENDMDL
MODEL 3
REMARK VINA RESULT:      -8.4      1.519      2.106
REMARK  9 active torsions:
REMARK  status: ('A' for Active; 'I' for Inactive)
REMARK    1  A    between atoms: C_4  and  C_5 
REMARK    2  A    between atoms: C_11  and  C_12 
REMARK    3  A    between atoms: C_15  and  C_16 
REMARK    4  A    between atoms: C_16  and  N_17 
REMARK    5  A    between atoms: N_17  and  C_18 
REMARK    6  A    between atoms: C_18  and  N_19 
REMARK    7  A    between atoms: N_19  and  C_20 
REMARK    8  A    between atoms: C_22  and  C_23 
REMARK    9  A    between atoms: C_23  and  O_24 
ROOT
HETATM    1  C   UNL     1      -6.973   2.439 -30.843  1.00  0.00     0.067 C 
HETATM    2  C   UNL     1      -6.957   3.789 -31.614  1.00  0.00     0.001 C 
HETATM    3  C   UNL     1      -5.582   4.034 -32.278  1.00  0.00     0.040 C 
HETATM    4  C   UNL     1      -4.482   4.161 -31.212  1.00  0.00     0.206 C 
HETATM    5  N   UNL     1      -5.096   3.768 -29.864  1.00  0.00    -0.065 N 
HETATM    6  H   UNL     1      -4.344   3.737 -29.162  1.00  0.00     0.280 HD
HETATM    7  C   UNL     1      -5.762   2.401 -29.886  1.00  0.00     0.246 C 
HETATM    8  C   UNL     1      -7.167   4.913 -30.572  1.00  0.00     0.033 C 
HETATM    9  C   UNL     1      -6.114   4.821 -29.460  1.00  0.00     0.236 C 
ENDROOT
BRANCH   4  10
HETATM   10  C   UNL     1      -3.168   3.409 -31.510  1.00  0.00     0.155 C 
BRANCH  10  11
HETATM   11  N   UNL     1      -2.698   3.515 -32.887  1.00  0.00    -0.365 N 
HETATM   12  H   UNL     1      -3.124   2.892 -33.564  1.00  0.00     0.161 HD
BRANCH  11  13
HETATM   13  C   UNL     1      -2.168   4.640 -33.462  1.00  0.00     0.172 C 
HETATM   14  S   UNL     1      -2.917   5.501 -34.678  1.00  0.00    -0.041 SA
BRANCH  13  15
HETATM   15  N   UNL     1      -1.022   5.129 -32.894  1.00  0.00    -0.333 N 
HETATM   16  H   UNL     1      -0.165   4.749 -33.290  1.00  0.00     0.168 HD
BRANCH  15  17
HETATM   17  C   UNL     1      -0.854   5.973 -31.771  1.00  0.00     0.035 A 
HETATM   18  C   UNL     1      -1.668   7.081 -31.526  1.00  0.00     0.047 A 
HETATM   19  C   UNL     1      -1.432   7.925 -30.433  1.00  0.00     0.041 A 
HETATM   20  C   UNL     1      -0.411   7.622 -29.534  1.00  0.00     0.018 A 
HETATM   21  C   UNL     1       0.366   6.478 -29.735  1.00  0.00     0.003 A 
HETATM   22  C   UNL     1       0.142   5.656 -30.847  1.00  0.00     0.029 A 
BRANCH  19  23
HETATM   23  C   UNL     1      -2.279   9.139 -30.327  1.00  0.00     0.293 C 
HETATM   24  O   UNL     1      -2.598   9.802 -31.305  1.00  0.00    -0.259 OA
BRANCH  23  25
HETATM   25  O   UNL     1      -2.635   9.366 -29.043  1.00  0.00    -0.323 OA
HETATM   26  C   UNL     1      -3.440  10.534 -28.861  1.00  0.00     0.213 C 
ENDBRANCH  23  25
ENDBRANCH  19  23
ENDBRANCH  15  17
ENDBRANCH  13  15
ENDBRANCH  11  13
ENDBRANCH  10  11
ENDBRANCH   4  10
BRANCH   1  27
HETATM   27  C   UNL     1      -7.071   1.211 -31.709  1.00  0.00     0.038 A 
HETATM   28  N   UNL     1      -8.225   0.840 -32.369  1.00  0.00    -0.277 N 
HETATM   29  C   UNL     1      -9.508   1.507 -32.393  1.00  0.00     0.179 C 
HETATM   30  N   UNL     1      -8.097  -0.290 -33.074  1.00  0.00    -0.172 NA
HETATM   31  C   UNL     1      -6.806  -0.615 -32.974  1.00  0.00     0.096 A 
HETATM   32  C   UNL     1      -6.129   0.280 -32.114  1.00  0.00     0.062 A 
BRANCH  31  33
HETATM   33  C   UNL     1      -6.219  -1.773 -33.724  1.00  0.00     0.035 A 
HETATM   34  S   UNL     1      -4.544  -2.073 -33.888  1.00  0.00    -0.100 SA
HETATM   35  C   UNL     1      -4.823  -3.449 -34.867  1.00  0.00     0.050 A 
HETATM   36  C   UNL     1      -6.167  -3.683 -35.059  1.00  0.00     0.008 A 
HETATM   37  C   UNL     1      -6.975  -2.717 -34.389  1.00  0.00     0.022 A 
ENDBRANCH  31  33
ENDBRANCH   1  27
TORSDOF 9
ENDMDL
MODEL 4
REMARK VINA RESULT:      -8.3      4.150      9.959
REMARK  9 active torsions:
REMARK  status: ('A' for Active; 'I' for Inactive)
REMARK    1  A    between atoms: C_4  and  C_5 
REMARK    2  A    between atoms: C_11  and  C_12 
REMARK    3  A    between atoms: C_15  and  C_16 
REMARK    4  A    between atoms: C_16  and  N_17 
REMARK    5  A    between atoms: N_17  and  C_18 
REMARK    6  A    between atoms: C_18  and  N_19 
REMARK    7  A    between atoms: N_19  and  C_20 
REMARK    8  A    between atoms: C_22  and  C_23 
REMARK    9  A    between atoms: C_23  and  O_24 
ROOT
HETATM    1  C   UNL     1      -0.928   5.785 -31.789  1.00  0.00     0.067 C 
HETATM    2  C   UNL     1      -1.401   6.932 -32.725  1.00  0.00     0.001 C 
HETATM    3  C   UNL     1      -2.928   7.149 -32.610  1.00  0.00     0.040 C 
HETATM    4  C   UNL     1      -3.689   5.899 -33.082  1.00  0.00     0.206 C 
HETATM    5  N   UNL     1      -2.660   4.782 -33.286  1.00  0.00    -0.065 N 
HETATM    6  H   UNL     1      -3.166   3.908 -33.490  1.00  0.00     0.280 HD
HETATM    7  C   UNL     1      -1.794   4.535 -32.061  1.00  0.00     0.246 C 
HETATM    8  C   UNL     1      -1.112   6.487 -34.177  1.00  0.00     0.033 C 
HETATM    9  C   UNL     1      -1.775   5.135 -34.469  1.00  0.00     0.236 C 
ENDROOT
BRANCH   4  10
HETATM   10  C   UNL     1      -4.876   5.463 -32.201  1.00  0.00     0.155 C 
BRANCH  10  11
HETATM   11  N   UNL     1      -5.602   4.292 -32.681  1.00  0.00    -0.365 N 
HETATM   12  H   UNL     1      -5.557   4.105 -33.677  1.00  0.00     0.161 HD
BRANCH  11  13
HETATM   13  C   UNL     1      -5.883   3.173 -31.944  1.00  0.00     0.172 C 
HETATM   14  S   UNL     1      -6.981   3.140 -30.689  1.00  0.00    -0.041 SA
BRANCH  13  15
HETATM   15  N   UNL     1      -5.309   2.005 -32.372  1.00  0.00    -0.333 N 
HETATM   16  H   UNL     1      -4.344   1.882 -32.075  1.00  0.00     0.168 HD
BRANCH  15  17
HETATM   17  C   UNL     1      -5.807   1.020 -33.256  1.00  0.00     0.035 A 
HETATM   18  C   UNL     1      -5.283  -0.272 -33.326  1.00  0.00     0.047 A 
HETATM   19  C   UNL     1      -5.768  -1.201 -34.256  1.00  0.00     0.041 A 
HETATM   20  C   UNL     1      -6.835  -0.857 -35.084  1.00  0.00     0.018 A 
HETATM   21  C   UNL     1      -7.409   0.412 -34.975  1.00  0.00     0.003 A 
HETATM   22  C   UNL     1      -6.899   1.344 -34.062  1.00  0.00     0.029 A 
BRANCH  19  23
HETATM   23  C   UNL     1      -5.065  -2.507 -34.329  1.00  0.00     0.293 C 
HETATM   24  O   UNL     1      -4.228  -2.848 -33.504  1.00  0.00    -0.259 OA
BRANCH  23  25
HETATM   25  O   UNL     1      -5.495  -3.225 -35.391  1.00  0.00    -0.323 OA
HETATM   26  C   UNL     1      -6.097  -4.473 -35.042  1.00  0.00     0.213 C 
ENDBRANCH  23  25
ENDBRANCH  19  23
ENDBRANCH  15  17
ENDBRANCH  13  15
ENDBRANCH  11  13
ENDBRANCH  10  11
ENDBRANCH   4  10
BRANCH   1  27
HETATM   27  C   UNL     1      -0.859   6.140 -30.328  1.00  0.00     0.038 A 
HETATM   28  N   UNL     1       0.057   5.588 -29.456  1.00  0.00    -0.277 N 
HETATM   29  C   UNL     1       1.099   4.623 -29.731  1.00  0.00     0.179 C 
HETATM   30  N   UNL     1      -0.063   6.034 -28.200  1.00  0.00    -0.172 NA
HETATM   31  C   UNL     1      -1.000   6.983 -28.260  1.00  0.00     0.096 A 
HETATM   32  C   UNL     1      -1.542   7.071 -29.562  1.00  0.00     0.062 A 
BRANCH  31  33
HETATM   33  C   UNL     1      -1.357   7.821 -27.069  1.00  0.00     0.035 A 
HETATM   34  S   UNL     1      -0.714   9.372 -26.748  1.00  0.00    -0.100 SA
HETATM   35  C   UNL     1      -1.585   9.498 -25.280  1.00  0.00     0.050 A 
HETATM   36  C   UNL     1      -2.359   8.383 -25.042  1.00  0.00     0.008 A 
HETATM   37  C   UNL     1      -2.233   7.417 -26.083  1.00  0.00     0.022 A 
ENDBRANCH  31  33
ENDBRANCH   1  27
TORSDOF 9
ENDMDL
MODEL 5
REMARK VINA RESULT:      -8.3      3.606      9.132
REMARK  9 active torsions:
REMARK  status: ('A' for Active; 'I' for Inactive)
REMARK    1  A    between atoms: C_4  and  C_5 
REMARK    2  A    between atoms: C_11  and  C_12 
REMARK    3  A    between atoms: C_15  and  C_16 
REMARK    4  A    between atoms: C_16  and  N_17 
REMARK    5  A    between atoms: N_17  and  C_18 
REMARK    6  A    between atoms: C_18  and  N_19 
REMARK    7  A    between atoms: N_19  and  C_20 
REMARK    8  A    between atoms: C_22  and  C_23 
REMARK    9  A    between atoms: C_23  and  O_24 
ROOT
HETATM    1  C   UNL     1      -3.344   4.572 -33.078  1.00  0.00     0.067 C 
HETATM    2  C   UNL     1      -4.671   5.348 -33.307  1.00  0.00     0.001 C 
HETATM    3  C   UNL     1      -5.553   5.329 -32.037  1.00  0.00     0.040 C 
HETATM    4  C   UNL     1      -5.976   3.892 -31.694  1.00  0.00     0.206 C 
HETATM    5  N   UNL     1      -5.182   2.947 -32.602  1.00  0.00    -0.065 N 
HETATM    6  H   UNL     1      -5.369   1.978 -32.305  1.00  0.00     0.280 HD
HETATM    7  C   UNL     1      -3.680   3.168 -32.529  1.00  0.00     0.246 C 
HETATM    8  C   UNL     1      -5.452   4.602 -34.415  1.00  0.00     0.033 C 
HETATM    9  C   UNL     1      -5.652   3.129 -34.035  1.00  0.00     0.236 C 
ENDROOT
BRANCH   4  10
HETATM   10  C   UNL     1      -5.886   3.503 -30.204  1.00  0.00     0.155 C 
BRANCH  10  11
HETATM   11  N   UNL     1      -6.876   2.527 -29.762  1.00  0.00    -0.365 N 
HETATM   12  H   UNL     1      -6.880   2.296 -28.775  1.00  0.00     0.161 HD
BRANCH  11  13
HETATM   13  C   UNL     1      -8.081   2.288 -30.367  1.00  0.00     0.172 C 
HETATM   14  S   UNL     1      -9.249   3.456 -30.604  1.00  0.00    -0.041 SA
BRANCH  13  15
HETATM   15  N   UNL     1      -8.251   1.043 -30.910  1.00  0.00    -0.333 N 
HETATM   16  H   UNL     1      -8.706   0.376 -30.291  1.00  0.00     0.168 HD
BRANCH  15  17
HETATM   17  C   UNL     1      -7.782   0.516 -32.136  1.00  0.00     0.035 A 
HETATM   18  C   UNL     1      -6.680  -0.338 -32.224  1.00  0.00     0.047 A 
HETATM   19  C   UNL     1      -6.214  -0.793 -33.464  1.00  0.00     0.041 A 
HETATM   20  C   UNL     1      -6.896  -0.444 -34.629  1.00  0.00     0.018 A 
HETATM   21  C   UNL     1      -8.038   0.356 -34.544  1.00  0.00     0.003 A 
HETATM   22  C   UNL     1      -8.480   0.830 -33.303  1.00  0.00     0.029 A 
BRANCH  19  23
HETATM   23  C   UNL     1      -4.968  -1.600 -33.458  1.00  0.00     0.293 C 
HETATM   24  O   UNL     1      -4.688  -2.380 -34.359  1.00  0.00    -0.259 OA
BRANCH  23  25
HETATM   25  O   UNL     1      -4.225  -1.329 -32.361  1.00  0.00    -0.323 OA
HETATM   26  C   UNL     1      -3.098  -0.487 -32.616  1.00  0.00     0.213 C 
ENDBRANCH  23  25
ENDBRANCH  19  23
ENDBRANCH  15  17
ENDBRANCH  13  15
ENDBRANCH  11  13
ENDBRANCH  10  11
ENDBRANCH   4  10
BRANCH   1  27
HETATM   27  C   UNL     1      -2.319   5.294 -32.246  1.00  0.00     0.038 A 
HETATM   28  N   UNL     1      -1.352   6.120 -32.783  1.00  0.00    -0.277 N 
HETATM   29  C   UNL     1      -1.129   6.468 -34.169  1.00  0.00     0.179 C 
HETATM   30  N   UNL     1      -0.534   6.653 -31.867  1.00  0.00    -0.172 NA
HETATM   31  C   UNL     1      -1.036   6.267 -30.691  1.00  0.00     0.096 A 
HETATM   32  C   UNL     1      -2.137   5.400 -30.876  1.00  0.00     0.062 A 
BRANCH  31  33
HETATM   33  C   UNL     1      -0.470   6.751 -29.391  1.00  0.00     0.035 A 
HETATM   34  S   UNL     1      -0.854   8.250 -28.664  1.00  0.00    -0.100 SA
HETATM   35  C   UNL     1       0.222   7.968 -27.364  1.00  0.00     0.050 A 
HETATM   36  C   UNL     1       0.858   6.750 -27.475  1.00  0.00     0.008 A 
HETATM   37  C   UNL     1       0.449   6.043 -28.644  1.00  0.00     0.022 A 
ENDBRANCH  31  33
ENDBRANCH   1  27
TORSDOF 9
ENDMDL
MODEL 6
REMARK VINA RESULT:      -8.0      5.740      9.808
REMARK  9 active torsions:
REMARK  status: ('A' for Active; 'I' for Inactive)
REMARK    1  A    between atoms: C_4  and  C_5 
REMARK    2  A    between atoms: C_11  and  C_12 
REMARK    3  A    between atoms: C_15  and  C_16 
REMARK    4  A    between atoms: C_16  and  N_17 
REMARK    5  A    between atoms: N_17  and  C_18 
REMARK    6  A    between atoms: C_18  and  N_19 
REMARK    7  A    between atoms: N_19  and  C_20 
REMARK    8  A    between atoms: C_22  and  C_23 
REMARK    9  A    between atoms: C_23  and  O_24 
ROOT
HETATM    1  C   UNL     1      -4.933   2.076 -32.292  1.00  0.00     0.067 C 
HETATM    2  C   UNL     1      -5.064   2.355 -30.769  1.00  0.00     0.001 C 
HETATM    3  C   UNL     1      -6.473   1.979 -30.253  1.00  0.00     0.040 C 
HETATM    4  C   UNL     1      -7.545   2.854 -30.921  1.00  0.00     0.206 C 
HETATM    5  N   UNL     1      -6.863   3.644 -32.044  1.00  0.00    -0.065 N 
HETATM    6  H   UNL     1      -7.589   4.147 -32.574  1.00  0.00     0.280 HD
HETATM    7  C   UNL     1      -6.108   2.761 -33.024  1.00  0.00     0.246 C 
HETATM    8  C   UNL     1      -4.898   3.880 -30.567  1.00  0.00     0.033 C 
HETATM    9  C   UNL     1      -5.906   4.651 -31.429  1.00  0.00     0.236 C 
ENDROOT
BRANCH   4  10
HETATM   10  C   UNL     1      -8.813   2.118 -31.396  1.00  0.00     0.155 C 
BRANCH  10  11
HETATM   11  N   UNL     1      -9.867   2.981 -31.918  1.00  0.00    -0.365 N 
HETATM   12  H   UNL     1      -9.858   3.948 -31.613  1.00  0.00     0.161 HD
BRANCH  11  13
HETATM   13  C   UNL     1     -10.518   2.809 -33.111  1.00  0.00     0.172 C 
HETATM   14  S   UNL     1     -10.291   3.788 -34.442  1.00  0.00    -0.041 SA
BRANCH  13  15
HETATM   15  N   UNL     1     -11.292   1.685 -33.222  1.00  0.00    -0.333 N 
HETATM   16  H   UNL     1     -10.763   0.821 -33.314  1.00  0.00     0.168 HD
BRANCH  15  17
HETATM   17  C   UNL     1     -12.695   1.558 -33.352  1.00  0.00     0.035 A 
HETATM   18  C   UNL     1     -13.597   2.422 -32.727  1.00  0.00     0.047 A 
HETATM   19  C   UNL     1     -14.980   2.228 -32.836  1.00  0.00     0.041 A 
HETATM   20  C   UNL     1     -15.472   1.196 -33.634  1.00  0.00     0.018 A 
HETATM   21  C   UNL     1     -14.577   0.367 -34.316  1.00  0.00     0.003 A 
HETATM   22  C   UNL     1     -13.196   0.551 -34.178  1.00  0.00     0.029 A 
BRANCH  19  23
HETATM   23  C   UNL     1     -15.850   3.129 -32.039  1.00  0.00     0.293 C 
HETATM   24  O   UNL     1     -15.468   4.221 -31.637  1.00  0.00    -0.259 OA
BRANCH  23  25
HETATM   25  O   UNL     1     -17.073   2.582 -31.860  1.00  0.00    -0.323 OA
HETATM   26  C   UNL     1     -18.148   3.399 -32.328  1.00  0.00     0.213 C 
ENDBRANCH  23  25
ENDBRANCH  19  23
ENDBRANCH  15  17
ENDBRANCH  13  15
ENDBRANCH  11  13
ENDBRANCH  10  11
ENDBRANCH   4  10
BRANCH   1  27
HETATM   27  C   UNL     1      -4.780   0.625 -32.663  1.00  0.00     0.038 A 
HETATM   28  N   UNL     1      -3.831  -0.205 -32.102  1.00  0.00    -0.277 N 
HETATM   29  C   UNL     1      -2.846   0.103 -31.088  1.00  0.00     0.179 C 
HETATM   30  N   UNL     1      -3.860  -1.454 -32.582  1.00  0.00    -0.172 NA
HETATM   31  C   UNL     1      -4.920  -1.485 -33.394  1.00  0.00     0.096 A 
HETATM   32  C   UNL     1      -5.514  -0.206 -33.493  1.00  0.00     0.062 A 
BRANCH  31  33
HETATM   33  C   UNL     1      -5.376  -2.752 -34.054  1.00  0.00     0.035 A 
HETATM   34  S   UNL     1      -4.433  -4.170 -34.186  1.00  0.00    -0.100 SA
HETATM   35  C   UNL     1      -5.659  -4.980 -35.063  1.00  0.00     0.050 A 
HETATM   36  C   UNL     1      -6.772  -4.188 -35.246  1.00  0.00     0.008 A 
HETATM   37  C   UNL     1      -6.610  -2.901 -34.654  1.00  0.00     0.022 A 
ENDBRANCH  31  33
ENDBRANCH   1  27
TORSDOF 9
ENDMDL
MODEL 7
REMARK VINA RESULT:      -8.0      1.851      2.714
REMARK  9 active torsions:
REMARK  status: ('A' for Active; 'I' for Inactive)
REMARK    1  A    between atoms: C_4  and  C_5 
REMARK    2  A    between atoms: C_11  and  C_12 
REMARK    3  A    between atoms: C_15  and  C_16 
REMARK    4  A    between atoms: C_16  and  N_17 
REMARK    5  A    between atoms: N_17  and  C_18 
REMARK    6  A    between atoms: C_18  and  N_19 
REMARK    7  A    between atoms: N_19  and  C_20 
REMARK    8  A    between atoms: C_22  and  C_23 
REMARK    9  A    between atoms: C_23  and  O_24 
ROOT
HETATM    1  C   UNL     1      -8.948   2.853 -31.372  1.00  0.00     0.067 C 
HETATM    2  C   UNL     1      -8.957   4.160 -32.213  1.00  0.00     0.001 C 
HETATM    3  C   UNL     1      -7.518   4.659 -32.481  1.00  0.00     0.040 C 
HETATM    4  C   UNL     1      -6.819   5.028 -31.164  1.00  0.00     0.206 C 
HETATM    5  N   UNL     1      -7.715   4.553 -30.015  1.00  0.00    -0.065 N 
HETATM    6  H   UNL     1      -7.208   4.689 -29.130  1.00  0.00     0.280 HD
HETATM    7  C   UNL     1      -8.082   3.081 -30.113  1.00  0.00     0.246 C 
HETATM    8  C   UNL     1      -9.664   5.244 -31.366  1.00  0.00     0.033 C 
HETATM    9  C   UNL     1      -8.983   5.390 -29.999  1.00  0.00     0.236 C 
ENDROOT
BRANCH   4  10
HETATM   10  C   UNL     1      -5.361   4.547 -31.020  1.00  0.00     0.155 C 
BRANCH  10  11
HETATM   11  N   UNL     1      -4.899   3.656 -32.078  1.00  0.00    -0.365 N 
HETATM   12  H   UNL     1      -5.247   3.839 -33.013  1.00  0.00     0.161 HD
BRANCH  11  13
HETATM   13  C   UNL     1      -3.714   2.969 -32.079  1.00  0.00     0.172 C 
HETATM   14  S   UNL     1      -3.486   1.510 -31.304  1.00  0.00    -0.041 SA
BRANCH  13  15
HETATM   15  N   UNL     1      -2.722   3.474 -32.877  1.00  0.00    -0.333 N 
HETATM   16  H   UNL     1      -2.379   2.822 -33.579  1.00  0.00     0.168 HD
BRANCH  15  17
HETATM   17  C   UNL     1      -2.026   4.702 -32.793  1.00  0.00     0.035 A 
HETATM   18  C   UNL     1      -1.473   5.182 -31.604  1.00  0.00     0.047 A 
HETATM   19  C   UNL     1      -0.840   6.430 -31.551  1.00  0.00     0.041 A 
HETATM   20  C   UNL     1      -0.699   7.183 -32.716  1.00  0.00     0.018 A 
HETATM   21  C   UNL     1      -1.191   6.681 -33.923  1.00  0.00     0.003 A 
HETATM   22  C   UNL     1      -1.848   5.445 -33.961  1.00  0.00     0.029 A 
BRANCH  19  23
HETATM   23  C   UNL     1      -0.391   6.899 -30.216  1.00  0.00     0.293 C 
HETATM   24  O   UNL     1      -0.819   7.926 -29.704  1.00  0.00    -0.259 OA
BRANCH  23  25
HETATM   25  O   UNL     1       0.506   6.041 -29.682  1.00  0.00    -0.323 OA
HETATM   26  C   UNL     1       0.434   5.936 -28.258  1.00  0.00     0.213 C 
ENDBRANCH  23  25
ENDBRANCH  19  23
ENDBRANCH  15  17
ENDBRANCH  13  15
ENDBRANCH  11  13
ENDBRANCH  10  11
ENDBRANCH   4  10
BRANCH   1  27
HETATM   27  C   UNL     1      -8.562   1.610 -32.128  1.00  0.00     0.038 A 
HETATM   28  N   UNL     1      -9.417   0.949 -32.987  1.00  0.00    -0.277 N 
HETATM   29  C   UNL     1     -10.778   1.286 -33.344  1.00  0.00     0.179 C 
HETATM   30  N   UNL     1      -8.877  -0.139 -33.547  1.00  0.00    -0.172 NA
HETATM   31  C   UNL     1      -7.604  -0.139 -33.143  1.00  0.00     0.096 A 
HETATM   32  C   UNL     1      -7.365   0.921 -32.239  1.00  0.00     0.062 A 
BRANCH  31  33
HETATM   33  C   UNL     1      -6.612  -1.144 -33.646  1.00  0.00     0.035 A 
HETATM   34  S   UNL     1      -4.959  -1.174 -33.215  1.00  0.00    -0.100 SA
HETATM   35  C   UNL     1      -4.652  -2.513 -34.236  1.00  0.00     0.050 A 
HETATM   36  C   UNL     1      -5.790  -2.936 -34.888  1.00  0.00     0.008 A 
HETATM   37  C   UNL     1      -6.926  -2.149 -34.539  1.00  0.00     0.022 A 
ENDBRANCH  31  33
ENDBRANCH   1  27
TORSDOF 9
ENDMDL
MODEL 8
REMARK VINA RESULT:      -7.7      5.915      9.036
REMARK  9 active torsions:
REMARK  status: ('A' for Active; 'I' for Inactive)
REMARK    1  A    between atoms: C_4  and  C_5 
REMARK    2  A    between atoms: C_11  and  C_12 
REMARK    3  A    between atoms: C_15  and  C_16 
REMARK    4  A    between atoms: C_16  and  N_17 
REMARK    5  A    between atoms: N_17  and  C_18 
REMARK    6  A    between atoms: C_18  and  N_19 
REMARK    7  A    between atoms: N_19  and  C_20 
REMARK    8  A    between atoms: C_22  and  C_23 
REMARK    9  A    between atoms: C_23  and  O_24 
ROOT
HETATM    1  C   UNL     1      -9.982   2.788 -34.280  1.00  0.00     0.067 C 
HETATM    2  C   UNL     1      -9.762   1.277 -33.989  1.00  0.00     0.001 C 
HETATM    3  C   UNL     1      -9.556   1.027 -32.477  1.00  0.00     0.040 C 
HETATM    4  C   UNL     1      -8.281   1.726 -31.982  1.00  0.00     0.206 C 
HETATM    5  N   UNL     1      -7.777   2.626 -33.115  1.00  0.00    -0.065 N 
HETATM    6  H   UNL     1      -6.991   3.188 -32.758  1.00  0.00     0.280 HD
HETATM    7  C   UNL     1      -8.834   3.590 -33.628  1.00  0.00     0.246 C 
HETATM    8  C   UNL     1      -8.454   0.860 -34.702  1.00  0.00     0.033 C 
HETATM    9  C   UNL     1      -7.289   1.754 -34.259  1.00  0.00     0.236 C 
ENDROOT
BRANCH   4  10
HETATM   10  C   UNL     1      -8.403   2.472 -30.637  1.00  0.00     0.155 C 
BRANCH  10  11
HETATM   11  N   UNL     1      -7.257   2.327 -29.747  1.00  0.00    -0.365 N 
HETATM   12  H   UNL     1      -7.440   1.940 -28.828  1.00  0.00     0.161 HD
BRANCH  11  13
HETATM   13  C   UNL     1      -5.958   2.156 -30.144  1.00  0.00     0.172 C 
HETATM   14  S   UNL     1      -4.942   3.411 -30.563  1.00  0.00    -0.041 SA
BRANCH  13  15
HETATM   15  N   UNL     1      -5.460   0.883 -30.057  1.00  0.00    -0.333 N 
HETATM   16  H   UNL     1      -5.413   0.517 -29.109  1.00  0.00     0.168 HD
BRANCH  15  17
HETATM   17  C   UNL     1      -4.891   0.060 -31.057  1.00  0.00     0.035 A 
HETATM   18  C   UNL     1      -5.649  -0.556 -32.056  1.00  0.00     0.047 A 
HETATM   19  C   UNL     1      -5.055  -1.409 -32.994  1.00  0.00     0.041 A 
HETATM   20  C   UNL     1      -3.674  -1.599 -32.978  1.00  0.00     0.018 A 
HETATM   21  C   UNL     1      -2.899  -0.935 -32.023  1.00  0.00     0.003 A 
HETATM   22  C   UNL     1      -3.506  -0.106 -31.070  1.00  0.00     0.029 A 
BRANCH  19  23
HETATM   23  C   UNL     1      -5.963  -2.105 -33.939  1.00  0.00     0.293 C 
HETATM   24  O   UNL     1      -7.181  -2.003 -33.872  1.00  0.00    -0.259 OA
BRANCH  23  25
HETATM   25  O   UNL     1      -5.259  -2.814 -34.849  1.00  0.00    -0.323 OA
HETATM   26  C   UNL     1      -5.824  -4.091 -35.154  1.00  0.00     0.213 C 
ENDBRANCH  23  25
ENDBRANCH  19  23
ENDBRANCH  15  17
ENDBRANCH  13  15
ENDBRANCH  11  13
ENDBRANCH  10  11
ENDBRANCH   4  10
BRANCH   1  27
HETATM   27  C   UNL     1     -11.343   3.316 -33.915  1.00  0.00     0.038 A 
HETATM   28  N   UNL     1     -11.825   4.535 -34.350  1.00  0.00    -0.277 N 
HETATM   29  C   UNL     1     -11.185   5.506 -35.209  1.00  0.00     0.179 C 
HETATM   30  N   UNL     1     -13.053   4.816 -33.899  1.00  0.00    -0.172 NA
HETATM   31  C   UNL     1     -13.441   3.717 -33.247  1.00  0.00     0.096 A 
HETATM   32  C   UNL     1     -12.400   2.762 -33.211  1.00  0.00     0.062 A 
BRANCH  31  33
HETATM   33  C   UNL     1     -14.822   3.578 -32.679  1.00  0.00     0.035 A 
HETATM   34  S   UNL     1     -15.758   4.874 -32.077  1.00  0.00    -0.100 SA
HETATM   35  C   UNL     1     -17.037   3.827 -31.632  1.00  0.00     0.050 A 
HETATM   36  C   UNL     1     -16.761   2.514 -31.944  1.00  0.00     0.008 A 
HETATM   37  C   UNL     1     -15.482   2.371 -32.558  1.00  0.00     0.022 A 
ENDBRANCH  31  33
ENDBRANCH   1  27
TORSDOF 9
ENDMDL
MODEL 9
REMARK VINA RESULT:      -7.6      3.348      5.293
REMARK  9 active torsions:
REMARK  status: ('A' for Active; 'I' for Inactive)
REMARK    1  A    between atoms: C_4  and  C_5 
REMARK    2  A    between atoms: C_11  and  C_12 
REMARK    3  A    between atoms: C_15  and  C_16 
REMARK    4  A    between atoms: C_16  and  N_17 
REMARK    5  A    between atoms: N_17  and  C_18 
REMARK    6  A    between atoms: C_18  and  N_19 
REMARK    7  A    between atoms: N_19  and  C_20 
REMARK    8  A    between atoms: C_22  and  C_23 
REMARK    9  A    between atoms: C_23  and  O_24 
ROOT
HETATM    1  C   UNL     1      -5.643   1.056 -32.883  1.00  0.00     0.067 C 
HETATM    2  C   UNL     1      -5.593   0.258 -31.551  1.00  0.00     0.001 C 
HETATM    3  C   UNL     1      -6.147   1.099 -30.378  1.00  0.00     0.040 C 
HETATM    4  C   UNL     1      -5.272   2.340 -30.141  1.00  0.00     0.206 C 
HETATM    5  N   UNL     1      -4.280   2.435 -31.305  1.00  0.00    -0.065 N 
HETATM    6  H   UNL     1      -3.765   3.323 -31.221  1.00  0.00     0.280 HD
HETATM    7  C   UNL     1      -4.954   2.422 -32.668  1.00  0.00     0.246 C 
HETATM    8  C   UNL     1      -4.104  -0.027 -31.244  1.00  0.00     0.033 C 
HETATM    9  C   UNL     1      -3.300   1.278 -31.215  1.00  0.00     0.236 C 
ENDROOT
BRANCH   4  10
HETATM   10  C   UNL     1      -6.030   3.660 -29.894  1.00  0.00     0.155 C 
BRANCH  10  11
HETATM   11  N   UNL     1      -5.236   4.722 -29.288  1.00  0.00    -0.365 N 
HETATM   12  H   UNL     1      -4.229   4.642 -29.370  1.00  0.00     0.161 HD
BRANCH  11  13
HETATM   13  C   UNL     1      -5.651   6.012 -29.092  1.00  0.00     0.172 C 
HETATM   14  S   UNL     1      -7.197   6.430 -28.626  1.00  0.00    -0.041 SA
BRANCH  13  15
HETATM   15  N   UNL     1      -4.683   6.978 -29.166  1.00  0.00    -0.333 N 
HETATM   16  H   UNL     1      -4.915   7.840 -28.677  1.00  0.00     0.168 HD
BRANCH  15  17
HETATM   17  C   UNL     1      -3.482   7.004 -29.912  1.00  0.00     0.035 A 
HETATM   18  C   UNL     1      -3.455   7.130 -31.303  1.00  0.00     0.047 A 
HETATM   19  C   UNL     1      -2.247   7.095 -32.011  1.00  0.00     0.041 A 
HETATM   20  C   UNL     1      -1.042   6.999 -31.316  1.00  0.00     0.018 A 
HETATM   21  C   UNL     1      -1.056   6.938 -29.920  1.00  0.00     0.003 A 
HETATM   22  C   UNL     1      -2.270   6.945 -29.222  1.00  0.00     0.029 A 
BRANCH  19  23
HETATM   23  C   UNL     1      -2.335   7.118 -33.492  1.00  0.00     0.293 C 
HETATM   24  O   UNL     1      -1.598   7.812 -34.181  1.00  0.00    -0.259 OA
BRANCH  23  25
HETATM   25  O   UNL     1      -3.298   6.277 -33.930  1.00  0.00    -0.323 OA
HETATM   26  C   UNL     1      -2.798   5.129 -34.620  1.00  0.00     0.213 C 
ENDBRANCH  23  25
ENDBRANCH  19  23
ENDBRANCH  15  17
ENDBRANCH  13  15
ENDBRANCH  11  13
ENDBRANCH  10  11
ENDBRANCH   4  10
BRANCH   1  27
HETATM   27  C   UNL     1      -7.009   1.183 -33.501  1.00  0.00     0.038 A 
HETATM   28  N   UNL     1      -7.550   0.234 -34.345  1.00  0.00    -0.277 N 
HETATM   29  C   UNL     1      -6.975  -1.019 -34.784  1.00  0.00     0.179 C 
HETATM   30  N   UNL     1      -8.772   0.548 -34.791  1.00  0.00    -0.172 NA
HETATM   31  C   UNL     1      -9.097   1.670 -34.143  1.00  0.00     0.096 A 
HETATM   32  C   UNL     1      -8.020   2.117 -33.343  1.00  0.00     0.062 A 
BRANCH  31  33
HETATM   33  C   UNL     1     -10.451   2.299 -34.276  1.00  0.00     0.035 A 
HETATM   34  S   UNL     1     -11.909   1.582 -33.747  1.00  0.00    -0.100 SA
HETATM   35  C   UNL     1     -12.840   2.896 -34.327  1.00  0.00     0.050 A 
HETATM   36  C   UNL     1     -12.054   3.869 -34.906  1.00  0.00     0.008 A 
HETATM   37  C   UNL     1     -10.670   3.527 -34.868  1.00  0.00     0.022 A 
ENDBRANCH  31  33
ENDBRANCH   1  27
TORSDOF 9
ENDMDL
MODEL 10
REMARK VINA RESULT:      -7.6      2.664      4.558
REMARK  9 active torsions:
REMARK  status: ('A' for Active; 'I' for Inactive)
REMARK    1  A    between atoms: C_4  and  C_5 
REMARK    2  A    between atoms: C_11  and  C_12 
REMARK    3  A    between atoms: C_15  and  C_16 
REMARK    4  A    between atoms: C_16  and  N_17 
REMARK    5  A    between atoms: N_17  and  C_18 
REMARK    6  A    between atoms: C_18  and  N_19 
REMARK    7  A    between atoms: N_19  and  C_20 
REMARK    8  A    between atoms: C_22  and  C_23 
REMARK    9  A    between atoms: C_23  and  O_24 
ROOT
HETATM    1  C   UNL     1      -5.935   1.044 -32.697  1.00  0.00     0.067 C 
HETATM    2  C   UNL     1      -5.727   0.312 -31.341  1.00  0.00     0.001 C 
HETATM    3  C   UNL     1      -6.132   1.216 -30.154  1.00  0.00     0.040 C 
HETATM    4  C   UNL     1      -5.230   2.458 -30.087  1.00  0.00     0.206 C 
HETATM    5  N   UNL     1      -4.387   2.486 -31.366  1.00  0.00    -0.065 N 
HETATM    6  H   UNL     1      -3.862   3.372 -31.389  1.00  0.00     0.280 HD
HETATM    7  C   UNL     1      -5.220   2.412 -32.635  1.00  0.00     0.246 C 
HETATM    8  C   UNL     1      -4.213   0.028 -31.202  1.00  0.00     0.033 C 
HETATM    9  C   UNL     1      -3.406   1.326 -31.336  1.00  0.00     0.236 C 
ENDROOT
BRANCH   4  10
HETATM   10  C   UNL     1      -5.949   3.796 -29.818  1.00  0.00     0.155 C 
BRANCH  10  11
HETATM   11  N   UNL     1      -5.082   4.880 -29.369  1.00  0.00    -0.365 N 
HETATM   12  H   UNL     1      -4.301   4.624 -28.776  1.00  0.00     0.161 HD
BRANCH  11  13
HETATM   13  C   UNL     1      -4.880   6.062 -30.031  1.00  0.00     0.172 C 
HETATM   14  S   UNL     1      -5.531   7.520 -29.548  1.00  0.00    -0.041 SA
BRANCH  13  15
HETATM   15  N   UNL     1      -3.984   6.031 -31.066  1.00  0.00    -0.333 N 
HETATM   16  H   UNL     1      -4.413   5.996 -31.988  1.00  0.00     0.168 HD
BRANCH  15  17
HETATM   17  C   UNL     1      -2.575   5.915 -31.044  1.00  0.00     0.035 A 
HETATM   18  C   UNL     1      -1.797   6.310 -29.953  1.00  0.00     0.047 A 
HETATM   19  C   UNL     1      -0.399   6.230 -29.994  1.00  0.00     0.041 A 
HETATM   20  C   UNL     1       0.230   5.687 -31.114  1.00  0.00     0.018 A 
HETATM   21  C   UNL     1      -0.544   5.229 -32.183  1.00  0.00     0.003 A 
HETATM   22  C   UNL     1      -1.940   5.339 -32.146  1.00  0.00     0.029 A 
BRANCH  19  23
HETATM   23  C   UNL     1       0.339   6.783 -28.831  1.00  0.00     0.293 C 
HETATM   24  O   UNL     1       0.876   7.883 -28.859  1.00  0.00    -0.259 OA
BRANCH  23  25
HETATM   25  O   UNL     1       0.304   5.925 -27.787  1.00  0.00    -0.323 OA
HETATM   26  C   UNL     1      -0.263   6.479 -26.598  1.00  0.00     0.213 C 
ENDBRANCH  23  25
ENDBRANCH  19  23
ENDBRANCH  15  17
ENDBRANCH  13  15
ENDBRANCH  11  13
ENDBRANCH  10  11
ENDBRANCH   4  10
BRANCH   1  27
HETATM   27  C   UNL     1      -7.365   1.153 -33.151  1.00  0.00     0.038 A 
HETATM   28  N   UNL     1      -7.882   0.430 -34.207  1.00  0.00    -0.277 N 
HETATM   29  C   UNL     1      -7.219  -0.541 -35.049  1.00  0.00     0.179 C 
HETATM   30  N   UNL     1      -9.173   0.687 -34.450  1.00  0.00    -0.172 NA
HETATM   31  C   UNL     1      -9.552   1.508 -33.468  1.00  0.00     0.096 A 
HETATM   32  C   UNL     1      -8.454   1.845 -32.644  1.00  0.00     0.062 A 
BRANCH  31  33
HETATM   33  C   UNL     1     -10.976   1.949 -33.308  1.00  0.00     0.035 A 
HETATM   34  S   UNL     1     -12.332   1.068 -33.860  1.00  0.00    -0.100 SA
HETATM   35  C   UNL     1     -13.416   2.281 -33.328  1.00  0.00     0.050 A 
HETATM   36  C   UNL     1     -12.759   3.336 -32.732  1.00  0.00     0.008 A 
HETATM   37  C   UNL     1     -11.347   3.139 -32.713  1.00  0.00     0.022 A 
ENDBRANCH  31  33
ENDBRANCH   1  27
TORSDOF 9
ENDMDL
