MODEL 1
REMARK VINA RESULT:      -8.8      0.000      0.000
REMARK  8 active torsions:
REMARK  status: ('A' for Active; 'I' for Inactive)
REMARK    1  A    between atoms: C_2  and  C_3 
REMARK    2  A    between atoms: C_3  and  C_4 
REMARK    3  A    between atoms: C_7  and  N_8 
REMARK       I    between atoms: N_8  and  C_9 
REMARK    4  A    between atoms: C_9  and  C_10 
REMARK    5  A    between atoms: C_13  and  N_14 
REMARK       I    between atoms: N_14  and  C_15 
REMARK    6  A    between atoms: C_15  and  C_16 
REMARK    7  A    between atoms: C_16  and  C_17 
REMARK    8  A    between atoms: C_19  and  N_20 
ROOT
HETATM    1  C   UNL     1      -6.119   3.143 -31.024  1.00  0.00     0.032 A 
HETATM    2  C   UNL     1      -7.195   4.002 -30.781  1.00  0.00     0.019 A 
HETATM    3  C   UNL     1      -6.971   5.335 -30.407  1.00  0.00     0.030 A 
HETATM    4  C   UNL     1      -5.673   5.839 -30.289  1.00  0.00     0.034 A 
HETATM    5  C   UNL     1      -4.597   4.987 -30.562  1.00  0.00     0.030 A 
HETATM    6  C   UNL     1      -4.816   3.652 -30.923  1.00  0.00     0.019 A 
ENDROOT
BRANCH   4   7
HETATM    7  N   UNL     1      -5.371   7.170 -29.925  1.00  0.00    -0.327 N 
HETATM    8  C   UNL     1      -5.383   7.710 -28.651  1.00  0.00     0.223 C 
HETATM    9  O   UNL     1      -5.659   7.110 -27.617  1.00  0.00    -0.273 OA
HETATM   10  H   UNL     1      -5.076   7.776 -30.681  1.00  0.00     0.169 HD
BRANCH   8  11
HETATM   11  C   UNL     1      -5.063   9.196 -28.643  1.00  0.00     0.128 C 
BRANCH  11  12
HETATM   12  C   UNL     1      -3.608   9.439 -29.023  1.00  0.00     0.158 C 
HETATM   13  S   UNL     1      -2.507   8.124 -28.413  1.00  0.00    -0.077 SA
HETATM   14  C   UNL     1      -1.587   8.206 -29.910  1.00  0.00     0.168 C 
HETATM   15  N   UNL     1      -2.136   8.884 -30.864  1.00  0.00    -0.189 NA
HETATM   16  C   UNL     1      -3.361   9.411 -30.520  1.00  0.00     0.260 C 
HETATM   17  O   UNL     1      -4.154   9.866 -31.335  1.00  0.00    -0.270 OA
BRANCH  14  18
HETATM   18  N   UNL     1      -0.343   7.619 -29.964  1.00  0.00    -0.360 N 
HETATM   19  C   UNL     1       0.519   7.445 -28.793  1.00  0.00     0.125 C 
HETATM   20  C   UNL     1       0.413   6.003 -28.289  1.00  0.00     0.020 C 
HETATM   21  C   UNL     1       0.731   5.002 -29.399  1.00  0.00     0.003 C 
HETATM   22  C   UNL     1      -0.128   5.266 -30.635  1.00  0.00     0.020 C 
HETATM   23  C   UNL     1      -0.011   6.723 -31.077  1.00  0.00     0.125 C 
ENDBRANCH  14  18
ENDBRANCH  11  12
ENDBRANCH   8  11
ENDBRANCH   4   7
BRANCH   1  24
HETATM   24  C   UNL     1      -6.290   1.709 -31.422  1.00  0.00     0.256 C 
HETATM   25  N   UNL     1      -5.699   1.340 -32.618  1.00  0.00    -0.323 N 
HETATM   26  H   UNL     1      -5.259   2.065 -33.166  1.00  0.00     0.169 HD
HETATM   27  O   UNL     1      -6.952   0.987 -30.685  1.00  0.00    -0.267 OA
BRANCH  25  28
HETATM   28  C   UNL     1      -5.700   0.060 -33.217  1.00  0.00     0.035 A 
HETATM   29  C   UNL     1      -6.720  -0.424 -34.033  1.00  0.00     0.030 A 
HETATM   30  C   UNL     1      -6.635  -1.702 -34.603  1.00  0.00     0.010 A 
HETATM   31  C   UNL     1      -5.523  -2.522 -34.374  1.00  0.00    -0.054 A 
HETATM   32  C   UNL     1      -4.511  -2.041 -33.534  1.00  0.00     0.010 A 
HETATM   33  C   UNL     1      -4.597  -0.764 -32.965  1.00  0.00     0.030 A 
BRANCH  31  34
HETATM   34  C   UNL     1      -5.399  -3.914 -34.979  1.00  0.00     0.014 C 
HETATM   35  C   UNL     1      -6.738  -4.437 -35.515  1.00  0.00     0.015 C 
BRANCH  34  36
HETATM   36  C   UNL     1      -4.755  -4.874 -33.962  1.00  0.00     0.004 C 
HETATM   37  C   UNL     1      -3.236  -4.929 -34.060  1.00  0.00     0.006 C 
ENDBRANCH  34  36
ENDBRANCH  31  34
ENDBRANCH  25  28
ENDBRANCH   1  24
TORSDOF 8
ENDMDL
MODEL 2
REMARK VINA RESULT:      -8.8      3.617      5.687
REMARK  8 active torsions:
REMARK  status: ('A' for Active; 'I' for Inactive)
REMARK    1  A    between atoms: C_2  and  C_3 
REMARK    2  A    between atoms: C_3  and  C_4 
REMARK    3  A    between atoms: C_7  and  N_8 
REMARK       I    between atoms: N_8  and  C_9 
REMARK    4  A    between atoms: C_9  and  C_10 
REMARK    5  A    between atoms: C_13  and  N_14 
REMARK       I    between atoms: N_14  and  C_15 
REMARK    6  A    between atoms: C_15  and  C_16 
REMARK    7  A    between atoms: C_16  and  C_17 
REMARK    8  A    between atoms: C_19  and  N_20 
ROOT
HETATM    1  C   UNL     1      -1.795   5.091 -31.257  1.00  0.00     0.032 A 
HETATM    2  C   UNL     1      -2.405   6.083 -30.482  1.00  0.00     0.019 A 
HETATM    3  C   UNL     1      -1.627   7.009 -29.773  1.00  0.00     0.030 A 
HETATM    4  C   UNL     1      -0.232   6.975 -29.838  1.00  0.00     0.034 A 
HETATM    5  C   UNL     1       0.377   6.001 -30.637  1.00  0.00     0.030 A 
HETATM    6  C   UNL     1      -0.396   5.066 -31.338  1.00  0.00     0.019 A 
ENDROOT
BRANCH   4   7
HETATM    7  N   UNL     1       0.614   7.879 -29.159  1.00  0.00    -0.327 N 
HETATM    8  C   UNL     1       1.076   7.772 -27.858  1.00  0.00     0.223 C 
HETATM    9  O   UNL     1       0.823   6.861 -27.077  1.00  0.00    -0.273 OA
HETATM   10  H   UNL     1       0.946   8.665 -29.703  1.00  0.00     0.169 HD
BRANCH   8  11
HETATM   11  C   UNL     1       1.921   8.964 -27.438  1.00  0.00     0.128 C 
BRANCH  11  12
HETATM   12  C   UNL     1       1.179   9.826 -26.425  1.00  0.00     0.158 C 
HETATM   13  S   UNL     1      -0.626   9.614 -26.531  1.00  0.00    -0.077 SA
HETATM   14  C   UNL     1      -0.735   9.696 -24.779  1.00  0.00     0.168 C 
HETATM   15  N   UNL     1       0.389   9.608 -24.146  1.00  0.00    -0.189 NA
HETATM   16  C   UNL     1       1.472   9.454 -24.984  1.00  0.00     0.260 C 
HETATM   17  O   UNL     1       2.581   9.105 -24.598  1.00  0.00    -0.270 OA
BRANCH  14  18
HETATM   18  N   UNL     1      -1.962   9.909 -24.193  1.00  0.00    -0.360 N 
HETATM   19  C   UNL     1      -2.750  11.129 -24.388  1.00  0.00     0.125 C 
HETATM   20  C   UNL     1      -3.848  10.868 -25.422  1.00  0.00     0.020 C 
HETATM   21  C   UNL     1      -4.715   9.674 -25.024  1.00  0.00     0.003 C 
HETATM   22  C   UNL     1      -3.853   8.443 -24.747  1.00  0.00     0.020 C 
HETATM   23  C   UNL     1      -2.757   8.764 -23.735  1.00  0.00     0.125 C 
ENDBRANCH  14  18
ENDBRANCH  11  12
ENDBRANCH   8  11
ENDBRANCH   4   7
BRANCH   1  24
HETATM   24  C   UNL     1      -2.567   4.070 -32.034  1.00  0.00     0.256 C 
HETATM   25  N   UNL     1      -3.242   3.122 -31.283  1.00  0.00    -0.323 N 
HETATM   26  H   UNL     1      -3.113   3.141 -30.282  1.00  0.00     0.169 HD
HETATM   27  O   UNL     1      -2.525   4.131 -33.258  1.00  0.00    -0.267 OA
BRANCH  25  28
HETATM   28  C   UNL     1      -4.045   2.062 -31.759  1.00  0.00     0.035 A 
HETATM   29  C   UNL     1      -5.435   2.028 -31.667  1.00  0.00     0.030 A 
HETATM   30  C   UNL     1      -6.160   0.943 -32.180  1.00  0.00     0.010 A 
HETATM   31  C   UNL     1      -5.511  -0.131 -32.802  1.00  0.00    -0.054 A 
HETATM   32  C   UNL     1      -4.111  -0.104 -32.870  1.00  0.00     0.010 A 
HETATM   33  C   UNL     1      -3.388   0.981 -32.358  1.00  0.00     0.030 A 
BRANCH  31  34
HETATM   34  C   UNL     1      -6.268  -1.322 -33.370  1.00  0.00     0.014 C 
HETATM   35  C   UNL     1      -5.403  -2.164 -34.317  1.00  0.00     0.015 C 
BRANCH  34  36
HETATM   36  C   UNL     1      -7.576  -0.848 -34.031  1.00  0.00     0.004 C 
HETATM   37  C   UNL     1      -7.357  -0.098 -35.338  1.00  0.00     0.006 C 
ENDBRANCH  34  36
ENDBRANCH  31  34
ENDBRANCH  25  28
ENDBRANCH   1  24
TORSDOF 8
ENDMDL
MODEL 3
REMARK VINA RESULT:      -8.8      3.806     11.240
REMARK  8 active torsions:
REMARK  status: ('A' for Active; 'I' for Inactive)
REMARK    1  A    between atoms: C_2  and  C_3 
REMARK    2  A    between atoms: C_3  and  C_4 
REMARK    3  A    between atoms: C_7  and  N_8 
REMARK       I    between atoms: N_8  and  C_9 
REMARK    4  A    between atoms: C_9  and  C_10 
REMARK    5  A    between atoms: C_13  and  N_14 
REMARK       I    between atoms: N_14  and  C_15 
REMARK    6  A    between atoms: C_15  and  C_16 
REMARK    7  A    between atoms: C_16  and  C_17 
REMARK    8  A    between atoms: C_19  and  N_20 
ROOT
HETATM    1  C   UNL     1      -3.237   4.633 -31.796  1.00  0.00     0.032 A 
HETATM    2  C   UNL     1      -4.485   4.776 -32.410  1.00  0.00     0.019 A 
HETATM    3  C   UNL     1      -5.206   3.648 -32.827  1.00  0.00     0.030 A 
HETATM    4  C   UNL     1      -4.705   2.359 -32.623  1.00  0.00     0.034 A 
HETATM    5  C   UNL     1      -3.470   2.216 -31.981  1.00  0.00     0.030 A 
HETATM    6  C   UNL     1      -2.741   3.341 -31.574  1.00  0.00     0.019 A 
ENDROOT
BRANCH   4   7
HETATM    7  N   UNL     1      -5.378   1.179 -33.008  1.00  0.00    -0.327 N 
HETATM    8  C   UNL     1      -6.051   0.295 -32.182  1.00  0.00     0.223 C 
HETATM    9  O   UNL     1      -6.176   0.397 -30.967  1.00  0.00    -0.273 OA
HETATM   10  H   UNL     1      -5.399   0.989 -34.002  1.00  0.00     0.169 HD
BRANCH   8  11
HETATM   11  C   UNL     1      -6.606  -0.902 -32.937  1.00  0.00     0.128 C 
BRANCH  11  12
HETATM   12  C   UNL     1      -7.960  -0.576 -33.552  1.00  0.00     0.158 C 
HETATM   13  S   UNL     1      -9.025   0.366 -32.415  1.00  0.00    -0.077 SA
HETATM   14  C   UNL     1      -9.601   1.335 -33.763  1.00  0.00     0.168 C 
HETATM   15  N   UNL     1      -8.933   1.213 -34.863  1.00  0.00    -0.189 NA
HETATM   16  C   UNL     1      -7.873   0.340 -34.758  1.00  0.00     0.260 C 
HETATM   17  O   UNL     1      -6.973   0.266 -35.587  1.00  0.00    -0.270 OA
BRANCH  14  18
HETATM   18  N   UNL     1     -10.736   2.098 -33.603  1.00  0.00    -0.360 N 
HETATM   19  C   UNL     1     -10.769   3.548 -33.810  1.00  0.00     0.125 C 
HETATM   20  C   UNL     1     -11.363   3.855 -35.187  1.00  0.00     0.020 C 
HETATM   21  C   UNL     1     -12.739   3.212 -35.356  1.00  0.00     0.003 C 
HETATM   22  C   UNL     1     -12.683   1.715 -35.051  1.00  0.00     0.020 C 
HETATM   23  C   UNL     1     -12.056   1.463 -33.682  1.00  0.00     0.125 C 
ENDBRANCH  14  18
ENDBRANCH  11  12
ENDBRANCH   8  11
ENDBRANCH   4   7
BRANCH   1  24
HETATM   24  C   UNL     1      -2.415   5.796 -31.332  1.00  0.00     0.256 C 
HETATM   25  N   UNL     1      -2.030   5.770 -30.003  1.00  0.00    -0.323 N 
HETATM   26  H   UNL     1      -2.381   5.018 -29.428  1.00  0.00     0.169 HD
HETATM   27  O   UNL     1      -2.170   6.683 -32.142  1.00  0.00    -0.267 OA
BRANCH  25  28
HETATM   28  C   UNL     1      -1.251   6.728 -29.315  1.00  0.00     0.035 A 
HETATM   29  C   UNL     1      -1.632   8.054 -29.117  1.00  0.00     0.030 A 
HETATM   30  C   UNL     1      -0.806   8.937 -28.408  1.00  0.00     0.010 A 
HETATM   31  C   UNL     1       0.418   8.513 -27.876  1.00  0.00    -0.054 A 
HETATM   32  C   UNL     1       0.808   7.186 -28.099  1.00  0.00     0.010 A 
HETATM   33  C   UNL     1      -0.018   6.304 -28.807  1.00  0.00     0.030 A 
BRANCH  31  34
HETATM   34  C   UNL     1       1.337   9.446 -27.100  1.00  0.00     0.014 C 
HETATM   35  C   UNL     1       2.198   8.696 -26.076  1.00  0.00     0.015 C 
BRANCH  34  36
HETATM   36  C   UNL     1       0.516  10.581 -26.460  1.00  0.00     0.004 C 
HETATM   37  C   UNL     1      -0.058  10.220 -25.097  1.00  0.00     0.006 C 
ENDBRANCH  34  36
ENDBRANCH  31  34
ENDBRANCH  25  28
ENDBRANCH   1  24
TORSDOF 8
ENDMDL
MODEL 4
REMARK VINA RESULT:      -8.8      4.629      6.072
REMARK  8 active torsions:
REMARK  status: ('A' for Active; 'I' for Inactive)
REMARK    1  A    between atoms: C_2  and  C_3 
REMARK    2  A    between atoms: C_3  and  C_4 
REMARK    3  A    between atoms: C_7  and  N_8 
REMARK       I    between atoms: N_8  and  C_9 
REMARK    4  A    between atoms: C_9  and  C_10 
REMARK    5  A    between atoms: C_13  and  N_14 
REMARK       I    between atoms: N_14  and  C_15 
REMARK    6  A    between atoms: C_15  and  C_16 
REMARK    7  A    between atoms: C_16  and  C_17 
REMARK    8  A    between atoms: C_19  and  N_20 
ROOT
HETATM    1  C   UNL     1      -1.824   5.133 -31.501  1.00  0.00     0.032 A 
HETATM    2  C   UNL     1      -2.526   6.193 -30.920  1.00  0.00     0.019 A 
HETATM    3  C   UNL     1      -1.867   7.114 -30.093  1.00  0.00     0.030 A 
HETATM    4  C   UNL     1      -0.496   7.006 -29.848  1.00  0.00     0.034 A 
HETATM    5  C   UNL     1       0.212   5.962 -30.454  1.00  0.00     0.030 A 
HETATM    6  C   UNL     1      -0.445   5.033 -31.270  1.00  0.00     0.019 A 
ENDROOT
BRANCH   4   7
HETATM    7  N   UNL     1       0.235   7.900 -29.034  1.00  0.00    -0.327 N 
HETATM    8  C   UNL     1       0.106   8.079 -27.667  1.00  0.00     0.223 C 
HETATM    9  O   UNL     1      -0.671   7.479 -26.932  1.00  0.00    -0.273 OA
HETATM   10  H   UNL     1       0.957   8.433 -29.503  1.00  0.00     0.169 HD
BRANCH   8  11
HETATM   11  C   UNL     1       1.017   9.172 -27.133  1.00  0.00     0.128 C 
BRANCH  11  12
HETATM   12  C   UNL     1       1.009   9.189 -25.610  1.00  0.00     0.158 C 
HETATM   13  S   UNL     1       2.578   8.594 -24.905  1.00  0.00    -0.077 SA
HETATM   14  C   UNL     1       2.479   9.826 -23.654  1.00  0.00     0.168 C 
HETATM   15  N   UNL     1       1.590  10.745 -23.847  1.00  0.00    -0.189 NA
HETATM   16  C   UNL     1       0.889  10.582 -25.021  1.00  0.00     0.260 C 
HETATM   17  O   UNL     1       0.189  11.457 -25.517  1.00  0.00    -0.270 OA
BRANCH  14  18
HETATM   18  N   UNL     1       3.280   9.715 -22.540  1.00  0.00    -0.360 N 
HETATM   19  C   UNL     1       3.458   8.467 -21.795  1.00  0.00     0.125 C 
HETATM   20  C   UNL     1       4.785   7.816 -22.197  1.00  0.00     0.020 C 
HETATM   21  C   UNL     1       5.956   8.779 -22.007  1.00  0.00     0.003 C 
HETATM   22  C   UNL     1       5.698  10.101 -22.729  1.00  0.00     0.020 C 
HETATM   23  C   UNL     1       4.352  10.691 -22.317  1.00  0.00     0.125 C 
ENDBRANCH  14  18
ENDBRANCH  11  12
ENDBRANCH   8  11
ENDBRANCH   4   7
BRANCH   1  24
HETATM   24  C   UNL     1      -2.469   4.114 -32.390  1.00  0.00     0.256 C 
HETATM   25  N   UNL     1      -3.306   3.209 -31.761  1.00  0.00    -0.323 N 
HETATM   26  H   UNL     1      -3.370   3.252 -30.754  1.00  0.00     0.169 HD
HETATM   27  O   UNL     1      -2.193   4.140 -33.584  1.00  0.00    -0.267 OA
BRANCH  25  28
HETATM   28  C   UNL     1      -4.041   2.160 -32.358  1.00  0.00     0.035 A 
HETATM   29  C   UNL     1      -3.634   0.827 -32.375  1.00  0.00     0.030 A 
HETATM   30  C   UNL     1      -4.431  -0.157 -32.977  1.00  0.00     0.010 A 
HETATM   31  C   UNL     1      -5.658   0.170 -33.569  1.00  0.00    -0.054 A 
HETATM   32  C   UNL     1      -6.051   1.514 -33.571  1.00  0.00     0.010 A 
HETATM   33  C   UNL     1      -5.254   2.496 -32.970  1.00  0.00     0.030 A 
BRANCH  31  34
HETATM   34  C   UNL     1      -6.548  -0.874 -34.229  1.00  0.00     0.014 C 
HETATM   35  C   UNL     1      -7.985  -0.837 -33.692  1.00  0.00     0.015 C 
BRANCH  34  36
HETATM   36  C   UNL     1      -5.907  -2.269 -34.100  1.00  0.00     0.004 C 
HETATM   37  C   UNL     1      -6.688  -3.362 -34.817  1.00  0.00     0.006 C 
ENDBRANCH  34  36
ENDBRANCH  31  34
ENDBRANCH  25  28
ENDBRANCH   1  24
TORSDOF 8
ENDMDL
MODEL 5
REMARK VINA RESULT:      -8.7      7.438     10.785
REMARK  8 active torsions:
REMARK  status: ('A' for Active; 'I' for Inactive)
REMARK    1  A    between atoms: C_2  and  C_3 
REMARK    2  A    between atoms: C_3  and  C_4 
REMARK    3  A    between atoms: C_7  and  N_8 
REMARK       I    between atoms: N_8  and  C_9 
REMARK    4  A    between atoms: C_9  and  C_10 
REMARK    5  A    between atoms: C_13  and  N_14 
REMARK       I    between atoms: N_14  and  C_15 
REMARK    6  A    between atoms: C_15  and  C_16 
REMARK    7  A    between atoms: C_16  and  C_17 
REMARK    8  A    between atoms: C_19  and  N_20 
ROOT
HETATM    1  C   UNL     1       0.596   8.846 -27.309  1.00  0.00     0.032 A 
HETATM    2  C   UNL     1       0.503  10.164 -26.850  1.00  0.00     0.019 A 
HETATM    3  C   UNL     1       1.365  10.630 -25.848  1.00  0.00     0.030 A 
HETATM    4  C   UNL     1       2.346   9.798 -25.300  1.00  0.00     0.034 A 
HETATM    5  C   UNL     1       2.458   8.489 -25.781  1.00  0.00     0.030 A 
HETATM    6  C   UNL     1       1.590   8.016 -26.774  1.00  0.00     0.019 A 
ENDROOT
BRANCH   4   7
HETATM    7  N   UNL     1       3.253  10.200 -24.294  1.00  0.00    -0.327 N 
HETATM    8  C   UNL     1       3.186   9.903 -22.944  1.00  0.00     0.223 C 
HETATM    9  O   UNL     1       2.319   9.231 -22.396  1.00  0.00    -0.273 OA
HETATM   10  H   UNL     1       4.056  10.728 -24.612  1.00  0.00     0.169 HD
BRANCH   8  11
HETATM   11  C   UNL     1       4.304  10.556 -22.147  1.00  0.00     0.128 C 
BRANCH  11  12
HETATM   12  C   UNL     1       5.077   9.517 -21.345  1.00  0.00     0.158 C 
HETATM   13  S   UNL     1       6.091   8.441 -22.407  1.00  0.00    -0.077 SA
HETATM   14  C   UNL     1       7.372   8.468 -21.204  1.00  0.00     0.168 C 
HETATM   15  N   UNL     1       7.240   9.350 -20.268  1.00  0.00    -0.189 NA
HETATM   16  C   UNL     1       6.105  10.119 -20.405  1.00  0.00     0.260 C 
HETATM   17  O   UNL     1       5.914  11.159 -19.788  1.00  0.00    -0.270 OA
BRANCH  14  18
HETATM   18  N   UNL     1       8.383   7.536 -21.280  1.00  0.00    -0.360 N 
HETATM   19  C   UNL     1       9.005   6.922 -20.104  1.00  0.00     0.125 C 
HETATM   20  C   UNL     1       8.415   5.527 -19.884  1.00  0.00     0.020 C 
HETATM   21  C   UNL     1       8.554   4.660 -21.135  1.00  0.00     0.003 C 
HETATM   22  C   UNL     1       7.970   5.368 -22.357  1.00  0.00     0.020 C 
HETATM   23  C   UNL     1       8.568   6.763 -22.513  1.00  0.00     0.125 C 
ENDBRANCH  14  18
ENDBRANCH  11  12
ENDBRANCH   8  11
ENDBRANCH   4   7
BRANCH   1  24
HETATM   24  C   UNL     1      -0.296   8.286 -28.374  1.00  0.00     0.256 C 
HETATM   25  N   UNL     1       0.316   7.463 -29.303  1.00  0.00    -0.323 N 
HETATM   26  H   UNL     1       1.318   7.353 -29.243  1.00  0.00     0.169 HD
HETATM   27  O   UNL     1      -1.478   8.613 -28.361  1.00  0.00    -0.267 OA
BRANCH  25  28
HETATM   28  C   UNL     1      -0.289   6.802 -30.396  1.00  0.00     0.035 A 
HETATM   29  C   UNL     1      -0.570   7.405 -31.620  1.00  0.00     0.030 A 
HETATM   30  C   UNL     1      -1.158   6.673 -32.661  1.00  0.00     0.010 A 
HETATM   31  C   UNL     1      -1.473   5.317 -32.502  1.00  0.00    -0.054 A 
HETATM   32  C   UNL     1      -1.211   4.721 -31.261  1.00  0.00     0.010 A 
HETATM   33  C   UNL     1      -0.623   5.454 -30.223  1.00  0.00     0.030 A 
BRANCH  31  34
HETATM   34  C   UNL     1      -2.110   4.493 -33.612  1.00  0.00     0.014 C 
HETATM   35  C   UNL     1      -1.855   5.091 -35.001  1.00  0.00     0.015 C 
BRANCH  34  36
HETATM   36  C   UNL     1      -3.609   4.291 -33.323  1.00  0.00     0.004 C 
HETATM   37  C   UNL     1      -4.501   5.317 -34.010  1.00  0.00     0.006 C 
ENDBRANCH  34  36
ENDBRANCH  31  34
ENDBRANCH  25  28
ENDBRANCH   1  24
TORSDOF 8
ENDMDL
MODEL 6
REMARK VINA RESULT:      -8.7      5.565     12.767
REMARK  8 active torsions:
REMARK  status: ('A' for Active; 'I' for Inactive)
REMARK    1  A    between atoms: C_2  and  C_3 
REMARK    2  A    between atoms: C_3  and  C_4 
REMARK    3  A    between atoms: C_7  and  N_8 
REMARK       I    between atoms: N_8  and  C_9 
REMARK    4  A    between atoms: C_9  and  C_10 
REMARK    5  A    between atoms: C_13  and  N_14 
REMARK       I    between atoms: N_14  and  C_15 
REMARK    6  A    between atoms: C_15  and  C_16 
REMARK    7  A    between atoms: C_16  and  C_17 
REMARK    8  A    between atoms: C_19  and  N_20 
ROOT
HETATM    1  C   UNL     1       0.935   8.853 -26.396  1.00  0.00     0.032 A 
HETATM    2  C   UNL     1      -0.454   8.700 -26.334  1.00  0.00     0.019 A 
HETATM    3  C   UNL     1      -1.162   8.189 -27.431  1.00  0.00     0.030 A 
HETATM    4  C   UNL     1      -0.497   7.803 -28.599  1.00  0.00     0.034 A 
HETATM    5  C   UNL     1       0.895   7.928 -28.648  1.00  0.00     0.030 A 
HETATM    6  C   UNL     1       1.605   8.450 -27.559  1.00  0.00     0.019 A 
ENDROOT
BRANCH   4   7
HETATM    7  N   UNL     1      -1.143   7.274 -29.738  1.00  0.00    -0.327 N 
HETATM    8  C   UNL     1      -1.881   7.972 -30.679  1.00  0.00     0.223 C 
HETATM    9  O   UNL     1      -2.094   9.179 -30.675  1.00  0.00    -0.273 OA
HETATM   10  H   UNL     1      -1.011   6.283 -29.898  1.00  0.00     0.169 HD
BRANCH   8  11
HETATM   11  C   UNL     1      -2.481   7.065 -31.741  1.00  0.00     0.128 C 
BRANCH  11  12
HETATM   12  C   UNL     1      -2.889   5.725 -31.142  1.00  0.00     0.158 C 
HETATM   13  S   UNL     1      -4.512   5.165 -31.749  1.00  0.00    -0.077 SA
HETATM   14  C   UNL     1      -3.912   3.514 -31.817  1.00  0.00     0.168 C 
HETATM   15  N   UNL     1      -2.632   3.380 -31.692  1.00  0.00    -0.189 NA
HETATM   16  C   UNL     1      -1.975   4.581 -31.539  1.00  0.00     0.260 C 
HETATM   17  O   UNL     1      -0.762   4.707 -31.654  1.00  0.00    -0.270 OA
BRANCH  14  18
HETATM   18  N   UNL     1      -4.812   2.478 -31.929  1.00  0.00    -0.360 N 
HETATM   19  C   UNL     1      -4.415   1.082 -32.132  1.00  0.00     0.125 C 
HETATM   20  C   UNL     1      -4.483   0.333 -30.798  1.00  0.00     0.020 C 
HETATM   21  C   UNL     1      -5.866   0.458 -30.160  1.00  0.00     0.003 C 
HETATM   22  C   UNL     1      -6.282   1.923 -30.042  1.00  0.00     0.020 C 
HETATM   23  C   UNL     1      -6.167   2.631 -31.389  1.00  0.00     0.125 C 
ENDBRANCH  14  18
ENDBRANCH  11  12
ENDBRANCH   8  11
ENDBRANCH   4   7
BRANCH   1  24
HETATM   24  C   UNL     1       1.748   9.396 -25.261  1.00  0.00     0.256 C 
HETATM   25  N   UNL     1       2.724   8.552 -24.760  1.00  0.00    -0.323 N 
HETATM   26  H   UNL     1       2.775   7.617 -25.140  1.00  0.00     0.169 HD
HETATM   27  O   UNL     1       1.478  10.518 -24.850  1.00  0.00    -0.267 OA
BRANCH  25  28
HETATM   28  C   UNL     1       3.630   8.814 -23.708  1.00  0.00     0.035 A 
HETATM   29  C   UNL     1       4.808   9.545 -23.850  1.00  0.00     0.030 A 
HETATM   30  C   UNL     1       5.645   9.774 -22.749  1.00  0.00     0.010 A 
HETATM   31  C   UNL     1       5.319   9.282 -21.479  1.00  0.00    -0.054 A 
HETATM   32  C   UNL     1       4.146   8.527 -21.346  1.00  0.00     0.010 A 
HETATM   33  C   UNL     1       3.310   8.299 -22.446  1.00  0.00     0.030 A 
BRANCH  31  34
HETATM   34  C   UNL     1       6.205   9.514 -20.263  1.00  0.00     0.014 C 
HETATM   35  C   UNL     1       7.403  10.419 -20.579  1.00  0.00     0.015 C 
BRANCH  34  36
HETATM   36  C   UNL     1       6.629   8.164 -19.655  1.00  0.00     0.004 C 
HETATM   37  C   UNL     1       7.649   7.414 -20.501  1.00  0.00     0.006 C 
ENDBRANCH  34  36
ENDBRANCH  31  34
ENDBRANCH  25  28
ENDBRANCH   1  24
TORSDOF 8
ENDMDL
MODEL 7
REMARK VINA RESULT:      -8.7      1.463      1.943
REMARK  8 active torsions:
REMARK  status: ('A' for Active; 'I' for Inactive)
REMARK    1  A    between atoms: C_2  and  C_3 
REMARK    2  A    between atoms: C_3  and  C_4 
REMARK    3  A    between atoms: C_7  and  N_8 
REMARK       I    between atoms: N_8  and  C_9 
REMARK    4  A    between atoms: C_9  and  C_10 
REMARK    5  A    between atoms: C_13  and  N_14 
REMARK       I    between atoms: N_14  and  C_15 
REMARK    6  A    between atoms: C_15  and  C_16 
REMARK    7  A    between atoms: C_16  and  C_17 
REMARK    8  A    between atoms: C_19  and  N_20 
ROOT
HETATM    1  C   UNL     1      -6.264   3.516 -32.033  1.00  0.00     0.032 A 
HETATM    2  C   UNL     1      -7.389   3.989 -31.350  1.00  0.00     0.019 A 
HETATM    3  C   UNL     1      -7.288   5.094 -30.493  1.00  0.00     0.030 A 
HETATM    4  C   UNL     1      -6.071   5.758 -30.318  1.00  0.00     0.034 A 
HETATM    5  C   UNL     1      -4.952   5.304 -31.025  1.00  0.00     0.030 A 
HETATM    6  C   UNL     1      -5.046   4.192 -31.872  1.00  0.00     0.019 A 
ENDROOT
BRANCH   4   7
HETATM    7  N   UNL     1      -5.896   6.881 -29.479  1.00  0.00    -0.327 N 
HETATM    8  C   UNL     1      -5.969   6.909 -28.097  1.00  0.00     0.223 C 
HETATM    9  O   UNL     1      -6.198   5.950 -27.368  1.00  0.00    -0.273 OA
HETATM   10  H   UNL     1      -5.651   7.745 -29.946  1.00  0.00     0.169 HD
BRANCH   8  11
HETATM   11  C   UNL     1      -5.787   8.308 -27.530  1.00  0.00     0.128 C 
BRANCH  11  12
HETATM   12  C   UNL     1      -4.309   8.658 -27.414  1.00  0.00     0.158 C 
HETATM   13  S   UNL     1      -3.311   7.248 -26.837  1.00  0.00    -0.077 SA
HETATM   14  C   UNL     1      -2.028   7.708 -27.947  1.00  0.00     0.168 C 
HETATM   15  N   UNL     1      -2.349   8.592 -28.835  1.00  0.00    -0.189 NA
HETATM   16  C   UNL     1      -3.661   9.001 -28.742  1.00  0.00     0.260 C 
HETATM   17  O   UNL     1      -4.237   9.631 -29.620  1.00  0.00    -0.270 OA
BRANCH  14  18
HETATM   18  N   UNL     1      -0.772   7.170 -27.780  1.00  0.00    -0.360 N 
HETATM   19  C   UNL     1       0.325   7.369 -28.730  1.00  0.00     0.125 C 
HETATM   20  C   UNL     1       1.267   8.455 -28.204  1.00  0.00     0.020 C 
HETATM   21  C   UNL     1       1.768   8.123 -26.799  1.00  0.00     0.003 C 
HETATM   22  C   UNL     1       0.600   7.840 -25.856  1.00  0.00     0.020 C 
HETATM   23  C   UNL     1      -0.323   6.774 -26.440  1.00  0.00     0.125 C 
ENDBRANCH  14  18
ENDBRANCH  11  12
ENDBRANCH   8  11
ENDBRANCH   4   7
BRANCH   1  24
HETATM   24  C   UNL     1      -6.303   2.339 -32.959  1.00  0.00     0.256 C 
HETATM   25  N   UNL     1      -5.967   1.119 -32.398  1.00  0.00    -0.323 N 
HETATM   26  H   UNL     1      -5.656   1.115 -31.438  1.00  0.00     0.169 HD
HETATM   27  O   UNL     1      -6.600   2.543 -34.130  1.00  0.00    -0.267 OA
BRANCH  25  28
HETATM   28  C   UNL     1      -5.932  -0.140 -33.039  1.00  0.00     0.035 A 
HETATM   29  C   UNL     1      -7.060  -0.824 -33.488  1.00  0.00     0.030 A 
HETATM   30  C   UNL     1      -6.936  -2.065 -34.129  1.00  0.00     0.010 A 
HETATM   31  C   UNL     1      -5.680  -2.646 -34.341  1.00  0.00    -0.054 A 
HETATM   32  C   UNL     1      -4.550  -1.966 -33.866  1.00  0.00     0.010 A 
HETATM   33  C   UNL     1      -4.675  -0.727 -33.226  1.00  0.00     0.030 A 
BRANCH  31  34
HETATM   34  C   UNL     1      -5.510  -3.990 -35.035  1.00  0.00     0.014 C 
HETATM   35  C   UNL     1      -6.826  -4.508 -35.630  1.00  0.00     0.015 C 
BRANCH  34  36
HETATM   36  C   UNL     1      -4.860  -5.002 -34.073  1.00  0.00     0.004 C 
HETATM   37  C   UNL     1      -3.347  -4.860 -33.978  1.00  0.00     0.006 C 
ENDBRANCH  34  36
ENDBRANCH  31  34
ENDBRANCH  25  28
ENDBRANCH   1  24
TORSDOF 8
ENDMDL
MODEL 8
REMARK VINA RESULT:      -8.6      5.508     12.815
REMARK  8 active torsions:
REMARK  status: ('A' for Active; 'I' for Inactive)
REMARK    1  A    between atoms: C_2  and  C_3 
REMARK    2  A    between atoms: C_3  and  C_4 
REMARK    3  A    between atoms: C_7  and  N_8 
REMARK       I    between atoms: N_8  and  C_9 
REMARK    4  A    between atoms: C_9  and  C_10 
REMARK    5  A    between atoms: C_13  and  N_14 
REMARK       I    between atoms: N_14  and  C_15 
REMARK    6  A    between atoms: C_15  and  C_16 
REMARK    7  A    between atoms: C_16  and  C_17 
REMARK    8  A    between atoms: C_19  and  N_20 
ROOT
HETATM    1  C   UNL     1       0.900   8.662 -26.515  1.00  0.00     0.032 A 
HETATM    2  C   UNL     1       1.508   8.447 -27.756  1.00  0.00     0.019 A 
HETATM    3  C   UNL     1       0.776   7.902 -28.821  1.00  0.00     0.030 A 
HETATM    4  C   UNL     1      -0.576   7.581 -28.673  1.00  0.00     0.034 A 
HETATM    5  C   UNL     1      -1.191   7.824 -27.440  1.00  0.00     0.030 A 
HETATM    6  C   UNL     1      -0.460   8.356 -26.370  1.00  0.00     0.019 A 
ENDROOT
BRANCH   4   7
HETATM    7  N   UNL     1      -1.377   7.037 -29.702  1.00  0.00    -0.327 N 
HETATM    8  C   UNL     1      -2.080   7.735 -30.669  1.00  0.00     0.223 C 
HETATM    9  O   UNL     1      -2.119   8.954 -30.791  1.00  0.00    -0.273 OA
HETATM   10  H   UNL     1      -1.400   6.026 -29.754  1.00  0.00     0.169 HD
BRANCH   8  11
HETATM   11  C   UNL     1      -2.884   6.821 -31.580  1.00  0.00     0.128 C 
BRANCH  11  12
HETATM   12  C   UNL     1      -3.044   5.440 -30.959  1.00  0.00     0.158 C 
HETATM   13  S   UNL     1      -4.689   4.728 -31.278  1.00  0.00    -0.077 SA
HETATM   14  C   UNL     1      -3.955   3.146 -31.504  1.00  0.00     0.168 C 
HETATM   15  N   UNL     1      -2.667   3.140 -31.617  1.00  0.00    -0.189 NA
HETATM   16  C   UNL     1      -2.112   4.399 -31.549  1.00  0.00     0.260 C 
HETATM   17  O   UNL     1      -0.959   4.647 -31.878  1.00  0.00    -0.270 OA
BRANCH  14  18
HETATM   18  N   UNL     1      -4.757   2.027 -31.483  1.00  0.00    -0.360 N 
HETATM   19  C   UNL     1      -6.086   1.974 -32.097  1.00  0.00     0.125 C 
HETATM   20  C   UNL     1      -5.995   1.271 -33.453  1.00  0.00     0.020 C 
HETATM   21  C   UNL     1      -5.361  -0.114 -33.320  1.00  0.00     0.003 C 
HETATM   22  C   UNL     1      -4.015  -0.030 -32.601  1.00  0.00     0.020 C 
HETATM   23  C   UNL     1      -4.155   0.706 -31.272  1.00  0.00     0.125 C 
ENDBRANCH  14  18
ENDBRANCH  11  12
ENDBRANCH   8  11
ENDBRANCH   4   7
BRANCH   1  24
HETATM   24  C   UNL     1       1.626   9.236 -25.338  1.00  0.00     0.256 C 
HETATM   25  N   UNL     1       2.648   8.459 -24.820  1.00  0.00    -0.323 N 
HETATM   26  H   UNL     1       2.787   7.542 -25.221  1.00  0.00     0.169 HD
HETATM   27  O   UNL     1       1.252  10.322 -24.909  1.00  0.00    -0.267 OA
BRANCH  25  28
HETATM   28  C   UNL     1       3.491   8.763 -23.728  1.00  0.00     0.035 A 
HETATM   29  C   UNL     1       3.300   8.288 -22.432  1.00  0.00     0.030 A 
HETATM   30  C   UNL     1       4.194   8.626 -21.407  1.00  0.00     0.010 A 
HETATM   31  C   UNL     1       5.305   9.442 -21.656  1.00  0.00    -0.054 A 
HETATM   32  C   UNL     1       5.479   9.938 -22.955  1.00  0.00     0.010 A 
HETATM   33  C   UNL     1       4.586   9.599 -23.979  1.00  0.00     0.030 A 
BRANCH  31  34
HETATM   34  C   UNL     1       6.295   9.826 -20.567  1.00  0.00     0.014 C 
HETATM   35  C   UNL     1       7.697  10.104 -21.125  1.00  0.00     0.015 C 
BRANCH  34  36
HETATM   36  C   UNL     1       6.303   8.754 -19.461  1.00  0.00     0.004 C 
HETATM   37  C   UNL     1       7.355   7.674 -19.672  1.00  0.00     0.006 C 
ENDBRANCH  34  36
ENDBRANCH  31  34
ENDBRANCH  25  28
ENDBRANCH   1  24
TORSDOF 8
ENDMDL
MODEL 9
REMARK VINA RESULT:      -8.6      4.552     11.878
REMARK  8 active torsions:
REMARK  status: ('A' for Active; 'I' for Inactive)
REMARK    1  A    between atoms: C_2  and  C_3 
REMARK    2  A    between atoms: C_3  and  C_4 
REMARK    3  A    between atoms: C_7  and  N_8 
REMARK       I    between atoms: N_8  and  C_9 
REMARK    4  A    between atoms: C_9  and  C_10 
REMARK    5  A    between atoms: C_13  and  N_14 
REMARK       I    between atoms: N_14  and  C_15 
REMARK    6  A    between atoms: C_15  and  C_16 
REMARK    7  A    between atoms: C_16  and  C_17 
REMARK    8  A    between atoms: C_19  and  N_20 
ROOT
HETATM    1  C   UNL     1      -2.431   5.437 -31.346  1.00  0.00     0.032 A 
HETATM    2  C   UNL     1      -2.111   4.612 -32.429  1.00  0.00     0.019 A 
HETATM    3  C   UNL     1      -3.075   3.758 -32.981  1.00  0.00     0.030 A 
HETATM    4  C   UNL     1      -4.379   3.725 -32.478  1.00  0.00     0.034 A 
HETATM    5  C   UNL     1      -4.707   4.573 -31.415  1.00  0.00     0.030 A 
HETATM    6  C   UNL     1      -3.742   5.419 -30.852  1.00  0.00     0.019 A 
ENDROOT
BRANCH   4   7
HETATM    7  N   UNL     1      -5.403   2.898 -32.988  1.00  0.00    -0.327 N 
HETATM    8  C   UNL     1      -6.462   3.281 -33.794  1.00  0.00     0.223 C 
HETATM    9  O   UNL     1      -6.682   4.416 -34.202  1.00  0.00    -0.273 OA
HETATM   10  H   UNL     1      -5.323   1.912 -32.770  1.00  0.00     0.169 HD
BRANCH   8  11
HETATM   11  C   UNL     1      -7.407   2.131 -34.103  1.00  0.00     0.128 C 
BRANCH  11  12
HETATM   12  C   UNL     1      -8.741   2.318 -33.391  1.00  0.00     0.158 C 
HETATM   13  S   UNL     1      -9.977   3.136 -34.448  1.00  0.00    -0.077 SA
HETATM   14  C   UNL     1     -11.224   2.081 -33.799  1.00  0.00     0.168 C 
HETATM   15  N   UNL     1     -10.798   1.071 -33.113  1.00  0.00    -0.189 NA
HETATM   16  C   UNL     1      -9.424   1.013 -33.032  1.00  0.00     0.260 C 
HETATM   17  O   UNL     1      -8.811   0.023 -32.652  1.00  0.00    -0.270 OA
BRANCH  14  18
HETATM   18  N   UNL     1     -12.547   2.408 -33.993  1.00  0.00    -0.360 N 
HETATM   19  C   UNL     1     -13.533   1.483 -34.557  1.00  0.00     0.125 C 
HETATM   20  C   UNL     1     -14.369   0.876 -33.427  1.00  0.00     0.020 C 
HETATM   21  C   UNL     1     -15.015   1.962 -32.567  1.00  0.00     0.003 C 
HETATM   22  C   UNL     1     -13.968   2.956 -32.066  1.00  0.00     0.020 C 
HETATM   23  C   UNL     1     -13.144   3.507 -33.227  1.00  0.00     0.125 C 
ENDBRANCH  14  18
ENDBRANCH  11  12
ENDBRANCH   8  11
ENDBRANCH   4   7
BRANCH   1  24
HETATM   24  C   UNL     1      -1.447   6.369 -30.708  1.00  0.00     0.256 C 
HETATM   25  N   UNL     1      -1.522   6.475 -29.330  1.00  0.00    -0.323 N 
HETATM   26  H   UNL     1      -2.268   5.980 -28.863  1.00  0.00     0.169 HD
HETATM   27  O   UNL     1      -0.677   6.978 -31.442  1.00  0.00    -0.267 OA
BRANCH  25  28
HETATM   28  C   UNL     1      -0.714   7.268 -28.484  1.00  0.00     0.035 A 
HETATM   29  C   UNL     1      -0.866   8.643 -28.316  1.00  0.00     0.030 A 
HETATM   30  C   UNL     1      -0.031   9.353 -27.443  1.00  0.00     0.010 A 
HETATM   31  C   UNL     1       0.972   8.703 -26.713  1.00  0.00    -0.054 A 
HETATM   32  C   UNL     1       1.137   7.325 -26.904  1.00  0.00     0.010 A 
HETATM   33  C   UNL     1       0.302   6.616 -27.776  1.00  0.00     0.030 A 
BRANCH  31  34
HETATM   34  C   UNL     1       1.895   9.445 -25.756  1.00  0.00     0.014 C 
HETATM   35  C   UNL     1       2.603   8.498 -24.779  1.00  0.00     0.015 C 
BRANCH  34  36
HETATM   36  C   UNL     1       1.117  10.562 -25.035  1.00  0.00     0.004 C 
HETATM   37  C   UNL     1       0.410  10.090 -23.772  1.00  0.00     0.006 C 
ENDBRANCH  34  36
ENDBRANCH  31  34
ENDBRANCH  25  28
ENDBRANCH   1  24
TORSDOF 8
ENDMDL
MODEL 10
REMARK VINA RESULT:      -8.5      2.285      3.065
REMARK  8 active torsions:
REMARK  status: ('A' for Active; 'I' for Inactive)
REMARK    1  A    between atoms: C_2  and  C_3 
REMARK    2  A    between atoms: C_3  and  C_4 
REMARK    3  A    between atoms: C_7  and  N_8 
REMARK       I    between atoms: N_8  and  C_9 
REMARK    4  A    between atoms: C_9  and  C_10 
REMARK    5  A    between atoms: C_13  and  N_14 
REMARK       I    between atoms: N_14  and  C_15 
REMARK    6  A    between atoms: C_15  and  C_16 
REMARK    7  A    between atoms: C_16  and  C_17 
REMARK    8  A    between atoms: C_19  and  N_20 
ROOT
HETATM    1  C   UNL     1      -5.560   3.683 -31.384  1.00  0.00     0.032 A 
HETATM    2  C   UNL     1      -4.553   4.651 -31.454  1.00  0.00     0.019 A 
HETATM    3  C   UNL     1      -4.441   5.633 -30.461  1.00  0.00     0.030 A 
HETATM    4  C   UNL     1      -5.317   5.658 -29.372  1.00  0.00     0.034 A 
HETATM    5  C   UNL     1      -6.305   4.671 -29.287  1.00  0.00     0.030 A 
HETATM    6  C   UNL     1      -6.428   3.695 -30.284  1.00  0.00     0.019 A 
ENDROOT
BRANCH   4   7
HETATM    7  N   UNL     1      -5.259   6.611 -28.332  1.00  0.00    -0.327 N 
HETATM    8  C   UNL     1      -5.588   7.953 -28.411  1.00  0.00     0.223 C 
HETATM    9  O   UNL     1      -5.990   8.538 -29.411  1.00  0.00    -0.273 OA
HETATM   10  H   UNL     1      -4.987   6.255 -27.423  1.00  0.00     0.169 HD
BRANCH   8  11
HETATM   11  C   UNL     1      -5.346   8.692 -27.105  1.00  0.00     0.128 C 
BRANCH  11  12
HETATM   12  C   UNL     1      -4.191   8.067 -26.333  1.00  0.00     0.158 C 
HETATM   13  S   UNL     1      -2.614   8.191 -27.234  1.00  0.00    -0.077 SA
HETATM   14  C   UNL     1      -1.780   8.516 -25.721  1.00  0.00     0.168 C 
HETATM   15  N   UNL     1      -2.542   8.784 -24.711  1.00  0.00    -0.189 NA
HETATM   16  C   UNL     1      -3.883   8.773 -25.027  1.00  0.00     0.260 C 
HETATM   17  O   UNL     1      -4.752   9.237 -24.299  1.00  0.00    -0.270 OA
BRANCH  14  18
HETATM   18  N   UNL     1      -0.409   8.407 -25.675  1.00  0.00    -0.360 N 
HETATM   19  C   UNL     1       0.328   7.253 -26.198  1.00  0.00     0.125 C 
HETATM   20  C   UNL     1       0.901   7.593 -27.575  1.00  0.00     0.020 C 
HETATM   21  C   UNL     1       1.760   8.856 -27.523  1.00  0.00     0.003 C 
HETATM   22  C   UNL     1       0.988  10.016 -26.896  1.00  0.00     0.020 C 
HETATM   23  C   UNL     1       0.413   9.615 -25.541  1.00  0.00     0.125 C 
ENDBRANCH  14  18
ENDBRANCH  11  12
ENDBRANCH   8  11
ENDBRANCH   4   7
BRANCH   1  24
HETATM   24  C   UNL     1      -5.736   2.610 -32.414  1.00  0.00     0.256 C 
HETATM   25  N   UNL     1      -5.473   1.318 -31.991  1.00  0.00    -0.323 N 
HETATM   26  H   UNL     1      -5.119   1.196 -31.053  1.00  0.00     0.169 HD
HETATM   27  O   UNL     1      -6.069   2.950 -33.543  1.00  0.00    -0.267 OA
BRANCH  25  28
HETATM   28  C   UNL     1      -5.568   0.129 -32.748  1.00  0.00     0.035 A 
HETATM   29  C   UNL     1      -6.767  -0.428 -33.188  1.00  0.00     0.030 A 
HETATM   30  C   UNL     1      -6.772  -1.604 -33.950  1.00  0.00     0.010 A 
HETATM   31  C   UNL     1      -5.576  -2.247 -34.296  1.00  0.00    -0.054 A 
HETATM   32  C   UNL     1      -4.375  -1.696 -33.831  1.00  0.00     0.010 A 
HETATM   33  C   UNL     1      -4.371  -0.521 -33.070  1.00  0.00     0.030 A 
BRANCH  31  34
HETATM   34  C   UNL     1      -5.547  -3.524 -35.124  1.00  0.00     0.014 C 
HETATM   35  C   UNL     1      -6.777  -4.407 -34.876  1.00  0.00     0.015 C 
BRANCH  34  36
HETATM   36  C   UNL     1      -4.224  -4.275 -34.886  1.00  0.00     0.004 C 
HETATM   37  C   UNL     1      -4.310  -5.316 -33.778  1.00  0.00     0.006 C 
ENDBRANCH  34  36
ENDBRANCH  31  34
ENDBRANCH  25  28
ENDBRANCH   1  24
TORSDOF 8
ENDMDL
