MODEL 1
REMARK VINA RESULT:      -9.7      0.000      0.000
REMARK  5 active torsions:
REMARK  status: ('A' for Active; 'I' for Inactive)
REMARK    1  A    between atoms: C_5  and  C_6 
REMARK    2  A    between atoms: C_11  and  C_12 
REMARK       I    between atoms: C_12  and  N_13 
REMARK    3  A    between atoms: N_13  and  C_14 
REMARK    4  A    between atoms: C_16  and  O_17 
REMARK    5  A    between atoms: C_23  and  C_24 
ROOT
HETATM    1  C   UNL     1      -5.381   0.414 -32.528  1.00  0.00     0.118 C 
HETATM    2  N   UNL     1      -6.335   0.810 -33.563  1.00  0.00    -0.366 N 
HETATM    3  C   UNL     1      -7.523   1.381 -33.278  1.00  0.00     0.123 A 
HETATM    4  N   UNL     1      -7.831   1.777 -32.009  1.00  0.00    -0.240 N 
HETATM    5  N   UNL     1      -9.105   2.180 -31.852  1.00  0.00    -0.165 NA
HETATM    6  C   UNL     1      -9.590   2.164 -33.117  1.00  0.00     0.148 A 
HETATM    7  C   UNL     1      -8.618   1.684 -34.040  1.00  0.00     0.089 A 
HETATM    8  C   UNL     1      -6.911   1.655 -30.896  1.00  0.00     0.221 C 
HETATM    9  C   UNL     1      -6.019   0.425 -31.122  1.00  0.00     0.066 C 
HETATM   10  H   UNL     1      -6.097   0.522 -34.512  1.00  0.00     0.161 HD
ENDROOT
BRANCH   6  11
HETATM   11  C   UNL     1     -10.975   2.565 -33.428  1.00  0.00     0.276 C 
HETATM   12  N   UNL     1     -11.886   1.608 -33.027  1.00  0.00    -0.322 N 
HETATM   13  H   UNL     1     -11.451   0.789 -32.608  1.00  0.00     0.169 HD
HETATM   14  O   UNL     1     -11.224   3.621 -33.998  1.00  0.00    -0.266 OA
BRANCH  12  15
HETATM   15  C   UNL     1     -13.284   1.622 -33.157  1.00  0.00     0.037 A 
HETATM   16  C   UNL     1     -13.984   0.850 -34.087  1.00  0.00     0.066 A 
HETATM   17  C   UNL     1     -15.375   0.936 -34.150  1.00  0.00     0.067 A 
HETATM   18  C   UNL     1     -16.083   1.773 -33.297  1.00  0.00     0.036 A 
HETATM   19  C   UNL     1     -15.391   2.544 -32.366  1.00  0.00     0.005 A 
HETATM   20  C   UNL     1     -13.997   2.473 -32.300  1.00  0.00     0.029 A 
BRANCH  17  21
HETATM   21  O   UNL     1     -16.087   0.205 -35.056  1.00  0.00    -0.361 OA
HETATM   22  H   UNL     1     -15.826   0.486 -35.949  1.00  0.00     0.217 HD
ENDBRANCH  17  21
ENDBRANCH  12  15
ENDBRANCH   6  11
BRANCH   8  23
HETATM   23  C   UNL     1      -6.119   2.933 -30.738  1.00  0.00     0.409 C 
HETATM   24  F   UNL     1      -6.186   3.718 -31.835  1.00  0.00    -0.169 F 
HETATM   25  F   UNL     1      -6.630   3.662 -29.711  1.00  0.00    -0.169 F 
HETATM   26  F   UNL     1      -4.816   2.730 -30.453  1.00  0.00    -0.169 F 
ENDBRANCH   8  23
BRANCH   1  27
HETATM   27  C   UNL     1      -4.840  -0.965 -32.862  1.00  0.00    -0.035 A 
HETATM   28  C   UNL     1      -3.880  -1.574 -32.042  1.00  0.00     0.010 A 
HETATM   29  C   UNL     1      -3.388  -2.847 -32.349  1.00  0.00     0.007 A 
HETATM   30  C   UNL     1      -3.838  -3.532 -33.483  1.00  0.00    -0.062 A 
HETATM   31  C   UNL     1      -3.338  -4.911 -33.799  1.00  0.00     0.048 C 
HETATM   32  C   UNL     1      -4.804  -2.934 -34.298  1.00  0.00     0.007 A 
HETATM   33  C   UNL     1      -5.292  -1.663 -33.995  1.00  0.00     0.010 A 
ENDBRANCH   1  27
TORSDOF 5
ENDMDL
MODEL 2
REMARK VINA RESULT:      -9.7      5.527      8.482
REMARK  5 active torsions:
REMARK  status: ('A' for Active; 'I' for Inactive)
REMARK    1  A    between atoms: C_5  and  C_6 
REMARK    2  A    between atoms: C_11  and  C_12 
REMARK       I    between atoms: C_12  and  N_13 
REMARK    3  A    between atoms: N_13  and  C_14 
REMARK    4  A    between atoms: C_16  and  O_17 
REMARK    5  A    between atoms: C_23  and  C_24 
ROOT
HETATM    1  C   UNL     1      -3.052   5.668 -31.908  1.00  0.00     0.118 C 
HETATM    2  N   UNL     1      -2.664   4.312 -32.296  1.00  0.00    -0.366 N 
HETATM    3  C   UNL     1      -3.533   3.282 -32.310  1.00  0.00     0.123 A 
HETATM    4  N   UNL     1      -4.870   3.482 -32.122  1.00  0.00    -0.240 N 
HETATM    5  N   UNL     1      -5.585   2.349 -32.003  1.00  0.00    -0.165 NA
HETATM    6  C   UNL     1      -4.672   1.381 -32.262  1.00  0.00     0.148 A 
HETATM    7  C   UNL     1      -3.378   1.933 -32.476  1.00  0.00     0.089 A 
HETATM    8  C   UNL     1      -5.456   4.795 -31.937  1.00  0.00     0.221 C 
HETATM    9  C   UNL     1      -4.437   5.697 -31.226  1.00  0.00     0.066 C 
HETATM   10  H   UNL     1      -1.666   4.168 -32.446  1.00  0.00     0.161 HD
ENDROOT
BRANCH   6  11
HETATM   11  C   UNL     1      -5.031  -0.049 -32.265  1.00  0.00     0.276 C 
HETATM   12  N   UNL     1      -4.825  -0.624 -33.504  1.00  0.00    -0.322 N 
HETATM   13  H   UNL     1      -4.482   0.034 -34.201  1.00  0.00     0.169 HD
HETATM   14  O   UNL     1      -5.479  -0.601 -31.267  1.00  0.00    -0.266 OA
BRANCH  12  15
HETATM   15  C   UNL     1      -5.055  -1.951 -33.902  1.00  0.00     0.037 A 
HETATM   16  C   UNL     1      -4.120  -2.978 -33.754  1.00  0.00     0.066 A 
HETATM   17  C   UNL     1      -4.433  -4.266 -34.187  1.00  0.00     0.067 A 
HETATM   18  C   UNL     1      -5.667  -4.552 -34.758  1.00  0.00     0.036 A 
HETATM   19  C   UNL     1      -6.605  -3.534 -34.906  1.00  0.00     0.005 A 
HETATM   20  C   UNL     1      -6.298  -2.237 -34.484  1.00  0.00     0.029 A 
BRANCH  17  21
HETATM   21  O   UNL     1      -3.536  -5.288 -34.069  1.00  0.00    -0.361 OA
HETATM   22  H   UNL     1      -2.790  -4.980 -33.528  1.00  0.00     0.217 HD
ENDBRANCH  17  21
ENDBRANCH  12  15
ENDBRANCH   6  11
BRANCH   8  23
HETATM   23  C   UNL     1      -5.905   5.353 -33.268  1.00  0.00     0.409 C 
HETATM   24  F   UNL     1      -7.120   4.890 -33.635  1.00  0.00    -0.169 F 
HETATM   25  F   UNL     1      -6.018   6.704 -33.182  1.00  0.00    -0.169 F 
HETATM   26  F   UNL     1      -5.045   5.103 -34.277  1.00  0.00    -0.169 F 
ENDBRANCH   8  23
BRANCH   1  27
HETATM   27  C   UNL     1      -1.987   6.237 -30.986  1.00  0.00    -0.035 A 
HETATM   28  C   UNL     1      -0.629   6.153 -31.325  1.00  0.00     0.010 A 
HETATM   29  C   UNL     1       0.349   6.684 -30.477  1.00  0.00     0.007 A 
HETATM   30  C   UNL     1      -0.008   7.300 -29.273  1.00  0.00    -0.062 A 
HETATM   31  C   UNL     1       1.034   7.898 -28.376  1.00  0.00     0.048 C 
HETATM   32  C   UNL     1      -1.362   7.396 -28.935  1.00  0.00     0.007 A 
HETATM   33  C   UNL     1      -2.338   6.864 -29.778  1.00  0.00     0.010 A 
ENDBRANCH   1  27
TORSDOF 5
ENDMDL
MODEL 3
REMARK VINA RESULT:      -9.5      5.676      8.823
REMARK  5 active torsions:
REMARK  status: ('A' for Active; 'I' for Inactive)
REMARK    1  A    between atoms: C_5  and  C_6 
REMARK    2  A    between atoms: C_11  and  C_12 
REMARK       I    between atoms: C_12  and  N_13 
REMARK    3  A    between atoms: N_13  and  C_14 
REMARK    4  A    between atoms: C_16  and  O_17 
REMARK    5  A    between atoms: C_23  and  C_24 
ROOT
HETATM    1  C   UNL     1      -2.259   5.840 -31.566  1.00  0.00     0.118 C 
HETATM    2  N   UNL     1      -2.168   4.406 -31.292  1.00  0.00    -0.366 N 
HETATM    3  C   UNL     1      -3.029   3.510 -31.813  1.00  0.00     0.123 A 
HETATM    4  N   UNL     1      -3.939   3.872 -32.764  1.00  0.00    -0.240 N 
HETATM    5  N   UNL     1      -4.830   2.912 -33.067  1.00  0.00    -0.165 NA
HETATM    6  C   UNL     1      -4.379   1.841 -32.368  1.00  0.00     0.148 A 
HETATM    7  C   UNL     1      -3.240   2.177 -31.584  1.00  0.00     0.089 A 
HETATM    8  C   UNL     1      -4.023   5.212 -33.308  1.00  0.00     0.221 C 
HETATM    9  C   UNL     1      -3.604   6.216 -32.225  1.00  0.00     0.066 C 
HETATM   10  H   UNL     1      -1.480   4.138 -30.589  1.00  0.00     0.161 HD
ENDROOT
BRANCH   6  11
HETATM   11  C   UNL     1      -5.053   0.531 -32.424  1.00  0.00     0.276 C 
HETATM   12  N   UNL     1      -4.604  -0.229 -33.486  1.00  0.00    -0.322 N 
HETATM   13  H   UNL     1      -3.904   0.246 -34.053  1.00  0.00     0.169 HD
HETATM   14  O   UNL     1      -5.920   0.221 -31.615  1.00  0.00    -0.266 OA
BRANCH  12  15
HETATM   15  C   UNL     1      -5.008  -1.517 -33.872  1.00  0.00     0.037 A 
HETATM   16  C   UNL     1      -4.180  -2.640 -33.812  1.00  0.00     0.066 A 
HETATM   17  C   UNL     1      -4.665  -3.880 -34.226  1.00  0.00     0.067 A 
HETATM   18  C   UNL     1      -5.966  -4.024 -34.693  1.00  0.00     0.036 A 
HETATM   19  C   UNL     1      -6.798  -2.909 -34.753  1.00  0.00     0.005 A 
HETATM   20  C   UNL     1      -6.319  -1.659 -34.349  1.00  0.00     0.029 A 
BRANCH  17  21
HETATM   21  O   UNL     1      -3.878  -4.994 -34.192  1.00  0.00    -0.361 OA
HETATM   22  H   UNL     1      -4.292  -5.644 -33.601  1.00  0.00     0.217 HD
ENDBRANCH  17  21
ENDBRANCH  12  15
ENDBRANCH   6  11
BRANCH   8  23
HETATM   23  C   UNL     1      -3.182   5.315 -34.560  1.00  0.00     0.409 C 
HETATM   24  F   UNL     1      -3.907   5.126 -35.684  1.00  0.00    -0.169 F 
HETATM   25  F   UNL     1      -2.650   6.562 -34.651  1.00  0.00    -0.169 F 
HETATM   26  F   UNL     1      -2.145   4.453 -34.587  1.00  0.00    -0.169 F 
ENDBRANCH   8  23
BRANCH   1  27
HETATM   27  C   UNL     1      -2.066   6.601 -30.265  1.00  0.00    -0.035 A 
HETATM   28  C   UNL     1      -3.155   6.864 -29.424  1.00  0.00     0.010 A 
HETATM   29  C   UNL     1      -2.974   7.560 -28.223  1.00  0.00     0.007 A 
HETATM   30  C   UNL     1      -1.705   8.013 -27.846  1.00  0.00    -0.062 A 
HETATM   31  C   UNL     1      -1.500   8.731 -26.545  1.00  0.00     0.048 C 
HETATM   32  C   UNL     1      -0.613   7.743 -28.677  1.00  0.00     0.007 A 
HETATM   33  C   UNL     1      -0.794   7.052 -29.875  1.00  0.00     0.010 A 
ENDBRANCH   1  27
TORSDOF 5
ENDMDL
MODEL 4
REMARK VINA RESULT:      -9.4      5.345      8.938
REMARK  5 active torsions:
REMARK  status: ('A' for Active; 'I' for Inactive)
REMARK    1  A    between atoms: C_5  and  C_6 
REMARK    2  A    between atoms: C_11  and  C_12 
REMARK       I    between atoms: C_12  and  N_13 
REMARK    3  A    between atoms: N_13  and  C_14 
REMARK    4  A    between atoms: C_16  and  O_17 
REMARK    5  A    between atoms: C_23  and  C_24 
ROOT
HETATM    1  C   UNL     1      -6.272   0.590 -33.069  1.00  0.00     0.118 C 
HETATM    2  N   UNL     1      -5.195   0.917 -32.135  1.00  0.00    -0.366 N 
HETATM    3  C   UNL     1      -4.560   2.106 -32.144  1.00  0.00     0.123 A 
HETATM    4  N   UNL     1      -5.001   3.138 -32.920  1.00  0.00    -0.240 N 
HETATM    5  N   UNL     1      -4.177   4.201 -32.944  1.00  0.00    -0.165 NA
HETATM    6  C   UNL     1      -3.230   3.876 -32.030  1.00  0.00     0.148 A 
HETATM    7  C   UNL     1      -3.450   2.575 -31.496  1.00  0.00     0.089 A 
HETATM    8  C   UNL     1      -6.187   3.054 -33.749  1.00  0.00     0.221 C 
HETATM    9  C   UNL     1      -6.355   1.606 -34.229  1.00  0.00     0.066 C 
HETATM   10  H   UNL     1      -4.875   0.147 -31.548  1.00  0.00     0.161 HD
ENDROOT
BRANCH   6  11
HETATM   11  C   UNL     1      -2.114   4.783 -31.706  1.00  0.00     0.276 C 
HETATM   12  N   UNL     1      -2.296   5.399 -30.483  1.00  0.00    -0.322 N 
HETATM   13  H   UNL     1      -3.168   5.138 -30.027  1.00  0.00     0.169 HD
HETATM   14  O   UNL     1      -1.178   4.952 -32.480  1.00  0.00    -0.266 OA
BRANCH  12  15
HETATM   15  C   UNL     1      -1.463   6.328 -29.839  1.00  0.00     0.037 A 
HETATM   16  C   UNL     1      -1.851   7.633 -29.530  1.00  0.00     0.066 A 
HETATM   17  C   UNL     1      -0.953   8.491 -28.897  1.00  0.00     0.067 A 
HETATM   18  C   UNL     1       0.327   8.069 -28.557  1.00  0.00     0.036 A 
HETATM   19  C   UNL     1       0.720   6.767 -28.859  1.00  0.00     0.005 A 
HETATM   20  C   UNL     1      -0.170   5.902 -29.503  1.00  0.00     0.029 A 
BRANCH  17  21
HETATM   21  O   UNL     1      -1.297   9.777 -28.594  1.00  0.00    -0.361 OA
HETATM   22  H   UNL     1      -1.311   9.870 -27.627  1.00  0.00     0.217 HD
ENDBRANCH  17  21
ENDBRANCH  12  15
ENDBRANCH   6  11
BRANCH   8  23
HETATM   23  C   UNL     1      -7.389   3.562 -32.985  1.00  0.00     0.409 C 
HETATM   24  F   UNL     1      -7.222   3.474 -31.648  1.00  0.00    -0.169 F 
HETATM   25  F   UNL     1      -7.582   4.879 -33.263  1.00  0.00    -0.169 F 
HETATM   26  F   UNL     1      -8.537   2.931 -33.302  1.00  0.00    -0.169 F 
ENDBRANCH   8  23
BRANCH   1  27
HETATM   27  C   UNL     1      -6.049  -0.816 -33.600  1.00  0.00    -0.035 A 
HETATM   28  C   UNL     1      -4.772  -1.393 -33.582  1.00  0.00     0.010 A 
HETATM   29  C   UNL     1      -4.571  -2.690 -34.066  1.00  0.00     0.007 A 
HETATM   30  C   UNL     1      -5.637  -3.431 -34.586  1.00  0.00    -0.062 A 
HETATM   31  C   UNL     1      -5.433  -4.833 -35.077  1.00  0.00     0.048 C 
HETATM   32  C   UNL     1      -6.915  -2.864 -34.597  1.00  0.00     0.007 A 
HETATM   33  C   UNL     1      -7.117  -1.570 -34.117  1.00  0.00     0.010 A 
ENDBRANCH   1  27
TORSDOF 5
ENDMDL
MODEL 5
REMARK VINA RESULT:      -9.4      5.170      7.485
REMARK  5 active torsions:
REMARK  status: ('A' for Active; 'I' for Inactive)
REMARK    1  A    between atoms: C_5  and  C_6 
REMARK    2  A    between atoms: C_11  and  C_12 
REMARK       I    between atoms: C_12  and  N_13 
REMARK    3  A    between atoms: N_13  and  C_14 
REMARK    4  A    between atoms: C_16  and  O_17 
REMARK    5  A    between atoms: C_23  and  C_24 
ROOT
HETATM    1  C   UNL     1      -1.210   5.546 -31.484  1.00  0.00     0.118 C 
HETATM    2  N   UNL     1      -2.124   4.499 -31.025  1.00  0.00    -0.366 N 
HETATM    3  C   UNL     1      -3.384   4.379 -31.487  1.00  0.00     0.123 A 
HETATM    4  N   UNL     1      -3.827   5.130 -32.538  1.00  0.00    -0.240 N 
HETATM    5  N   UNL     1      -5.145   5.015 -32.779  1.00  0.00    -0.165 NA
HETATM    6  C   UNL     1      -5.531   4.040 -31.920  1.00  0.00     0.148 A 
HETATM    7  C   UNL     1      -4.447   3.606 -31.107  1.00  0.00     0.089 A 
HETATM    8  C   UNL     1      -2.983   6.067 -33.252  1.00  0.00     0.221 C 
HETATM    9  C   UNL     1      -1.948   6.646 -32.278  1.00  0.00     0.066 C 
HETATM   10  H   UNL     1      -1.785   3.934 -30.247  1.00  0.00     0.161 HD
ENDROOT
BRANCH   6  11
HETATM   11  C   UNL     1      -6.924   3.562 -31.857  1.00  0.00     0.276 C 
HETATM   12  N   UNL     1      -7.180   2.606 -32.821  1.00  0.00    -0.322 N 
HETATM   13  H   UNL     1      -6.378   2.409 -33.416  1.00  0.00     0.169 HD
HETATM   14  O   UNL     1      -7.722   4.014 -31.044  1.00  0.00    -0.266 OA
BRANCH  12  15
HETATM   15  C   UNL     1      -8.381   1.926 -33.081  1.00  0.00     0.037 A 
HETATM   16  C   UNL     1      -9.285   2.303 -34.077  1.00  0.00     0.066 A 
HETATM   17  C   UNL     1     -10.458   1.572 -34.259  1.00  0.00     0.067 A 
HETATM   18  C   UNL     1     -10.745   0.465 -33.470  1.00  0.00     0.036 A 
HETATM   19  C   UNL     1      -9.847   0.082 -32.477  1.00  0.00     0.005 A 
HETATM   20  C   UNL     1      -8.672   0.813 -32.280  1.00  0.00     0.029 A 
BRANCH  17  21
HETATM   21  O   UNL     1     -11.369   1.923 -35.213  1.00  0.00    -0.361 OA
HETATM   22  H   UNL     1     -12.184   2.209 -34.768  1.00  0.00     0.217 HD
ENDBRANCH  17  21
ENDBRANCH  12  15
ENDBRANCH   6  11
BRANCH   8  23
HETATM   23  C   UNL     1      -2.350   5.386 -34.445  1.00  0.00     0.409 C 
HETATM   24  F   UNL     1      -3.160   5.386 -35.526  1.00  0.00    -0.169 F 
HETATM   25  F   UNL     1      -1.225   6.056 -34.807  1.00  0.00    -0.169 F 
HETATM   26  F   UNL     1      -1.979   4.112 -34.206  1.00  0.00    -0.169 F 
ENDBRANCH   8  23
BRANCH   1  27
HETATM   27  C   UNL     1      -0.498   6.138 -30.280  1.00  0.00    -0.035 A 
HETATM   28  C   UNL     1      -0.613   7.502 -29.982  1.00  0.00     0.010 A 
HETATM   29  C   UNL     1       0.039   8.044 -28.868  1.00  0.00     0.007 A 
HETATM   30  C   UNL     1       0.824   7.236 -28.038  1.00  0.00    -0.062 A 
HETATM   31  C   UNL     1       1.499   7.805 -26.826  1.00  0.00     0.048 C 
HETATM   32  C   UNL     1       0.933   5.872 -28.325  1.00  0.00     0.007 A 
HETATM   33  C   UNL     1       0.286   5.332 -29.437  1.00  0.00     0.010 A 
ENDBRANCH   1  27
TORSDOF 5
ENDMDL
MODEL 6
REMARK VINA RESULT:      -9.1      1.642      2.209
REMARK  5 active torsions:
REMARK  status: ('A' for Active; 'I' for Inactive)
REMARK    1  A    between atoms: C_5  and  C_6 
REMARK    2  A    between atoms: C_11  and  C_12 
REMARK       I    between atoms: C_12  and  N_13 
REMARK    3  A    between atoms: N_13  and  C_14 
REMARK    4  A    between atoms: C_16  and  O_17 
REMARK    5  A    between atoms: C_23  and  C_24 
ROOT
HETATM    1  C   UNL     1      -6.459   0.407 -33.097  1.00  0.00     0.118 C 
HETATM    2  N   UNL     1      -7.425   1.009 -34.016  1.00  0.00    -0.366 N 
HETATM    3  C   UNL     1      -8.515   1.679 -33.590  1.00  0.00     0.123 A 
HETATM    4  N   UNL     1      -8.691   1.978 -32.270  1.00  0.00    -0.240 N 
HETATM    5  N   UNL     1      -9.894   2.504 -31.981  1.00  0.00    -0.165 NA
HETATM    6  C   UNL     1     -10.459   2.669 -33.202  1.00  0.00     0.148 A 
HETATM    7  C   UNL     1      -9.613   2.178 -34.235  1.00  0.00     0.089 A 
HETATM    8  C   UNL     1      -7.721   1.642 -31.247  1.00  0.00     0.221 C 
HETATM    9  C   UNL     1      -7.000   0.349 -31.651  1.00  0.00     0.066 C 
HETATM   10  H   UNL     1      -7.284   0.793 -35.002  1.00  0.00     0.161 HD
ENDROOT
BRANCH   6  11
HETATM   11  C   UNL     1     -11.803   3.254 -33.368  1.00  0.00     0.276 C 
HETATM   12  N   UNL     1     -12.689   2.772 -32.424  1.00  0.00    -0.322 N 
HETATM   13  H   UNL     1     -12.273   2.089 -31.793  1.00  0.00     0.169 HD
HETATM   14  O   UNL     1     -12.051   4.046 -34.270  1.00  0.00    -0.266 OA
BRANCH  12  15
HETATM   15  C   UNL     1     -14.049   3.081 -32.264  1.00  0.00     0.037 A 
HETATM   16  C   UNL     1     -14.518   4.342 -31.888  1.00  0.00     0.066 A 
HETATM   17  C   UNL     1     -15.889   4.555 -31.744  1.00  0.00     0.067 A 
HETATM   18  C   UNL     1     -16.803   3.535 -31.976  1.00  0.00     0.036 A 
HETATM   19  C   UNL     1     -16.343   2.276 -32.353  1.00  0.00     0.005 A 
HETATM   20  C   UNL     1     -14.970   2.049 -32.491  1.00  0.00     0.029 A 
BRANCH  17  21
HETATM   21  O   UNL     1     -16.379   5.771 -31.365  1.00  0.00    -0.361 OA
HETATM   22  H   UNL     1     -16.745   6.212 -32.150  1.00  0.00     0.217 HD
ENDBRANCH  17  21
ENDBRANCH  12  15
ENDBRANCH   6  11
BRANCH   8  23
HETATM   23  C   UNL     1      -6.774   2.800 -31.032  1.00  0.00     0.409 C 
HETATM   24  F   UNL     1      -7.179   3.618 -30.037  1.00  0.00    -0.169 F 
HETATM   25  F   UNL     1      -5.552   2.329 -30.670  1.00  0.00    -0.169 F 
HETATM   26  F   UNL     1      -6.583   3.554 -32.135  1.00  0.00    -0.169 F 
ENDBRANCH   8  23
BRANCH   1  27
HETATM   27  C   UNL     1      -6.110  -0.985 -33.597  1.00  0.00    -0.035 A 
HETATM   28  C   UNL     1      -4.803  -1.477 -33.483  1.00  0.00     0.010 A 
HETATM   29  C   UNL     1      -4.486  -2.762 -33.939  1.00  0.00     0.007 A 
HETATM   30  C   UNL     1      -5.463  -3.574 -34.524  1.00  0.00    -0.062 A 
HETATM   31  C   UNL     1      -5.136  -4.963 -34.984  1.00  0.00     0.048 C 
HETATM   32  C   UNL     1      -6.771  -3.091 -34.629  1.00  0.00     0.007 A 
HETATM   33  C   UNL     1      -7.089  -1.810 -34.178  1.00  0.00     0.010 A 
ENDBRANCH   1  27
TORSDOF 5
ENDMDL
MODEL 7
REMARK VINA RESULT:      -9.0      1.746      2.404
REMARK  5 active torsions:
REMARK  status: ('A' for Active; 'I' for Inactive)
REMARK    1  A    between atoms: C_5  and  C_6 
REMARK    2  A    between atoms: C_11  and  C_12 
REMARK       I    between atoms: C_12  and  N_13 
REMARK    3  A    between atoms: N_13  and  C_14 
REMARK    4  A    between atoms: C_16  and  O_17 
REMARK    5  A    between atoms: C_23  and  C_24 
ROOT
HETATM    1  C   UNL     1      -6.936   0.372 -33.489  1.00  0.00     0.118 C 
HETATM    2  N   UNL     1      -8.035   0.681 -34.404  1.00  0.00    -0.366 N 
HETATM    3  C   UNL     1      -9.188   1.243 -33.992  1.00  0.00     0.123 A 
HETATM    4  N   UNL     1      -9.332   1.712 -32.718  1.00  0.00    -0.240 N 
HETATM    5  N   UNL     1     -10.583   2.097 -32.411  1.00  0.00    -0.165 NA
HETATM    6  C   UNL     1     -11.237   1.990 -33.594  1.00  0.00     0.148 A 
HETATM    7  C   UNL     1     -10.386   1.474 -34.611  1.00  0.00     0.089 A 
HETATM    8  C   UNL     1      -8.264   1.680 -31.739  1.00  0.00     0.221 C 
HETATM    9  C   UNL     1      -7.376   0.458 -32.011  1.00  0.00     0.066 C 
HETATM   10  H   UNL     1      -7.920   0.339 -35.358  1.00  0.00     0.161 HD
ENDROOT
BRANCH   6  11
HETATM   11  C   UNL     1     -12.662   2.342 -33.733  1.00  0.00     0.276 C 
HETATM   12  N   UNL     1     -13.187   2.823 -32.549  1.00  0.00    -0.322 N 
HETATM   13  H   UNL     1     -12.513   2.835 -31.786  1.00  0.00     0.169 HD
HETATM   14  O   UNL     1     -13.263   2.179 -34.789  1.00  0.00    -0.266 OA
BRANCH  12  15
HETATM   15  C   UNL     1     -14.498   3.249 -32.283  1.00  0.00     0.037 A 
HETATM   16  C   UNL     1     -15.609   2.402 -32.312  1.00  0.00     0.066 A 
HETATM   17  C   UNL     1     -16.877   2.916 -32.042  1.00  0.00     0.067 A 
HETATM   18  C   UNL     1     -17.058   4.259 -31.737  1.00  0.00     0.036 A 
HETATM   19  C   UNL     1     -15.955   5.108 -31.704  1.00  0.00     0.005 A 
HETATM   20  C   UNL     1     -14.681   4.605 -31.981  1.00  0.00     0.029 A 
BRANCH  17  21
HETATM   21  O   UNL     1     -17.984   2.118 -32.076  1.00  0.00    -0.361 OA
HETATM   22  H   UNL     1     -18.713   2.624 -32.472  1.00  0.00     0.217 HD
ENDBRANCH  17  21
ENDBRANCH  12  15
ENDBRANCH   6  11
BRANCH   8  23
HETATM   23  C   UNL     1      -7.497   2.983 -31.768  1.00  0.00     0.409 C 
HETATM   24  F   UNL     1      -6.170   2.801 -31.593  1.00  0.00    -0.169 F 
HETATM   25  F   UNL     1      -7.647   3.573 -32.983  1.00  0.00    -0.169 F 
HETATM   26  F   UNL     1      -7.916   3.879 -30.852  1.00  0.00    -0.169 F 
ENDBRANCH   8  23
BRANCH   1  27
HETATM   27  C   UNL     1      -6.405  -1.014 -33.812  1.00  0.00    -0.035 A 
HETATM   28  C   UNL     1      -7.246  -1.992 -34.361  1.00  0.00     0.010 A 
HETATM   29  C   UNL     1      -6.752  -3.266 -34.663  1.00  0.00     0.007 A 
HETATM   30  C   UNL     1      -5.415  -3.591 -34.413  1.00  0.00    -0.062 A 
HETATM   31  C   UNL     1      -4.873  -4.944 -34.764  1.00  0.00     0.048 C 
HETATM   32  C   UNL     1      -4.569  -2.616 -33.875  1.00  0.00     0.007 A 
HETATM   33  C   UNL     1      -5.060  -1.346 -33.571  1.00  0.00     0.010 A 
ENDBRANCH   1  27
TORSDOF 5
ENDMDL
MODEL 8
REMARK VINA RESULT:      -8.7      4.292      8.039
REMARK  5 active torsions:
REMARK  status: ('A' for Active; 'I' for Inactive)
REMARK    1  A    between atoms: C_5  and  C_6 
REMARK    2  A    between atoms: C_11  and  C_12 
REMARK       I    between atoms: C_12  and  N_13 
REMARK    3  A    between atoms: N_13  and  C_14 
REMARK    4  A    between atoms: C_16  and  O_17 
REMARK    5  A    between atoms: C_23  and  C_24 
ROOT
HETATM    1  C   UNL     1      -7.296  -0.458 -33.663  1.00  0.00     0.118 C 
HETATM    2  N   UNL     1      -6.673   0.113 -32.469  1.00  0.00    -0.366 N 
HETATM    3  C   UNL     1      -6.352   1.418 -32.368  1.00  0.00     0.123 A 
HETATM    4  N   UNL     1      -6.745   2.318 -33.316  1.00  0.00    -0.240 N 
HETATM    5  N   UNL     1      -6.216   3.545 -33.162  1.00  0.00    -0.165 NA
HETATM    6  C   UNL     1      -5.559   3.451 -31.980  1.00  0.00     0.148 A 
HETATM    7  C   UNL     1      -5.639   2.134 -31.446  1.00  0.00     0.089 A 
HETATM    8  C   UNL     1      -7.556   1.958 -34.462  1.00  0.00     0.221 C 
HETATM    9  C   UNL     1      -7.234   0.512 -34.864  1.00  0.00     0.066 C 
HETATM   10  H   UNL     1      -6.391  -0.562 -31.758  1.00  0.00     0.161 HD
ENDROOT
BRANCH   6  11
HETATM   11  C   UNL     1      -4.837   4.595 -31.394  1.00  0.00     0.276 C 
HETATM   12  N   UNL     1      -3.628   4.814 -32.026  1.00  0.00    -0.322 N 
HETATM   13  H   UNL     1      -3.435   4.144 -32.768  1.00  0.00     0.169 HD
HETATM   14  O   UNL     1      -5.292   5.223 -30.444  1.00  0.00    -0.266 OA
BRANCH  12  15
HETATM   15  C   UNL     1      -2.662   5.795 -31.751  1.00  0.00     0.037 A 
HETATM   16  C   UNL     1      -2.816   7.145 -32.072  1.00  0.00     0.066 A 
HETATM   17  C   UNL     1      -1.799   8.049 -31.768  1.00  0.00     0.067 A 
HETATM   18  C   UNL     1      -0.631   7.632 -31.142  1.00  0.00     0.036 A 
HETATM   19  C   UNL     1      -0.472   6.288 -30.816  1.00  0.00     0.005 A 
HETATM   20  C   UNL     1      -1.482   5.372 -31.124  1.00  0.00     0.029 A 
BRANCH  17  21
HETATM   21  O   UNL     1      -1.912   9.373 -32.082  1.00  0.00    -0.361 OA
HETATM   22  H   UNL     1      -1.421   9.887 -31.419  1.00  0.00     0.217 HD
ENDBRANCH  17  21
ENDBRANCH  12  15
ENDBRANCH   6  11
BRANCH   8  23
HETATM   23  C   UNL     1      -9.019   2.167 -34.145  1.00  0.00     0.409 C 
HETATM   24  F   UNL     1      -9.794   1.162 -34.607  1.00  0.00    -0.169 F 
HETATM   25  F   UNL     1      -9.194   2.200 -32.797  1.00  0.00    -0.169 F 
HETATM   26  F   UNL     1      -9.516   3.326 -34.624  1.00  0.00    -0.169 F 
ENDBRANCH   8  23
BRANCH   1  27
HETATM   27  C   UNL     1      -6.607  -1.770 -33.996  1.00  0.00    -0.035 A 
HETATM   28  C   UNL     1      -7.351  -2.880 -34.420  1.00  0.00     0.010 A 
HETATM   29  C   UNL     1      -6.712  -4.086 -34.731  1.00  0.00     0.007 A 
HETATM   30  C   UNL     1      -5.324  -4.208 -34.618  1.00  0.00    -0.062 A 
HETATM   31  C   UNL     1      -4.631  -5.488 -34.981  1.00  0.00     0.048 C 
HETATM   32  C   UNL     1      -4.576  -3.101 -34.206  1.00  0.00     0.007 A 
HETATM   33  C   UNL     1      -5.211  -1.899 -33.892  1.00  0.00     0.010 A 
ENDBRANCH   1  27
TORSDOF 5
ENDMDL
MODEL 9
REMARK VINA RESULT:      -8.3      2.300      2.612
REMARK  5 active torsions:
REMARK  status: ('A' for Active; 'I' for Inactive)
REMARK    1  A    between atoms: C_5  and  C_6 
REMARK    2  A    between atoms: C_11  and  C_12 
REMARK       I    between atoms: C_12  and  N_13 
REMARK    3  A    between atoms: N_13  and  C_14 
REMARK    4  A    between atoms: C_16  and  O_17 
REMARK    5  A    between atoms: C_23  and  C_24 
ROOT
HETATM    1  C   UNL     1      -5.749   0.417 -32.906  1.00  0.00     0.118 C 
HETATM    2  N   UNL     1      -6.843   1.227 -33.441  1.00  0.00    -0.366 N 
HETATM    3  C   UNL     1      -7.637   1.985 -32.659  1.00  0.00     0.123 A 
HETATM    4  N   UNL     1      -7.357   2.172 -31.336  1.00  0.00    -0.240 N 
HETATM    5  N   UNL     1      -8.321   2.817 -30.656  1.00  0.00    -0.165 NA
HETATM    6  C   UNL     1      -9.197   3.174 -31.627  1.00  0.00     0.148 A 
HETATM    7  C   UNL     1      -8.789   2.683 -32.899  1.00  0.00     0.089 A 
HETATM    8  C   UNL     1      -6.187   1.614 -30.689  1.00  0.00     0.221 C 
HETATM    9  C   UNL     1      -5.828   0.286 -31.369  1.00  0.00     0.066 C 
HETATM   10  H   UNL     1      -7.043   1.093 -34.432  1.00  0.00     0.161 HD
ENDROOT
BRANCH   6  11
HETATM   11  C   UNL     1     -10.422   3.939 -31.330  1.00  0.00     0.276 C 
HETATM   12  N   UNL     1     -11.407   3.712 -32.272  1.00  0.00    -0.322 N 
HETATM   13  H   UNL     1     -11.116   3.075 -33.012  1.00  0.00     0.169 HD
HETATM   14  O   UNL     1     -10.490   4.693 -30.366  1.00  0.00    -0.266 OA
BRANCH  12  15
HETATM   15  C   UNL     1     -12.697   4.260 -32.338  1.00  0.00     0.037 A 
HETATM   16  C   UNL     1     -13.010   5.426 -33.041  1.00  0.00     0.066 A 
HETATM   17  C   UNL     1     -14.320   5.903 -33.043  1.00  0.00     0.067 A 
HETATM   18  C   UNL     1     -15.329   5.233 -32.362  1.00  0.00     0.036 A 
HETATM   19  C   UNL     1     -15.026   4.069 -31.662  1.00  0.00     0.005 A 
HETATM   20  C   UNL     1     -13.714   3.587 -31.645  1.00  0.00     0.029 A 
BRANCH  17  21
HETATM   21  O   UNL     1     -14.655   7.046 -33.709  1.00  0.00    -0.361 OA
HETATM   22  H   UNL     1     -13.915   7.671 -33.634  1.00  0.00     0.217 HD
ENDBRANCH  17  21
ENDBRANCH  12  15
ENDBRANCH   6  11
BRANCH   8  23
HETATM   23  C   UNL     1      -5.053   2.614 -30.720  1.00  0.00     0.409 C 
HETATM   24  F   UNL     1      -5.138   3.453 -31.776  1.00  0.00    -0.169 F 
HETATM   25  F   UNL     1      -5.100   3.391 -29.606  1.00  0.00    -0.169 F 
HETATM   26  F   UNL     1      -3.831   2.046 -30.741  1.00  0.00    -0.169 F 
ENDBRANCH   8  23
BRANCH   1  27
HETATM   27  C   UNL     1      -5.784  -0.952 -33.565  1.00  0.00    -0.035 A 
HETATM   28  C   UNL     1      -4.600  -1.664 -33.796  1.00  0.00     0.010 A 
HETATM   29  C   UNL     1      -4.636  -2.927 -34.398  1.00  0.00     0.007 A 
HETATM   30  C   UNL     1      -5.853  -3.497 -34.787  1.00  0.00    -0.062 A 
HETATM   31  C   UNL     1      -5.900  -4.864 -35.403  1.00  0.00     0.048 C 
HETATM   32  C   UNL     1      -7.038  -2.796 -34.548  1.00  0.00     0.007 A 
HETATM   33  C   UNL     1      -7.003  -1.535 -33.951  1.00  0.00     0.010 A 
ENDBRANCH   1  27
TORSDOF 5
ENDMDL
MODEL 10
REMARK VINA RESULT:      -8.3      2.992      3.620
REMARK  5 active torsions:
REMARK  status: ('A' for Active; 'I' for Inactive)
REMARK    1  A    between atoms: C_5  and  C_6 
REMARK    2  A    between atoms: C_11  and  C_12 
REMARK       I    between atoms: C_12  and  N_13 
REMARK    3  A    between atoms: N_13  and  C_14 
REMARK    4  A    between atoms: C_16  and  O_17 
REMARK    5  A    between atoms: C_23  and  C_24 
ROOT
HETATM    1  C   UNL     1      -5.643   0.482 -32.967  1.00  0.00     0.118 C 
HETATM    2  N   UNL     1      -6.288   1.439 -33.866  1.00  0.00    -0.366 N 
HETATM    3  C   UNL     1      -7.134   2.393 -33.429  1.00  0.00     0.123 A 
HETATM    4  N   UNL     1      -7.309   2.626 -32.095  1.00  0.00    -0.240 N 
HETATM    5  N   UNL     1      -8.298   3.493 -31.813  1.00  0.00    -0.165 NA
HETATM    6  C   UNL     1      -8.681   3.931 -33.037  1.00  0.00     0.148 A 
HETATM    7  C   UNL     1      -7.959   3.274 -34.073  1.00  0.00     0.089 A 
HETATM    8  C   UNL     1      -6.583   1.911 -31.065  1.00  0.00     0.221 C 
HETATM    9  C   UNL     1      -6.286   0.489 -31.562  1.00  0.00     0.066 C 
HETATM   10  H   UNL     1      -6.147   1.268 -34.861  1.00  0.00     0.161 HD
ENDROOT
BRANCH   6  11
HETATM   11  C   UNL     1      -9.748   4.935 -33.209  1.00  0.00     0.276 C 
HETATM   12  N   UNL     1     -10.087   5.097 -34.538  1.00  0.00    -0.322 N 
HETATM   13  H   UNL     1      -9.537   4.517 -35.167  1.00  0.00     0.169 HD
HETATM   14  O   UNL     1     -10.219   5.540 -32.252  1.00  0.00    -0.266 OA
BRANCH  12  15
HETATM   15  C   UNL     1     -11.043   5.960 -35.097  1.00  0.00     0.037 A 
HETATM   16  C   UNL     1     -12.420   5.726 -35.050  1.00  0.00     0.066 A 
HETATM   17  C   UNL     1     -13.296   6.634 -35.642  1.00  0.00     0.067 A 
HETATM   18  C   UNL     1     -12.827   7.779 -36.273  1.00  0.00     0.036 A 
HETATM   19  C   UNL     1     -11.456   8.021 -36.320  1.00  0.00     0.005 A 
HETATM   20  C   UNL     1     -10.568   7.111 -35.739  1.00  0.00     0.029 A 
BRANCH  17  21
HETATM   21  O   UNL     1     -14.645   6.427 -35.626  1.00  0.00    -0.361 OA
HETATM   22  H   UNL     1     -14.987   6.702 -34.758  1.00  0.00     0.217 HD
ENDBRANCH  17  21
ENDBRANCH  12  15
ENDBRANCH   6  11
BRANCH   8  23
HETATM   23  C   UNL     1      -5.333   2.674 -30.688  1.00  0.00     0.409 C 
HETATM   24  F   UNL     1      -5.479   3.361 -29.534  1.00  0.00    -0.169 F 
HETATM   25  F   UNL     1      -4.309   1.803 -30.492  1.00  0.00    -0.169 F 
HETATM   26  F   UNL     1      -4.923   3.541 -31.637  1.00  0.00    -0.169 F 
ENDBRANCH   8  23
BRANCH   1  27
HETATM   27  C   UNL     1      -5.722  -0.902 -33.587  1.00  0.00    -0.035 A 
HETATM   28  C   UNL     1      -4.566  -1.676 -33.756  1.00  0.00     0.010 A 
HETATM   29  C   UNL     1      -4.642  -2.954 -34.322  1.00  0.00     0.007 A 
HETATM   30  C   UNL     1      -5.871  -3.478 -34.737  1.00  0.00    -0.062 A 
HETATM   31  C   UNL     1      -5.963  -4.859 -35.314  1.00  0.00     0.048 C 
HETATM   32  C   UNL     1      -7.029  -2.715 -34.560  1.00  0.00     0.007 A 
HETATM   33  C   UNL     1      -6.954  -1.440 -33.999  1.00  0.00     0.010 A 
ENDBRANCH   1  27
TORSDOF 5
ENDMDL
