MODEL 1
REMARK VINA RESULT:      -8.8      0.000      0.000
REMARK  10 active torsions:
REMARK  status: ('A' for Active; 'I' for Inactive)
REMARK    1  A    between atoms: C_2  and  O_3 
REMARK    2  A    between atoms: O_3  and  C_4 
REMARK    3  A    between atoms: C_4  and  C_5 
REMARK    4  A    between atoms: C_6  and  C_7 
REMARK    5  A    between atoms: C_14  and  C_15 
REMARK    6  A    between atoms: C_15  and  C_16 
REMARK       I    between atoms: C_16  and  N_17 
REMARK    7  A    between atoms: N_17  and  C_18 
REMARK    8  A    between atoms: C_18  and  C_19 
REMARK    9  A    between atoms: C_19  and  N_20 
REMARK   10  A    between atoms: C_31  and  C_32 
ROOT
HETATM    1  C   UNL     1      -4.071   4.427 -32.494  1.00  0.00     0.074 C 
HETATM    2  C   UNL     1      -5.144   3.411 -32.816  1.00  0.00     0.166 C 
HETATM    3  N   UNL     1      -4.686   2.012 -32.637  1.00  0.00    -0.318 N 
HETATM    4  C   UNL     1      -5.174   0.860 -32.970  1.00  0.00     0.011 C 
HETATM    5  C   UNL     1      -3.473   1.872 -31.696  1.00  0.00     0.170 C 
HETATM    6  S   UNL     1      -3.169   0.225 -31.263  1.00  0.00    -0.086 SA
HETATM    7  C   UNL     1      -4.418  -0.342 -32.442  1.00  0.00     0.135 C 
HETATM    8  N   UNL     1      -2.762   2.840 -31.254  1.00  0.00    -0.223 NA
HETATM    9  C   UNL     1      -3.018   4.117 -31.704  1.00  0.00     0.084 C 
ENDROOT
BRANCH   4  10
HETATM   10  C   UNL     1      -6.472   0.756 -33.734  1.00  0.00     0.156 C 
BRANCH  10  11
HETATM   11  C   UNL     1      -7.732   0.551 -32.908  1.00  0.00     0.223 C 
HETATM   12  N   UNL     1      -8.900   0.728 -33.603  1.00  0.00    -0.359 N 
HETATM   13  H   UNL     1      -8.835   1.053 -34.565  1.00  0.00     0.162 HD
HETATM   14  O   UNL     1      -7.706   0.263 -31.717  1.00  0.00    -0.273 OA
BRANCH  12  15
HETATM   15  C   UNL     1     -10.278   0.605 -33.106  1.00  0.00     0.150 C 
BRANCH  15  16
HETATM   16  C   UNL     1     -11.419   1.409 -33.770  1.00  0.00     0.254 C 
BRANCH  16  17
HETATM   17  N   UNL     1     -12.774   1.102 -33.188  1.00  0.00    -0.070 N 
HETATM   18  H   UNL     1     -12.571   0.698 -32.253  1.00  0.00     0.279 HD
HETATM   19  C   UNL     1     -13.548   0.029 -33.939  1.00  0.00     0.235 C 
HETATM   20  C   UNL     1     -14.897   0.659 -34.238  1.00  0.00     0.029 C 
HETATM   21  C   UNL     1     -15.082   1.666 -33.123  1.00  0.00     0.029 C 
HETATM   22  C   UNL     1     -13.703   2.277 -32.999  1.00  0.00     0.235 C 
ENDBRANCH  16  17
ENDBRANCH  15  16
ENDBRANCH  12  15
ENDBRANCH  10  11
ENDBRANCH   4  10
BRANCH   2  23
HETATM   23  C   UNL     1      -6.417   3.615 -31.992  1.00  0.00    -0.030 A 
HETATM   24  C   UNL     1      -6.406   3.345 -30.611  1.00  0.00     0.009 A 
HETATM   25  C   UNL     1      -7.550   3.541 -29.838  1.00  0.00     0.001 A 
HETATM   26  C   UNL     1      -8.722   4.005 -30.429  1.00  0.00     0.000 A 
HETATM   27  C   UNL     1      -8.759   4.258 -31.797  1.00  0.00     0.001 A 
HETATM   28  C   UNL     1      -7.619   4.060 -32.578  1.00  0.00     0.009 A 
ENDBRANCH   2  23
BRANCH   1  29
HETATM   29  C   UNL     1      -4.334   5.731 -33.173  1.00  0.00     0.294 C 
HETATM   30  O   UNL     1      -5.072   6.565 -32.670  1.00  0.00    -0.259 OA
BRANCH  29  31
HETATM   31  O   UNL     1      -3.803   5.798 -34.407  1.00  0.00    -0.318 OA
BRANCH  31  32
HETATM   32  C   UNL     1      -2.468   6.322 -34.515  1.00  0.00     0.174 C 
HETATM   33  C   UNL     1      -1.516   5.236 -34.978  1.00  0.00     0.034 C 
ENDBRANCH  31  32
ENDBRANCH  29  31
ENDBRANCH   1  29
BRANCH   9  34
HETATM   34  C   UNL     1      -2.032   5.108 -31.213  1.00  0.00    -0.006 A 
HETATM   35  C   UNL     1      -2.430   6.153 -30.364  1.00  0.00     0.014 A 
HETATM   36  C   UNL     1      -1.485   7.050 -29.859  1.00  0.00     0.001 A 
HETATM   37  C   UNL     1      -0.138   6.900 -30.182  1.00  0.00     0.000 A 
HETATM   38  C   UNL     1       0.269   5.856 -31.009  1.00  0.00     0.001 A 
HETATM   39  C   UNL     1      -0.672   4.960 -31.521  1.00  0.00     0.014 A 
ENDBRANCH   9  34
TORSDOF 10
ENDMDL
MODEL 2
REMARK VINA RESULT:      -8.3      0.725      1.536
REMARK  10 active torsions:
REMARK  status: ('A' for Active; 'I' for Inactive)
REMARK    1  A    between atoms: C_2  and  O_3 
REMARK    2  A    between atoms: O_3  and  C_4 
REMARK    3  A    between atoms: C_4  and  C_5 
REMARK    4  A    between atoms: C_6  and  C_7 
REMARK    5  A    between atoms: C_14  and  C_15 
REMARK    6  A    between atoms: C_15  and  C_16 
REMARK       I    between atoms: C_16  and  N_17 
REMARK    7  A    between atoms: N_17  and  C_18 
REMARK    8  A    between atoms: C_18  and  C_19 
REMARK    9  A    between atoms: C_19  and  N_20 
REMARK   10  A    between atoms: C_31  and  C_32 
ROOT
HETATM    1  C   UNL     1      -4.088   4.306 -32.698  1.00  0.00     0.074 C 
HETATM    2  C   UNL     1      -5.147   3.262 -32.975  1.00  0.00     0.166 C 
HETATM    3  N   UNL     1      -4.682   1.882 -32.698  1.00  0.00    -0.318 N 
HETATM    4  C   UNL     1      -5.156   0.706 -32.966  1.00  0.00     0.011 C 
HETATM    5  C   UNL     1      -3.488   1.812 -31.727  1.00  0.00     0.170 C 
HETATM    6  S   UNL     1      -3.181   0.199 -31.184  1.00  0.00    -0.086 SA
HETATM    7  C   UNL     1      -4.402  -0.453 -32.348  1.00  0.00     0.135 C 
HETATM    8  N   UNL     1      -2.792   2.812 -31.334  1.00  0.00    -0.223 NA
HETATM    9  C   UNL     1      -3.048   4.055 -31.870  1.00  0.00     0.084 C 
ENDROOT
BRANCH   4  10
HETATM   10  C   UNL     1      -6.437   0.544 -33.748  1.00  0.00     0.156 C 
BRANCH  10  11
HETATM   11  C   UNL     1      -7.717   0.422 -32.935  1.00  0.00     0.223 C 
HETATM   12  N   UNL     1      -8.868   0.572 -33.665  1.00  0.00    -0.359 N 
HETATM   13  H   UNL     1      -8.777   0.829 -34.645  1.00  0.00     0.162 HD
HETATM   14  O   UNL     1      -7.720   0.217 -31.726  1.00  0.00    -0.273 OA
BRANCH  12  15
HETATM   15  C   UNL     1     -10.258   0.512 -33.188  1.00  0.00     0.150 C 
BRANCH  15  16
HETATM   16  C   UNL     1     -11.154   1.770 -33.246  1.00  0.00     0.254 C 
BRANCH  16  17
HETATM   17  N   UNL     1     -12.483   1.517 -33.908  1.00  0.00    -0.070 N 
HETATM   18  H   UNL     1     -12.307   1.683 -34.918  1.00  0.00     0.279 HD
HETATM   19  C   UNL     1     -13.575   2.501 -33.516  1.00  0.00     0.235 C 
HETATM   20  C   UNL     1     -14.735   1.636 -33.061  1.00  0.00     0.029 C 
HETATM   21  C   UNL     1     -14.550   0.346 -33.832  1.00  0.00     0.029 C 
HETATM   22  C   UNL     1     -13.055   0.128 -33.754  1.00  0.00     0.235 C 
ENDBRANCH  16  17
ENDBRANCH  15  16
ENDBRANCH  12  15
ENDBRANCH  10  11
ENDBRANCH   4  10
BRANCH   2  23
HETATM   23  C   UNL     1      -6.437   3.509 -32.190  1.00  0.00    -0.030 A 
HETATM   24  C   UNL     1      -6.463   3.287 -30.801  1.00  0.00     0.009 A 
HETATM   25  C   UNL     1      -7.624   3.522 -30.064  1.00  0.00     0.001 A 
HETATM   26  C   UNL     1      -8.776   3.976 -30.700  1.00  0.00     0.000 A 
HETATM   27  C   UNL     1      -8.776   4.180 -32.076  1.00  0.00     0.001 A 
HETATM   28  C   UNL     1      -7.620   3.943 -32.822  1.00  0.00     0.009 A 
ENDBRANCH   2  23
BRANCH   1  29
HETATM   29  C   UNL     1      -4.346   5.562 -33.464  1.00  0.00     0.294 C 
HETATM   30  O   UNL     1      -4.268   5.583 -34.684  1.00  0.00    -0.259 OA
BRANCH  29  31
HETATM   31  O   UNL     1      -4.514   6.636 -32.672  1.00  0.00    -0.318 OA
BRANCH  31  32
HETATM   32  C   UNL     1      -5.861   6.947 -32.273  1.00  0.00     0.174 C 
HETATM   33  C   UNL     1      -5.965   6.974 -30.759  1.00  0.00     0.034 C 
ENDBRANCH  31  32
ENDBRANCH  29  31
ENDBRANCH   1  29
BRANCH   9  34
HETATM   34  C   UNL     1      -2.080   5.084 -31.424  1.00  0.00    -0.006 A 
HETATM   35  C   UNL     1      -2.379   5.929 -30.344  1.00  0.00     0.014 A 
HETATM   36  C   UNL     1      -1.438   6.858 -29.893  1.00  0.00     0.001 A 
HETATM   37  C   UNL     1      -0.188   6.937 -30.503  1.00  0.00     0.000 A 
HETATM   38  C   UNL     1       0.126   6.091 -31.564  1.00  0.00     0.001 A 
HETATM   39  C   UNL     1      -0.814   5.165 -32.022  1.00  0.00     0.014 A 
ENDBRANCH   9  34
TORSDOF 10
ENDMDL
MODEL 3
REMARK VINA RESULT:      -8.2      2.879      4.621
REMARK  10 active torsions:
REMARK  status: ('A' for Active; 'I' for Inactive)
REMARK    1  A    between atoms: C_2  and  O_3 
REMARK    2  A    between atoms: O_3  and  C_4 
REMARK    3  A    between atoms: C_4  and  C_5 
REMARK    4  A    between atoms: C_6  and  C_7 
REMARK    5  A    between atoms: C_14  and  C_15 
REMARK    6  A    between atoms: C_15  and  C_16 
REMARK       I    between atoms: C_16  and  N_17 
REMARK    7  A    between atoms: N_17  and  C_18 
REMARK    8  A    between atoms: C_18  and  C_19 
REMARK    9  A    between atoms: C_19  and  N_20 
REMARK   10  A    between atoms: C_31  and  C_32 
ROOT
HETATM    1  C   UNL     1      -3.491   6.481 -30.408  1.00  0.00     0.074 C 
HETATM    2  C   UNL     1      -4.537   5.903 -31.335  1.00  0.00     0.166 C 
HETATM    3  N   UNL     1      -4.044   5.731 -32.723  1.00  0.00    -0.318 N 
HETATM    4  C   UNL     1      -4.622   5.470 -33.853  1.00  0.00     0.011 C 
HETATM    5  C   UNL     1      -2.509   5.656 -32.832  1.00  0.00     0.170 C 
HETATM    6  S   UNL     1      -1.990   5.142 -34.400  1.00  0.00    -0.086 SA
HETATM    7  C   UNL     1      -3.686   5.235 -35.020  1.00  0.00     0.135 C 
HETATM    8  N   UNL     1      -1.685   5.920 -31.889  1.00  0.00    -0.223 NA
HETATM    9  C   UNL     1      -2.171   6.398 -30.692  1.00  0.00     0.084 C 
ENDROOT
BRANCH   4  10
HETATM   10  C   UNL     1      -6.120   5.305 -33.941  1.00  0.00     0.156 C 
BRANCH  10  11
HETATM   11  C   UNL     1      -6.656   3.888 -33.805  1.00  0.00     0.223 C 
HETATM   12  N   UNL     1      -7.931   3.811 -33.306  1.00  0.00    -0.359 N 
HETATM   13  H   UNL     1      -8.372   4.673 -32.998  1.00  0.00     0.162 HD
HETATM   14  O   UNL     1      -6.000   2.897 -34.106  1.00  0.00    -0.273 OA
BRANCH  12  15
HETATM   15  C   UNL     1      -8.733   2.604 -33.055  1.00  0.00     0.150 C 
BRANCH  15  16
HETATM   16  C   UNL     1      -9.193   1.717 -34.234  1.00  0.00     0.254 C 
BRANCH  16  17
HETATM   17  N   UNL     1      -8.596   0.335 -34.201  1.00  0.00    -0.070 N 
HETATM   18  H   UNL     1      -9.412  -0.304 -34.275  1.00  0.00     0.279 HD
HETATM   19  C   UNL     1      -7.916  -0.021 -32.887  1.00  0.00     0.235 C 
HETATM   20  C   UNL     1      -6.526  -0.486 -33.281  1.00  0.00     0.029 C 
HETATM   21  C   UNL     1      -6.707  -1.025 -34.684  1.00  0.00     0.029 C 
HETATM   22  C   UNL     1      -7.631  -0.004 -35.312  1.00  0.00     0.235 C 
ENDBRANCH  16  17
ENDBRANCH  15  16
ENDBRANCH  12  15
ENDBRANCH  10  11
ENDBRANCH   4  10
BRANCH   2  23
HETATM   23  C   UNL     1      -5.086   4.562 -30.843  1.00  0.00    -0.030 A 
HETATM   24  C   UNL     1      -6.348   4.510 -30.223  1.00  0.00     0.009 A 
HETATM   25  C   UNL     1      -6.875   3.296 -29.782  1.00  0.00     0.001 A 
HETATM   26  C   UNL     1      -6.152   2.118 -29.950  1.00  0.00     0.000 A 
HETATM   27  C   UNL     1      -4.894   2.152 -30.542  1.00  0.00     0.001 A 
HETATM   28  C   UNL     1      -4.357   3.364 -30.981  1.00  0.00     0.009 A 
ENDBRANCH   2  23
BRANCH   1  29
HETATM   29  C   UNL     1      -4.117   7.141 -29.223  1.00  0.00     0.294 C 
HETATM   30  O   UNL     1      -4.587   8.266 -29.305  1.00  0.00    -0.259 OA
BRANCH  29  31
HETATM   31  O   UNL     1      -3.967   6.436 -28.088  1.00  0.00    -0.318 OA
BRANCH  31  32
HETATM   32  C   UNL     1      -3.716   7.183 -26.884  1.00  0.00     0.174 C 
HETATM   33  C   UNL     1      -2.476   6.654 -26.189  1.00  0.00     0.034 C 
ENDBRANCH  31  32
ENDBRANCH  29  31
ENDBRANCH   1  29
BRANCH   9  34
HETATM   34  C   UNL     1      -1.097   6.786 -29.748  1.00  0.00    -0.006 A 
HETATM   35  C   UNL     1      -0.961   8.117 -29.325  1.00  0.00     0.014 A 
HETATM   36  C   UNL     1       0.018   8.464 -28.390  1.00  0.00     0.001 A 
HETATM   37  C   UNL     1       0.855   7.484 -27.860  1.00  0.00     0.000 A 
HETATM   38  C   UNL     1       0.716   6.157 -28.260  1.00  0.00     0.001 A 
HETATM   39  C   UNL     1      -0.257   5.806 -29.197  1.00  0.00     0.014 A 
ENDBRANCH   9  34
TORSDOF 10
ENDMDL
MODEL 4
REMARK VINA RESULT:      -8.1      2.503      4.312
REMARK  10 active torsions:
REMARK  status: ('A' for Active; 'I' for Inactive)
REMARK    1  A    between atoms: C_2  and  O_3 
REMARK    2  A    between atoms: O_3  and  C_4 
REMARK    3  A    between atoms: C_4  and  C_5 
REMARK    4  A    between atoms: C_6  and  C_7 
REMARK    5  A    between atoms: C_14  and  C_15 
REMARK    6  A    between atoms: C_15  and  C_16 
REMARK       I    between atoms: C_16  and  N_17 
REMARK    7  A    between atoms: N_17  and  C_18 
REMARK    8  A    between atoms: C_18  and  C_19 
REMARK    9  A    between atoms: C_19  and  N_20 
REMARK   10  A    between atoms: C_31  and  C_32 
ROOT
HETATM    1  C   UNL     1      -5.065   2.745 -32.384  1.00  0.00     0.074 C 
HETATM    2  C   UNL     1      -6.439   2.123 -32.283  1.00  0.00     0.166 C 
HETATM    3  N   UNL     1      -7.532   3.101 -32.501  1.00  0.00    -0.318 N 
HETATM    4  C   UNL     1      -8.814   3.067 -32.321  1.00  0.00     0.011 C 
HETATM    5  C   UNL     1      -7.095   4.356 -33.281  1.00  0.00     0.170 C 
HETATM    6  S   UNL     1      -8.444   5.312 -33.789  1.00  0.00    -0.086 SA
HETATM    7  C   UNL     1      -9.573   4.274 -32.830  1.00  0.00     0.135 C 
HETATM    8  N   UNL     1      -5.886   4.677 -33.553  1.00  0.00    -0.223 NA
HETATM    9  C   UNL     1      -4.862   3.906 -33.048  1.00  0.00     0.084 C 
ENDROOT
BRANCH   4  10
HETATM   10  C   UNL     1      -9.486   1.844 -31.745  1.00  0.00     0.156 C 
BRANCH  10  11
HETATM   11  C   UNL     1     -10.306   1.001 -32.710  1.00  0.00     0.223 C 
HETATM   12  N   UNL     1     -11.498   1.564 -33.083  1.00  0.00    -0.359 N 
HETATM   13  H   UNL     1     -11.772   2.435 -32.635  1.00  0.00     0.162 HD
HETATM   14  O   UNL     1      -9.936  -0.097 -33.113  1.00  0.00    -0.273 OA
BRANCH  12  15
HETATM   15  C   UNL     1     -12.514   1.015 -33.994  1.00  0.00     0.150 C 
BRANCH  15  16
HETATM   16  C   UNL     1     -13.960   1.561 -33.963  1.00  0.00     0.254 C 
BRANCH  16  17
HETATM   17  N   UNL     1     -14.279   2.320 -32.702  1.00  0.00    -0.070 N 
HETATM   18  H   UNL     1     -13.640   1.918 -31.988  1.00  0.00     0.279 HD
HETATM   19  C   UNL     1     -15.684   2.087 -32.170  1.00  0.00     0.235 C 
HETATM   20  C   UNL     1     -16.271   3.476 -31.996  1.00  0.00     0.029 C 
HETATM   21  C   UNL     1     -15.061   4.353 -31.750  1.00  0.00     0.029 C 
HETATM   22  C   UNL     1     -14.056   3.812 -32.745  1.00  0.00     0.235 C 
ENDBRANCH  16  17
ENDBRANCH  15  16
ENDBRANCH  12  15
ENDBRANCH  10  11
ENDBRANCH   4  10
BRANCH   2  23
HETATM   23  C   UNL     1      -6.631   0.954 -33.251  1.00  0.00    -0.030 A 
HETATM   24  C   UNL     1      -6.581  -0.367 -32.769  1.00  0.00     0.009 A 
HETATM   25  C   UNL     1      -6.770  -1.447 -33.631  1.00  0.00     0.001 A 
HETATM   26  C   UNL     1      -7.007  -1.228 -34.985  1.00  0.00     0.000 A 
HETATM   27  C   UNL     1      -7.038   0.071 -35.484  1.00  0.00     0.001 A 
HETATM   28  C   UNL     1      -6.846   1.157 -34.629  1.00  0.00     0.009 A 
ENDBRANCH   2  23
BRANCH   1  29
HETATM   29  C   UNL     1      -4.044   1.937 -31.652  1.00  0.00     0.294 C 
HETATM   30  O   UNL     1      -4.050   1.871 -30.432  1.00  0.00    -0.259 OA
BRANCH  29  31
HETATM   31  O   UNL     1      -3.086   1.446 -32.458  1.00  0.00    -0.318 OA
BRANCH  31  32
HETATM   32  C   UNL     1      -3.224   0.077 -32.876  1.00  0.00     0.174 C 
HETATM   33  C   UNL     1      -2.770  -0.857 -31.769  1.00  0.00     0.034 C 
ENDBRANCH  31  32
ENDBRANCH  29  31
ENDBRANCH   1  29
BRANCH   9  34
HETATM   34  C   UNL     1      -3.522   4.474 -33.330  1.00  0.00    -0.006 A 
HETATM   35  C   UNL     1      -3.068   4.616 -34.650  1.00  0.00     0.014 A 
HETATM   36  C   UNL     1      -1.829   5.205 -34.911  1.00  0.00     0.001 A 
HETATM   37  C   UNL     1      -1.043   5.671 -33.859  1.00  0.00     0.000 A 
HETATM   38  C   UNL     1      -1.492   5.551 -32.546  1.00  0.00     0.001 A 
HETATM   39  C   UNL     1      -2.728   4.958 -32.281  1.00  0.00     0.014 A 
ENDBRANCH   9  34
TORSDOF 10
ENDMDL
MODEL 5
REMARK VINA RESULT:      -8.1      3.540      9.053
REMARK  10 active torsions:
REMARK  status: ('A' for Active; 'I' for Inactive)
REMARK    1  A    between atoms: C_2  and  O_3 
REMARK    2  A    between atoms: O_3  and  C_4 
REMARK    3  A    between atoms: C_4  and  C_5 
REMARK    4  A    between atoms: C_6  and  C_7 
REMARK    5  A    between atoms: C_14  and  C_15 
REMARK    6  A    between atoms: C_15  and  C_16 
REMARK       I    between atoms: C_16  and  N_17 
REMARK    7  A    between atoms: N_17  and  C_18 
REMARK    8  A    between atoms: C_18  and  C_19 
REMARK    9  A    between atoms: C_19  and  N_20 
REMARK   10  A    between atoms: C_31  and  C_32 
ROOT
HETATM    1  C   UNL     1      -5.047   2.170 -31.027  1.00  0.00     0.074 C 
HETATM    2  C   UNL     1      -5.206   3.652 -30.768  1.00  0.00     0.166 C 
HETATM    3  N   UNL     1      -3.969   4.421 -31.045  1.00  0.00    -0.318 N 
HETATM    4  C   UNL     1      -3.592   5.633 -30.787  1.00  0.00     0.011 C 
HETATM    5  C   UNL     1      -2.995   3.707 -32.001  1.00  0.00     0.170 C 
HETATM    6  S   UNL     1      -1.730   4.753 -32.547  1.00  0.00    -0.086 SA
HETATM    7  C   UNL     1      -2.269   6.044 -31.401  1.00  0.00     0.135 C 
HETATM    8  N   UNL     1      -3.089   2.488 -32.382  1.00  0.00    -0.223 NA
HETATM    9  C   UNL     1      -4.079   1.695 -31.844  1.00  0.00     0.084 C 
ENDROOT
BRANCH   4  10
HETATM   10  C   UNL     1      -4.484   6.580 -30.023  1.00  0.00     0.156 C 
BRANCH  10  11
HETATM   11  C   UNL     1      -3.829   7.384 -28.910  1.00  0.00     0.223 C 
HETATM   12  N   UNL     1      -3.467   6.644 -27.815  1.00  0.00    -0.359 N 
HETATM   13  H   UNL     1      -3.732   5.662 -27.797  1.00  0.00     0.162 HD
HETATM   14  O   UNL     1      -3.649   8.595 -28.982  1.00  0.00    -0.273 OA
BRANCH  12  15
HETATM   15  C   UNL     1      -2.818   7.111 -26.581  1.00  0.00     0.150 C 
BRANCH  15  16
HETATM   16  C   UNL     1      -1.346   6.737 -26.288  1.00  0.00     0.254 C 
BRANCH  16  17
HETATM   17  N   UNL     1      -0.393   7.885 -26.497  1.00  0.00    -0.070 N 
HETATM   18  H   UNL     1      -0.829   8.681 -25.993  1.00  0.00     0.279 HD
HETATM   19  C   UNL     1      -0.267   8.336 -27.944  1.00  0.00     0.235 C 
HETATM   20  C   UNL     1       1.223   8.318 -28.230  1.00  0.00     0.029 C 
HETATM   21  C   UNL     1       1.856   8.556 -26.875  1.00  0.00     0.029 C 
HETATM   22  C   UNL     1       1.006   7.699 -25.961  1.00  0.00     0.235 C 
ENDBRANCH  16  17
ENDBRANCH  15  16
ENDBRANCH  12  15
ENDBRANCH  10  11
ENDBRANCH   4  10
BRANCH   2  23
HETATM   23  C   UNL     1      -6.354   4.271 -31.568  1.00  0.00    -0.030 A 
HETATM   24  C   UNL     1      -6.290   4.301 -32.973  1.00  0.00     0.009 A 
HETATM   25  C   UNL     1      -7.333   4.845 -33.722  1.00  0.00     0.001 A 
HETATM   26  C   UNL     1      -8.453   5.371 -33.083  1.00  0.00     0.000 A 
HETATM   27  C   UNL     1      -8.525   5.369 -31.693  1.00  0.00     0.001 A 
HETATM   28  C   UNL     1      -7.483   4.831 -30.936  1.00  0.00     0.009 A 
ENDBRANCH   2  23
BRANCH   1  29
HETATM   29  C   UNL     1      -6.049   1.371 -30.260  1.00  0.00     0.294 C 
HETATM   30  O   UNL     1      -5.699   0.619 -29.362  1.00  0.00    -0.259 OA
BRANCH  29  31
HETATM   31  O   UNL     1      -7.294   1.468 -30.760  1.00  0.00    -0.318 OA
BRANCH  31  32
HETATM   32  C   UNL     1      -7.705   0.448 -31.687  1.00  0.00     0.174 C 
HETATM   33  C   UNL     1      -8.244   1.082 -32.956  1.00  0.00     0.034 C 
ENDBRANCH  31  32
ENDBRANCH  29  31
ENDBRANCH   1  29
BRANCH   9  34
HETATM   34  C   UNL     1      -3.980   0.280 -32.273  1.00  0.00    -0.006 A 
HETATM   35  C   UNL     1      -3.194  -0.633 -31.555  1.00  0.00     0.014 A 
HETATM   36  C   UNL     1      -3.152  -1.978 -31.932  1.00  0.00     0.001 A 
HETATM   37  C   UNL     1      -3.906  -2.422 -33.016  1.00  0.00     0.000 A 
HETATM   38  C   UNL     1      -4.704  -1.526 -33.725  1.00  0.00     0.001 A 
HETATM   39  C   UNL     1      -4.744  -0.181 -33.355  1.00  0.00     0.014 A 
ENDBRANCH   9  34
TORSDOF 10
ENDMDL
MODEL 6
REMARK VINA RESULT:      -7.8      3.659      9.401
REMARK  10 active torsions:
REMARK  status: ('A' for Active; 'I' for Inactive)
REMARK    1  A    between atoms: C_2  and  O_3 
REMARK    2  A    between atoms: O_3  and  C_4 
REMARK    3  A    between atoms: C_4  and  C_5 
REMARK    4  A    between atoms: C_6  and  C_7 
REMARK    5  A    between atoms: C_14  and  C_15 
REMARK    6  A    between atoms: C_15  and  C_16 
REMARK       I    between atoms: C_16  and  N_17 
REMARK    7  A    between atoms: N_17  and  C_18 
REMARK    8  A    between atoms: C_18  and  C_19 
REMARK    9  A    between atoms: C_19  and  N_20 
REMARK   10  A    between atoms: C_31  and  C_32 
ROOT
HETATM    1  C   UNL     1      -5.103   5.122 -31.965  1.00  0.00     0.074 C 
HETATM    2  C   UNL     1      -4.544   6.420 -31.428  1.00  0.00     0.166 C 
HETATM    3  N   UNL     1      -4.953   6.689 -30.029  1.00  0.00    -0.318 N 
HETATM    4  C   UNL     1      -4.882   7.727 -29.258  1.00  0.00     0.011 C 
HETATM    5  C   UNL     1      -5.380   5.427 -29.254  1.00  0.00     0.170 C 
HETATM    6  S   UNL     1      -5.541   5.725 -27.558  1.00  0.00    -0.086 SA
HETATM    7  C   UNL     1      -5.301   7.499 -27.821  1.00  0.00     0.135 C 
HETATM    8  N   UNL     1      -5.584   4.273 -29.770  1.00  0.00    -0.223 NA
HETATM    9  C   UNL     1      -5.511   4.132 -31.138  1.00  0.00     0.084 C 
ENDROOT
BRANCH   4  10
HETATM   10  C   UNL     1      -4.308   9.030 -29.760  1.00  0.00     0.156 C 
BRANCH  10  11
HETATM   11  C   UNL     1      -2.998   9.482 -29.134  1.00  0.00     0.223 C 
HETATM   12  N   UNL     1      -3.024   9.568 -27.766  1.00  0.00    -0.359 N 
HETATM   13  H   UNL     1      -3.913   9.409 -27.298  1.00  0.00     0.162 HD
HETATM   14  O   UNL     1      -2.004   9.757 -29.797  1.00  0.00    -0.273 OA
BRANCH  12  15
HETATM   15  C   UNL     1      -1.935   9.970 -26.863  1.00  0.00     0.150 C 
BRANCH  15  16
HETATM   16  C   UNL     1      -1.404   8.981 -25.799  1.00  0.00     0.254 C 
BRANCH  16  17
HETATM   17  N   UNL     1      -0.174   8.236 -26.249  1.00  0.00    -0.070 N 
HETATM   18  H   UNL     1       0.388   8.115 -25.384  1.00  0.00     0.279 HD
HETATM   19  C   UNL     1       0.713   9.014 -27.208  1.00  0.00     0.235 C 
HETATM   20  C   UNL     1       0.906   8.091 -28.397  1.00  0.00     0.029 C 
HETATM   21  C   UNL     1       0.761   6.704 -27.807  1.00  0.00     0.029 C 
HETATM   22  C   UNL     1      -0.403   6.872 -26.855  1.00  0.00     0.235 C 
ENDBRANCH  16  17
ENDBRANCH  15  16
ENDBRANCH  12  15
ENDBRANCH  10  11
ENDBRANCH   4  10
BRANCH   2  23
HETATM   23  C   UNL     1      -3.017   6.484 -31.511  1.00  0.00    -0.030 A 
HETATM   24  C   UNL     1      -2.401   7.502 -32.261  1.00  0.00     0.009 A 
HETATM   25  C   UNL     1      -1.011   7.589 -32.336  1.00  0.00     0.001 A 
HETATM   26  C   UNL     1      -0.215   6.662 -31.668  1.00  0.00     0.000 A 
HETATM   27  C   UNL     1      -0.807   5.636 -30.938  1.00  0.00     0.001 A 
HETATM   28  C   UNL     1      -2.197   5.539 -30.862  1.00  0.00     0.009 A 
ENDBRANCH   2  23
BRANCH   1  29
HETATM   29  C   UNL     1      -5.157   5.126 -33.458  1.00  0.00     0.294 C 
HETATM   30  O   UNL     1      -6.161   5.494 -34.050  1.00  0.00    -0.259 OA
BRANCH  29  31
HETATM   31  O   UNL     1      -4.076   4.561 -34.025  1.00  0.00    -0.318 OA
BRANCH  31  32
HETATM   32  C   UNL     1      -3.371   5.343 -35.006  1.00  0.00     0.174 C 
HETATM   33  C   UNL     1      -1.883   5.052 -34.935  1.00  0.00     0.034 C 
ENDBRANCH  31  32
ENDBRANCH  29  31
ENDBRANCH   1  29
BRANCH   9  34
HETATM   34  C   UNL     1      -5.902   2.778 -31.598  1.00  0.00    -0.006 A 
HETATM   35  C   UNL     1      -7.250   2.462 -31.827  1.00  0.00     0.014 A 
HETATM   36  C   UNL     1      -7.605   1.202 -32.316  1.00  0.00     0.001 A 
HETATM   37  C   UNL     1      -6.619   0.258 -32.596  1.00  0.00     0.000 A 
HETATM   38  C   UNL     1      -5.277   0.569 -32.389  1.00  0.00     0.001 A 
HETATM   39  C   UNL     1      -4.917   1.825 -31.895  1.00  0.00     0.014 A 
ENDBRANCH   9  34
TORSDOF 10
ENDMDL
MODEL 7
REMARK VINA RESULT:      -7.7      2.933      5.170
REMARK  10 active torsions:
REMARK  status: ('A' for Active; 'I' for Inactive)
REMARK    1  A    between atoms: C_2  and  O_3 
REMARK    2  A    between atoms: O_3  and  C_4 
REMARK    3  A    between atoms: C_4  and  C_5 
REMARK    4  A    between atoms: C_6  and  C_7 
REMARK    5  A    between atoms: C_14  and  C_15 
REMARK    6  A    between atoms: C_15  and  C_16 
REMARK       I    between atoms: C_16  and  N_17 
REMARK    7  A    between atoms: N_17  and  C_18 
REMARK    8  A    between atoms: C_18  and  C_19 
REMARK    9  A    between atoms: C_19  and  N_20 
REMARK   10  A    between atoms: C_31  and  C_32 
ROOT
HETATM    1  C   UNL     1      -6.748   3.466 -32.325  1.00  0.00     0.074 C 
HETATM    2  C   UNL     1      -7.983   2.636 -32.594  1.00  0.00     0.166 C 
HETATM    3  N   UNL     1      -9.059   3.404 -33.265  1.00  0.00    -0.318 N 
HETATM    4  C   UNL     1     -10.312   3.173 -33.500  1.00  0.00     0.011 C 
HETATM    5  C   UNL     1      -8.557   4.657 -34.008  1.00  0.00     0.170 C 
HETATM    6  S   UNL     1      -9.772   5.342 -35.030  1.00  0.00    -0.086 SA
HETATM    7  C   UNL     1     -11.009   4.202 -34.366  1.00  0.00     0.135 C 
HETATM    8  N   UNL     1      -7.379   5.151 -33.916  1.00  0.00    -0.223 NA
HETATM    9  C   UNL     1      -6.490   4.596 -33.022  1.00  0.00     0.084 C 
ENDROOT
BRANCH   4  10
HETATM   10  C   UNL     1     -10.970   1.900 -33.028  1.00  0.00     0.156 C 
BRANCH  10  11
HETATM   11  C   UNL     1     -12.334   1.580 -33.619  1.00  0.00     0.223 C 
HETATM   12  N   UNL     1     -13.392   1.897 -32.808  1.00  0.00    -0.359 N 
HETATM   13  H   UNL     1     -13.186   2.234 -31.871  1.00  0.00     0.162 HD
HETATM   14  O   UNL     1     -12.476   1.070 -34.726  1.00  0.00    -0.273 OA
BRANCH  12  15
HETATM   15  C   UNL     1     -14.827   1.718 -33.078  1.00  0.00     0.150 C 
BRANCH  15  16
HETATM   16  C   UNL     1     -15.876   2.181 -32.041  1.00  0.00     0.254 C 
BRANCH  16  17
HETATM   17  N   UNL     1     -16.711   3.338 -32.522  1.00  0.00    -0.070 N 
HETATM   18  H   UNL     1     -16.487   3.419 -33.533  1.00  0.00     0.279 HD
HETATM   19  C   UNL     1     -16.333   4.679 -31.911  1.00  0.00     0.235 C 
HETATM   20  C   UNL     1     -17.632   5.234 -31.355  1.00  0.00     0.029 C 
HETATM   21  C   UNL     1     -18.697   4.611 -32.232  1.00  0.00     0.029 C 
HETATM   22  C   UNL     1     -18.207   3.188 -32.384  1.00  0.00     0.235 C 
ENDBRANCH  16  17
ENDBRANCH  15  16
ENDBRANCH  12  15
ENDBRANCH  10  11
ENDBRANCH   4  10
BRANCH   2  23
HETATM   23  C   UNL     1      -7.685   1.387 -33.426  1.00  0.00    -0.030 A 
HETATM   24  C   UNL     1      -7.806   0.113 -32.841  1.00  0.00     0.009 A 
HETATM   25  C   UNL     1      -7.556  -1.040 -33.586  1.00  0.00     0.001 A 
HETATM   26  C   UNL     1      -7.177  -0.940 -34.922  1.00  0.00     0.000 A 
HETATM   27  C   UNL     1      -7.032   0.312 -35.512  1.00  0.00     0.001 A 
HETATM   28  C   UNL     1      -7.276   1.470 -34.772  1.00  0.00     0.009 A 
ENDBRANCH   2  23
BRANCH   1  29
HETATM   29  C   UNL     1      -5.933   2.888 -31.215  1.00  0.00     0.294 C 
HETATM   30  O   UNL     1      -6.140   3.203 -30.052  1.00  0.00    -0.259 OA
BRANCH  29  31
HETATM   31  O   UNL     1      -4.905   2.139 -31.652  1.00  0.00    -0.318 OA
BRANCH  31  32
HETATM   32  C   UNL     1      -4.698   0.872 -31.003  1.00  0.00     0.174 C 
HETATM   33  C   UNL     1      -3.273   0.400 -31.220  1.00  0.00     0.034 C 
ENDBRANCH  31  32
ENDBRANCH  29  31
ENDBRANCH   1  29
BRANCH   9  34
HETATM   34  C   UNL     1      -5.220   5.354 -32.928  1.00  0.00    -0.006 A 
HETATM   35  C   UNL     1      -4.179   5.124 -33.841  1.00  0.00     0.014 A 
HETATM   36  C   UNL     1      -3.008   5.883 -33.781  1.00  0.00     0.001 A 
HETATM   37  C   UNL     1      -2.875   6.886 -32.823  1.00  0.00     0.000 A 
HETATM   38  C   UNL     1      -3.909   7.134 -31.924  1.00  0.00     0.001 A 
HETATM   39  C   UNL     1      -5.079   6.374 -31.977  1.00  0.00     0.014 A 
ENDBRANCH   9  34
TORSDOF 10
ENDMDL
MODEL 8
REMARK VINA RESULT:      -7.6      3.363      9.518
REMARK  10 active torsions:
REMARK  status: ('A' for Active; 'I' for Inactive)
REMARK    1  A    between atoms: C_2  and  O_3 
REMARK    2  A    between atoms: O_3  and  C_4 
REMARK    3  A    between atoms: C_4  and  C_5 
REMARK    4  A    between atoms: C_6  and  C_7 
REMARK    5  A    between atoms: C_14  and  C_15 
REMARK    6  A    between atoms: C_15  and  C_16 
REMARK       I    between atoms: C_16  and  N_17 
REMARK    7  A    between atoms: N_17  and  C_18 
REMARK    8  A    between atoms: C_18  and  C_19 
REMARK    9  A    between atoms: C_19  and  N_20 
REMARK   10  A    between atoms: C_31  and  C_32 
ROOT
HETATM    1  C   UNL     1      -6.089   4.684 -32.321  1.00  0.00     0.074 C 
HETATM    2  C   UNL     1      -5.226   5.912 -32.139  1.00  0.00     0.166 C 
HETATM    3  N   UNL     1      -5.291   6.464 -30.765  1.00  0.00    -0.318 N 
HETATM    4  C   UNL     1      -4.894   7.572 -30.225  1.00  0.00     0.011 C 
HETATM    5  C   UNL     1      -5.754   5.443 -29.707  1.00  0.00     0.170 C 
HETATM    6  S   UNL     1      -5.515   6.020 -28.094  1.00  0.00    -0.086 SA
HETATM    7  C   UNL     1      -5.044   7.651 -28.720  1.00  0.00     0.135 C 
HETATM    8  N   UNL     1      -6.246   4.289 -29.957  1.00  0.00    -0.223 NA
HETATM    9  C   UNL     1      -6.478   3.930 -31.267  1.00  0.00     0.084 C 
ENDROOT
BRANCH   4  10
HETATM   10  C   UNL     1      -4.227   8.645 -31.052  1.00  0.00     0.156 C 
BRANCH  10  11
HETATM   11  C   UNL     1      -2.708   8.602 -31.123  1.00  0.00     0.223 C 
HETATM   12  N   UNL     1      -2.111   7.925 -30.092  1.00  0.00    -0.359 N 
HETATM   13  H   UNL     1      -2.707   7.586 -29.340  1.00  0.00     0.162 HD
HETATM   14  O   UNL     1      -2.070   9.139 -32.022  1.00  0.00    -0.273 OA
BRANCH  12  15
HETATM   15  C   UNL     1      -0.676   7.701 -29.866  1.00  0.00     0.150 C 
BRANCH  15  16
HETATM   16  C   UNL     1      -0.204   6.551 -28.947  1.00  0.00     0.254 C 
BRANCH  16  17
HETATM   17  N   UNL     1       0.719   7.012 -27.850  1.00  0.00    -0.070 N 
HETATM   18  H   UNL     1       1.434   6.262 -27.778  1.00  0.00     0.279 HD
HETATM   19  C   UNL     1       0.069   7.092 -26.477  1.00  0.00     0.235 C 
HETATM   20  C   UNL     1       0.364   8.498 -25.987  1.00  0.00     0.029 C 
HETATM   21  C   UNL     1       1.655   8.864 -26.689  1.00  0.00     0.029 C 
HETATM   22  C   UNL     1       1.434   8.321 -28.084  1.00  0.00     0.235 C 
ENDBRANCH  16  17
ENDBRANCH  15  16
ENDBRANCH  12  15
ENDBRANCH  10  11
ENDBRANCH   4  10
BRANCH   2  23
HETATM   23  C   UNL     1      -3.759   5.659 -32.494  1.00  0.00    -0.030 A 
HETATM   24  C   UNL     1      -3.228   6.187 -33.685  1.00  0.00     0.009 A 
HETATM   25  C   UNL     1      -1.889   5.984 -34.020  1.00  0.00     0.001 A 
HETATM   26  C   UNL     1      -1.061   5.249 -33.176  1.00  0.00     0.000 A 
HETATM   27  C   UNL     1      -1.573   4.701 -32.004  1.00  0.00     0.001 A 
HETATM   28  C   UNL     1      -2.913   4.896 -31.664  1.00  0.00     0.009 A 
ENDBRANCH   2  23
BRANCH   1  29
HETATM   29  C   UNL     1      -6.444   4.473 -33.757  1.00  0.00     0.294 C 
HETATM   30  O   UNL     1      -5.808   3.698 -34.455  1.00  0.00    -0.259 OA
BRANCH  29  31
HETATM   31  O   UNL     1      -7.402   5.312 -34.190  1.00  0.00    -0.318 OA
BRANCH  31  32
HETATM   32  C   UNL     1      -8.762   4.857 -34.090  1.00  0.00     0.174 C 
HETATM   33  C   UNL     1      -9.550   5.762 -33.162  1.00  0.00     0.034 C 
ENDBRANCH  31  32
ENDBRANCH  29  31
ENDBRANCH   1  29
BRANCH   9  34
HETATM   34  C   UNL     1      -7.173   2.628 -31.393  1.00  0.00    -0.006 A 
HETATM   35  C   UNL     1      -8.572   2.551 -31.312  1.00  0.00     0.014 A 
HETATM   36  C   UNL     1      -9.223   1.328 -31.489  1.00  0.00     0.001 A 
HETATM   37  C   UNL     1      -8.486   0.179 -31.766  1.00  0.00     0.000 A 
HETATM   38  C   UNL     1      -7.098   0.247 -31.866  1.00  0.00     0.001 A 
HETATM   39  C   UNL     1      -6.443   1.466 -31.684  1.00  0.00     0.014 A 
ENDBRANCH   9  34
TORSDOF 10
ENDMDL
MODEL 9
REMARK VINA RESULT:      -7.6      3.041      5.007
REMARK  10 active torsions:
REMARK  status: ('A' for Active; 'I' for Inactive)
REMARK    1  A    between atoms: C_2  and  O_3 
REMARK    2  A    between atoms: O_3  and  C_4 
REMARK    3  A    between atoms: C_4  and  C_5 
REMARK    4  A    between atoms: C_6  and  C_7 
REMARK    5  A    between atoms: C_14  and  C_15 
REMARK    6  A    between atoms: C_15  and  C_16 
REMARK       I    between atoms: C_16  and  N_17 
REMARK    7  A    between atoms: N_17  and  C_18 
REMARK    8  A    between atoms: C_18  and  C_19 
REMARK    9  A    between atoms: C_19  and  N_20 
REMARK   10  A    between atoms: C_31  and  C_32 
ROOT
HETATM    1  C   UNL     1      -6.303   3.900 -31.837  1.00  0.00     0.074 C 
HETATM    2  C   UNL     1      -7.745   3.671 -31.443  1.00  0.00     0.166 C 
HETATM    3  N   UNL     1      -8.570   4.899 -31.538  1.00  0.00    -0.318 N 
HETATM    4  C   UNL     1      -9.758   5.213 -31.129  1.00  0.00     0.011 C 
HETATM    5  C   UNL     1      -7.985   5.970 -32.478  1.00  0.00     0.170 C 
HETATM    6  S   UNL     1      -9.115   7.237 -32.810  1.00  0.00    -0.086 SA
HETATM    7  C   UNL     1     -10.265   6.565 -31.587  1.00  0.00     0.135 C 
HETATM    8  N   UNL     1      -6.810   5.948 -32.987  1.00  0.00    -0.223 NA
HETATM    9  C   UNL     1      -5.940   4.946 -32.615  1.00  0.00     0.084 C 
ENDROOT
BRANCH   4  10
HETATM   10  C   UNL     1     -10.598   4.231 -30.348  1.00  0.00     0.156 C 
BRANCH  10  11
HETATM   11  C   UNL     1     -12.022   4.015 -30.837  1.00  0.00     0.223 C 
HETATM   12  N   UNL     1     -12.124   3.224 -31.951  1.00  0.00    -0.359 N 
HETATM   13  H   UNL     1     -11.262   2.922 -32.399  1.00  0.00     0.162 HD
HETATM   14  O   UNL     1     -12.997   4.516 -30.287  1.00  0.00    -0.273 OA
BRANCH  12  15
HETATM   15  C   UNL     1     -13.343   2.823 -32.669  1.00  0.00     0.150 C 
BRANCH  15  16
HETATM   16  C   UNL     1     -13.297   2.560 -34.192  1.00  0.00     0.254 C 
BRANCH  16  17
HETATM   17  N   UNL     1     -13.050   3.807 -34.999  1.00  0.00    -0.070 N 
HETATM   18  H   UNL     1     -13.749   3.764 -35.766  1.00  0.00     0.279 HD
HETATM   19  C   UNL     1     -11.693   3.849 -35.685  1.00  0.00     0.235 C 
HETATM   20  C   UNL     1     -11.083   5.173 -35.262  1.00  0.00     0.029 C 
HETATM   21  C   UNL     1     -12.283   6.057 -34.995  1.00  0.00     0.029 C 
HETATM   22  C   UNL     1     -13.228   5.119 -34.275  1.00  0.00     0.235 C 
ENDBRANCH  16  17
ENDBRANCH  15  16
ENDBRANCH  12  15
ENDBRANCH  10  11
ENDBRANCH   4  10
BRANCH   2  23
HETATM   23  C   UNL     1      -8.414   2.569 -32.267  1.00  0.00    -0.030 A 
HETATM   24  C   UNL     1      -8.855   1.394 -31.632  1.00  0.00     0.009 A 
HETATM   25  C   UNL     1      -9.483   0.384 -32.361  1.00  0.00     0.001 A 
HETATM   26  C   UNL     1      -9.676   0.528 -33.732  1.00  0.00     0.000 A 
HETATM   27  C   UNL     1      -9.227   1.674 -34.381  1.00  0.00     0.001 A 
HETATM   28  C   UNL     1      -8.594   2.687 -33.660  1.00  0.00     0.009 A 
ENDBRANCH   2  23
BRANCH   1  29
HETATM   29  C   UNL     1      -5.403   2.869 -31.239  1.00  0.00     0.294 C 
HETATM   30  O   UNL     1      -5.123   2.892 -30.049  1.00  0.00    -0.259 OA
BRANCH  29  31
HETATM   31  O   UNL     1      -4.853   2.054 -32.157  1.00  0.00    -0.318 OA
BRANCH  31  32
HETATM   32  C   UNL     1      -5.249   0.672 -32.122  1.00  0.00     0.174 C 
HETATM   33  C   UNL     1      -5.761   0.240 -33.483  1.00  0.00     0.034 C 
ENDBRANCH  31  32
ENDBRANCH  29  31
ENDBRANCH   1  29
BRANCH   9  34
HETATM   34  C   UNL     1      -4.581   5.127 -33.176  1.00  0.00    -0.006 A 
HETATM   35  C   UNL     1      -4.360   5.041 -34.559  1.00  0.00     0.014 A 
HETATM   36  C   UNL     1      -3.086   5.270 -35.086  1.00  0.00     0.001 A 
HETATM   37  C   UNL     1      -2.030   5.602 -34.239  1.00  0.00     0.000 A 
HETATM   38  C   UNL     1      -2.243   5.707 -32.866  1.00  0.00     0.001 A 
HETATM   39  C   UNL     1      -3.513   5.474 -32.335  1.00  0.00     0.014 A 
ENDBRANCH   9  34
TORSDOF 10
ENDMDL
MODEL 10
REMARK VINA RESULT:      -7.4      3.437      5.569
REMARK  10 active torsions:
REMARK  status: ('A' for Active; 'I' for Inactive)
REMARK    1  A    between atoms: C_2  and  O_3 
REMARK    2  A    between atoms: O_3  and  C_4 
REMARK    3  A    between atoms: C_4  and  C_5 
REMARK    4  A    between atoms: C_6  and  C_7 
REMARK    5  A    between atoms: C_14  and  C_15 
REMARK    6  A    between atoms: C_15  and  C_16 
REMARK       I    between atoms: C_16  and  N_17 
REMARK    7  A    between atoms: N_17  and  C_18 
REMARK    8  A    between atoms: C_18  and  C_19 
REMARK    9  A    between atoms: C_19  and  N_20 
REMARK   10  A    between atoms: C_31  and  C_32 
ROOT
HETATM    1  C   UNL     1      -2.863   7.761 -29.708  1.00  0.00     0.074 C 
HETATM    2  C   UNL     1      -4.058   7.373 -30.548  1.00  0.00     0.166 C 
HETATM    3  N   UNL     1      -3.740   6.338 -31.561  1.00  0.00    -0.318 N 
HETATM    4  C   UNL     1      -4.371   5.865 -32.588  1.00  0.00     0.011 C 
HETATM    5  C   UNL     1      -2.484   5.509 -31.227  1.00  0.00     0.170 C 
HETATM    6  S   UNL     1      -2.326   4.122 -32.248  1.00  0.00    -0.086 SA
HETATM    7  C   UNL     1      -3.711   4.683 -33.267  1.00  0.00     0.135 C 
HETATM    8  N   UNL     1      -1.643   5.778 -30.300  1.00  0.00    -0.223 NA
HETATM    9  C   UNL     1      -1.794   6.942 -29.579  1.00  0.00     0.084 C 
ENDROOT
BRANCH   4  10
HETATM   10  C   UNL     1      -5.724   6.403 -32.985  1.00  0.00     0.156 C 
BRANCH  10  11
HETATM   11  C   UNL     1      -6.850   5.388 -33.108  1.00  0.00     0.223 C 
HETATM   12  N   UNL     1      -7.105   4.683 -31.960  1.00  0.00    -0.359 N 
HETATM   13  H   UNL     1      -6.487   4.830 -31.166  1.00  0.00     0.162 HD
HETATM   14  O   UNL     1      -7.470   5.206 -34.150  1.00  0.00    -0.273 OA
BRANCH  12  15
HETATM   15  C   UNL     1      -8.118   3.639 -31.745  1.00  0.00     0.150 C 
BRANCH  15  16
HETATM   16  C   UNL     1      -8.242   2.950 -30.366  1.00  0.00     0.254 C 
BRANCH  16  17
HETATM   17  N   UNL     1      -7.428   1.687 -30.262  1.00  0.00    -0.070 N 
HETATM   18  H   UNL     1      -7.787   1.215 -29.409  1.00  0.00     0.279 HD
HETATM   19  C   UNL     1      -5.946   1.918 -30.008  1.00  0.00     0.235 C 
HETATM   20  C   UNL     1      -5.237   1.129 -31.094  1.00  0.00     0.029 C 
HETATM   21  C   UNL     1      -6.204   0.011 -31.421  1.00  0.00     0.029 C 
HETATM   22  C   UNL     1      -7.540   0.721 -31.416  1.00  0.00     0.235 C 
ENDBRANCH  16  17
ENDBRANCH  15  16
ENDBRANCH  12  15
ENDBRANCH  10  11
ENDBRANCH   4  10
BRANCH   2  23
HETATM   23  C   UNL     1      -5.239   6.885 -29.706  1.00  0.00    -0.030 A 
HETATM   24  C   UNL     1      -6.417   7.651 -29.646  1.00  0.00     0.009 A 
HETATM   25  C   UNL     1      -7.512   7.216 -28.898  1.00  0.00     0.001 A 
HETATM   26  C   UNL     1      -7.446   6.014 -28.197  1.00  0.00     0.000 A 
HETATM   27  C   UNL     1      -6.282   5.253 -28.229  1.00  0.00     0.001 A 
HETATM   28  C   UNL     1      -5.181   5.684 -28.971  1.00  0.00     0.009 A 
ENDBRANCH   2  23
BRANCH   1  29
HETATM   29  C   UNL     1      -3.033   9.119 -29.109  1.00  0.00     0.294 C 
HETATM   30  O   UNL     1      -2.804  10.127 -29.761  1.00  0.00    -0.259 OA
BRANCH  29  31
HETATM   31  O   UNL     1      -3.308   9.083 -27.793  1.00  0.00    -0.318 OA
BRANCH  31  32
HETATM   32  C   UNL     1      -3.012  10.268 -27.033  1.00  0.00     0.174 C 
HETATM   33  C   UNL     1      -1.757  10.060 -26.206  1.00  0.00     0.034 C 
ENDBRANCH  31  32
ENDBRANCH  29  31
ENDBRANCH   1  29
BRANCH   9  34
HETATM   34  C   UNL     1      -0.675   7.185 -28.637  1.00  0.00    -0.006 A 
HETATM   35  C   UNL     1       0.386   8.033 -28.989  1.00  0.00     0.014 A 
HETATM   36  C   UNL     1       1.407   8.302 -28.075  1.00  0.00     0.001 A 
HETATM   37  C   UNL     1       1.367   7.741 -26.799  1.00  0.00     0.000 A 
HETATM   38  C   UNL     1       0.309   6.912 -26.434  1.00  0.00     0.001 A 
HETATM   39  C   UNL     1      -0.711   6.637 -27.347  1.00  0.00     0.014 A 
ENDBRANCH   9  34
TORSDOF 10
ENDMDL
