MODEL 1
REMARK VINA RESULT:      -8.1      0.000      0.000
REMARK  5 active torsions:
REMARK  status: ('A' for Active; 'I' for Inactive)
REMARK    1  A    between atoms: C_8  and  N_9 
REMARK       I    between atoms: N_9  and  C_10 
REMARK    2  A    between atoms: C_10  and  C_11 
REMARK    3  A    between atoms: C_11  and  N_12 
REMARK    4  A    between atoms: N_12  and  C_13 
REMARK    5  A    between atoms: C_13  and  C_14 
ROOT
HETATM    1  C   UNL     1      -8.246   1.442 -32.402  1.00  0.00     0.372 C 
ENDROOT
BRANCH   1   2
HETATM    2  C   UNL     1      -9.683   1.950 -32.600  1.00  0.00     0.250 C 
HETATM    3  N   UNL     1     -10.280   1.406 -33.718  1.00  0.00    -0.322 N 
HETATM    4  H   UNL     1      -9.693   0.752 -34.229  1.00  0.00     0.169 HD
HETATM    5  O   UNL     1     -10.182   2.731 -31.799  1.00  0.00    -0.271 OA
BRANCH   3   6
HETATM    6  C   UNL     1     -11.537   1.664 -34.230  1.00  0.00     0.085 A 
HETATM    7  C   UNL     1     -11.803   2.818 -34.944  1.00  0.00     0.052 A 
HETATM    8  C   UNL     1     -10.961   3.972 -35.334  1.00  0.00     0.072 C 
HETATM    9  N   UNL     1     -13.125   2.753 -35.282  1.00  0.00    -0.280 N 
HETATM   10  H   UNL     1     -13.672   3.427 -35.807  1.00  0.00     0.189 HD
HETATM   11  N   UNL     1     -13.741   1.653 -34.843  1.00  0.00    -0.177 NA
HETATM   12  C   UNL     1     -12.782   0.969 -34.199  1.00  0.00     0.079 A 
HETATM   13  C   UNL     1     -13.151  -0.332 -33.585  1.00  0.00     0.075 C 
ENDBRANCH   3   6
ENDBRANCH   1   2
BRANCH   1  14
HETATM   14  N   UNL     1      -8.031   0.168 -33.139  1.00  0.00     0.100 N 
HETATM   15  H   UNL     1      -8.827   0.056 -33.774  1.00  0.00     0.317 HD
BRANCH  14  16
HETATM   16  C   UNL     1      -6.815   0.232 -33.972  1.00  0.00     0.250 C 
HETATM   17  C   UNL     1      -7.215   0.645 -35.393  1.00  0.00     0.048 C 
BRANCH  16  18
HETATM   18  C   UNL     1      -6.042  -1.076 -34.015  1.00  0.00    -0.024 A 
HETATM   19  C   UNL     1      -6.533  -2.197 -34.712  1.00  0.00     0.036 A 
HETATM   20  C   UNL     1      -5.797  -3.383 -34.753  1.00  0.00     0.073 A 
HETATM   21 CL   UNL     1      -6.424  -4.738 -35.609  1.00  0.00    -0.081 Cl
HETATM   22  C   UNL     1      -4.568  -3.459 -34.105  1.00  0.00     0.138 A 
HETATM   23  F   UNL     1      -3.843  -4.587 -34.136  1.00  0.00    -0.204 F 
HETATM   24  C   UNL     1      -4.063  -2.361 -33.414  1.00  0.00     0.044 A 
HETATM   25  C   UNL     1      -4.798  -1.174 -33.370  1.00  0.00     0.012 A 
ENDBRANCH  16  18
ENDBRANCH  14  16
ENDBRANCH   1  14
TORSDOF 5
ENDMDL
MODEL 2
REMARK VINA RESULT:      -8.1      5.448      7.503
REMARK  5 active torsions:
REMARK  status: ('A' for Active; 'I' for Inactive)
REMARK    1  A    between atoms: C_8  and  N_9 
REMARK       I    between atoms: N_9  and  C_10 
REMARK    2  A    between atoms: C_10  and  C_11 
REMARK    3  A    between atoms: C_11  and  N_12 
REMARK    4  A    between atoms: N_12  and  C_13 
REMARK    5  A    between atoms: C_13  and  C_14 
ROOT
HETATM    1  C   UNL     1      -3.325   2.251 -31.294  1.00  0.00     0.372 C 
ENDROOT
BRANCH   1   2
HETATM    2  C   UNL     1      -3.369   3.733 -31.699  1.00  0.00     0.250 C 
HETATM    3  N   UNL     1      -2.368   4.062 -32.589  1.00  0.00    -0.322 N 
HETATM    4  H   UNL     1      -1.768   3.284 -32.848  1.00  0.00     0.169 HD
HETATM    5  O   UNL     1      -4.240   4.473 -31.257  1.00  0.00    -0.271 OA
BRANCH   3   6
HETATM    6  C   UNL     1      -2.073   5.298 -33.129  1.00  0.00     0.085 A 
HETATM    7  C   UNL     1      -2.709   5.760 -34.267  1.00  0.00     0.052 A 
HETATM    8  C   UNL     1      -3.751   5.174 -35.142  1.00  0.00     0.072 C 
HETATM    9  N   UNL     1      -2.173   6.990 -34.522  1.00  0.00    -0.280 N 
HETATM   10  H   UNL     1      -2.395   7.626 -35.281  1.00  0.00     0.189 HD
HETATM   11  N   UNL     1      -1.238   7.365 -33.645  1.00  0.00    -0.177 NA
HETATM   12  C   UNL     1      -1.165   6.342 -32.779  1.00  0.00     0.079 A 
HETATM   13  C   UNL     1      -0.201   6.451 -31.656  1.00  0.00     0.075 C 
ENDBRANCH   3   6
ENDBRANCH   1   2
BRANCH   1  14
HETATM   14  N   UNL     1      -3.649   1.378 -32.454  1.00  0.00     0.100 N 
HETATM   15  H   UNL     1      -2.991   0.594 -32.427  1.00  0.00     0.317 HD
BRANCH  14  16
HETATM   16  C   UNL     1      -5.006   0.812 -32.334  1.00  0.00     0.250 C 
HETATM   17  C   UNL     1      -5.262   0.458 -30.865  1.00  0.00     0.048 C 
BRANCH  16  18
HETATM   18  C   UNL     1      -5.228  -0.415 -33.205  1.00  0.00    -0.024 A 
HETATM   19  C   UNL     1      -4.404  -1.551 -33.097  1.00  0.00     0.036 A 
HETATM   20  C   UNL     1      -4.638  -2.673 -33.895  1.00  0.00     0.073 A 
HETATM   21 CL   UNL     1      -3.611  -4.046 -33.745  1.00  0.00    -0.081 Cl
HETATM   22  C   UNL     1      -5.695  -2.672 -34.799  1.00  0.00     0.138 A 
HETATM   23  F   UNL     1      -5.941  -3.741 -35.571  1.00  0.00    -0.204 F 
HETATM   24  C   UNL     1      -6.525  -1.561 -34.917  1.00  0.00     0.044 A 
HETATM   25  C   UNL     1      -6.292  -0.436 -34.122  1.00  0.00     0.012 A 
ENDBRANCH  16  18
ENDBRANCH  14  16
ENDBRANCH   1  14
TORSDOF 5
ENDMDL
MODEL 3
REMARK VINA RESULT:      -7.7      4.716      6.778
REMARK  5 active torsions:
REMARK  status: ('A' for Active; 'I' for Inactive)
REMARK    1  A    between atoms: C_8  and  N_9 
REMARK       I    between atoms: N_9  and  C_10 
REMARK    2  A    between atoms: C_10  and  C_11 
REMARK    3  A    between atoms: C_11  and  N_12 
REMARK    4  A    between atoms: N_12  and  C_13 
REMARK    5  A    between atoms: C_13  and  C_14 
ROOT
HETATM    1  C   UNL     1      -3.615   0.966 -31.368  1.00  0.00     0.372 C 
ENDROOT
BRANCH   1   2
HETATM    2  C   UNL     1      -3.782   2.490 -31.476  1.00  0.00     0.250 C 
HETATM    3  N   UNL     1      -3.012   3.031 -32.484  1.00  0.00    -0.322 N 
HETATM    4  H   UNL     1      -2.465   2.349 -33.004  1.00  0.00     0.169 HD
HETATM    5  O   UNL     1      -4.551   3.085 -30.731  1.00  0.00    -0.271 OA
BRANCH   3   6
HETATM    6  C   UNL     1      -2.873   4.358 -32.839  1.00  0.00     0.085 A 
HETATM    7  C   UNL     1      -1.970   5.187 -32.199  1.00  0.00     0.052 A 
HETATM    8  C   UNL     1      -1.006   4.959 -31.097  1.00  0.00     0.072 C 
HETATM    9  N   UNL     1      -2.105   6.413 -32.785  1.00  0.00    -0.280 N 
HETATM   10  H   UNL     1      -1.605   7.269 -32.571  1.00  0.00     0.189 HD
HETATM   11  N   UNL     1      -3.024   6.450 -33.753  1.00  0.00    -0.177 NA
HETATM   12  C   UNL     1      -3.504   5.198 -33.805  1.00  0.00     0.079 A 
HETATM   13  C   UNL     1      -4.562   4.900 -34.803  1.00  0.00     0.075 C 
ENDBRANCH   3   6
ENDBRANCH   1   2
BRANCH   1  14
HETATM   14  N   UNL     1      -4.877   0.270 -31.735  1.00  0.00     0.100 N 
HETATM   15  H   UNL     1      -5.646   0.837 -31.365  1.00  0.00     0.317 HD
BRANCH  14  16
HETATM   16  C   UNL     1      -5.048   0.208 -33.199  1.00  0.00     0.250 C 
HETATM   17  C   UNL     1      -6.238   1.091 -33.592  1.00  0.00     0.048 C 
BRANCH  16  18
HETATM   18  C   UNL     1      -5.259  -1.203 -33.724  1.00  0.00    -0.024 A 
HETATM   19  C   UNL     1      -4.277  -2.199 -33.568  1.00  0.00     0.036 A 
HETATM   20  C   UNL     1      -4.500  -3.493 -34.042  1.00  0.00     0.073 A 
HETATM   21 CL   UNL     1      -3.279  -4.689 -33.842  1.00  0.00    -0.081 Cl
HETATM   22  C   UNL     1      -5.703  -3.804 -34.669  1.00  0.00     0.138 A 
HETATM   23  F   UNL     1      -5.939  -5.042 -35.128  1.00  0.00    -0.204 F 
HETATM   24  C   UNL     1      -6.689  -2.835 -34.828  1.00  0.00     0.044 A 
HETATM   25  C   UNL     1      -6.467  -1.539 -34.357  1.00  0.00     0.012 A 
ENDBRANCH  16  18
ENDBRANCH  14  16
ENDBRANCH   1  14
TORSDOF 5
ENDMDL
MODEL 4
REMARK VINA RESULT:      -7.5      1.813      2.973
REMARK  5 active torsions:
REMARK  status: ('A' for Active; 'I' for Inactive)
REMARK    1  A    between atoms: C_8  and  N_9 
REMARK       I    between atoms: N_9  and  C_10 
REMARK    2  A    between atoms: C_10  and  C_11 
REMARK    3  A    between atoms: C_11  and  N_12 
REMARK    4  A    between atoms: N_12  and  C_13 
REMARK    5  A    between atoms: C_13  and  C_14 
ROOT
HETATM    1  C   UNL     1      -6.049   2.285 -31.995  1.00  0.00     0.372 C 
ENDROOT
BRANCH   1   2
HETATM    2  C   UNL     1      -7.582   2.393 -31.996  1.00  0.00     0.250 C 
HETATM    3  N   UNL     1      -8.125   2.107 -33.231  1.00  0.00    -0.322 N 
HETATM    4  H   UNL     1      -7.441   1.861 -33.942  1.00  0.00     0.169 HD
HETATM    5  O   UNL     1      -8.186   2.682 -30.970  1.00  0.00    -0.271 OA
BRANCH   3   6
HETATM    6  C   UNL     1      -9.452   2.148 -33.615  1.00  0.00     0.085 A 
HETATM    7  C   UNL     1     -10.302   1.081 -33.390  1.00  0.00     0.052 A 
HETATM    8  C   UNL     1     -10.102  -0.247 -32.764  1.00  0.00     0.072 C 
HETATM    9  N   UNL     1     -11.513   1.453 -33.899  1.00  0.00    -0.280 N 
HETATM   10  H   UNL     1     -12.377   0.922 -33.916  1.00  0.00     0.189 HD
HETATM   11  N   UNL     1     -11.520   2.675 -34.438  1.00  0.00    -0.177 NA
HETATM   12  C   UNL     1     -10.265   3.120 -34.270  1.00  0.00     0.079 A 
HETATM   13  C   UNL     1      -9.938   4.480 -34.768  1.00  0.00     0.075 C 
ENDBRANCH   3   6
ENDBRANCH   1   2
BRANCH   1  14
HETATM   14  N   UNL     1      -5.583   1.385 -33.084  1.00  0.00     0.100 N 
HETATM   15  H   UNL     1      -4.870   1.901 -33.609  1.00  0.00     0.317 HD
BRANCH  14  16
HETATM   16  C   UNL     1      -4.933   0.178 -32.538  1.00  0.00     0.250 C 
HETATM   17  C   UNL     1      -3.419   0.415 -32.490  1.00  0.00     0.048 C 
BRANCH  16  18
HETATM   18  C   UNL     1      -5.232  -1.081 -33.335  1.00  0.00    -0.024 A 
HETATM   19  C   UNL     1      -4.321  -2.153 -33.384  1.00  0.00     0.036 A 
HETATM   20  C   UNL     1      -4.624  -3.308 -34.108  1.00  0.00     0.073 A 
HETATM   21 CL   UNL     1      -3.489  -4.601 -34.154  1.00  0.00    -0.081 Cl
HETATM   22  C   UNL     1      -5.838  -3.404 -34.783  1.00  0.00     0.138 A 
HETATM   23  F   UNL     1      -6.152  -4.506 -35.480  1.00  0.00    -0.204 F 
HETATM   24  C   UNL     1      -6.755  -2.358 -34.743  1.00  0.00     0.044 A 
HETATM   25  C   UNL     1      -6.452  -1.200 -34.021  1.00  0.00     0.012 A 
ENDBRANCH  16  18
ENDBRANCH  14  16
ENDBRANCH   1  14
TORSDOF 5
ENDMDL
MODEL 5
REMARK VINA RESULT:      -7.3      3.707      5.864
REMARK  5 active torsions:
REMARK  status: ('A' for Active; 'I' for Inactive)
REMARK    1  A    between atoms: C_8  and  N_9 
REMARK       I    between atoms: N_9  and  C_10 
REMARK    2  A    between atoms: C_10  and  C_11 
REMARK    3  A    between atoms: C_11  and  N_12 
REMARK    4  A    between atoms: N_12  and  C_13 
REMARK    5  A    between atoms: C_13  and  C_14 
ROOT
HETATM    1  C   UNL     1      -7.681   1.855 -32.066  1.00  0.00     0.372 C 
ENDROOT
BRANCH   1   2
HETATM    2  C   UNL     1      -6.363   2.277 -31.399  1.00  0.00     0.250 C 
HETATM    3  N   UNL     1      -6.021   3.580 -31.694  1.00  0.00    -0.322 N 
HETATM    4  H   UNL     1      -6.688   4.062 -32.291  1.00  0.00     0.169 HD
HETATM    5  O   UNL     1      -5.752   1.496 -30.679  1.00  0.00    -0.271 OA
BRANCH   3   6
HETATM    6  C   UNL     1      -4.892   4.278 -31.312  1.00  0.00     0.085 A 
HETATM    7  C   UNL     1      -4.918   5.174 -30.259  1.00  0.00     0.052 A 
HETATM    8  C   UNL     1      -5.994   5.611 -29.340  1.00  0.00     0.072 C 
HETATM    9  N   UNL     1      -3.654   5.683 -30.169  1.00  0.00    -0.280 N 
HETATM   10  H   UNL     1      -3.300   6.371 -29.513  1.00  0.00     0.189 HD
HETATM   11  N   UNL     1      -2.808   5.193 -31.079  1.00  0.00    -0.177 NA
HETATM   12  C   UNL     1      -3.548   4.326 -31.788  1.00  0.00     0.079 A 
HETATM   13  C   UNL     1      -2.886   3.594 -32.897  1.00  0.00     0.075 C 
ENDBRANCH   3   6
ENDBRANCH   1   2
BRANCH   1  14
HETATM   14  N   UNL     1      -7.615   0.439 -32.514  1.00  0.00     0.100 N 
HETATM   15  H   UNL     1      -8.581   0.127 -32.654  1.00  0.00     0.317 HD
BRANCH  14  16
HETATM   16  C   UNL     1      -6.928   0.321 -33.815  1.00  0.00     0.250 C 
HETATM   17  C   UNL     1      -7.976   0.388 -34.932  1.00  0.00     0.048 C 
BRANCH  16  18
HETATM   18  C   UNL     1      -6.109  -0.952 -33.953  1.00  0.00    -0.024 A 
HETATM   19  C   UNL     1      -6.625  -2.092 -34.597  1.00  0.00     0.036 A 
HETATM   20  C   UNL     1      -5.848  -3.244 -34.728  1.00  0.00     0.073 A 
HETATM   21 CL   UNL     1      -6.508  -4.624 -35.517  1.00  0.00    -0.081 Cl
HETATM   22  C   UNL     1      -4.552  -3.267 -34.223  1.00  0.00     0.138 A 
HETATM   23  F   UNL     1      -3.786  -4.363 -34.342  1.00  0.00    -0.204 F 
HETATM   24  C   UNL     1      -4.020  -2.149 -33.587  1.00  0.00     0.044 A 
HETATM   25  C   UNL     1      -4.796  -0.995 -33.452  1.00  0.00     0.012 A 
ENDBRANCH  16  18
ENDBRANCH  14  16
ENDBRANCH   1  14
TORSDOF 5
ENDMDL
MODEL 6
REMARK VINA RESULT:      -7.3      3.488      5.718
REMARK  5 active torsions:
REMARK  status: ('A' for Active; 'I' for Inactive)
REMARK    1  A    between atoms: C_8  and  N_9 
REMARK       I    between atoms: N_9  and  C_10 
REMARK    2  A    between atoms: C_10  and  C_11 
REMARK    3  A    between atoms: C_11  and  N_12 
REMARK    4  A    between atoms: N_12  and  C_13 
REMARK    5  A    between atoms: C_13  and  C_14 
ROOT
HETATM    1  C   UNL     1      -7.966   2.466 -33.740  1.00  0.00     0.372 C 
ENDROOT
BRANCH   1   2
HETATM    2  C   UNL     1      -6.875   3.515 -33.472  1.00  0.00     0.250 C 
HETATM    3  N   UNL     1      -6.147   3.234 -32.336  1.00  0.00    -0.322 N 
HETATM    4  H   UNL     1      -6.429   2.382 -31.859  1.00  0.00     0.169 HD
HETATM    5  O   UNL     1      -6.715   4.456 -34.241  1.00  0.00    -0.271 OA
BRANCH   3   6
HETATM    6  C   UNL     1      -5.128   3.972 -31.765  1.00  0.00     0.085 A 
HETATM    7  C   UNL     1      -3.900   3.406 -31.476  1.00  0.00     0.052 A 
HETATM    8  C   UNL     1      -3.359   2.039 -31.654  1.00  0.00     0.072 C 
HETATM    9  N   UNL     1      -3.150   4.402 -30.918  1.00  0.00    -0.280 N 
HETATM   10  H   UNL     1      -2.195   4.353 -30.579  1.00  0.00     0.189 HD
HETATM   11  N   UNL     1      -3.791   5.569 -30.819  1.00  0.00    -0.177 NA
HETATM   12  C   UNL     1      -5.005   5.328 -31.338  1.00  0.00     0.079 A 
HETATM   13  C   UNL     1      -5.977   6.449 -31.380  1.00  0.00     0.075 C 
ENDBRANCH   3   6
ENDBRANCH   1   2
BRANCH   1  14
HETATM   14  N   UNL     1      -7.457   1.395 -34.638  1.00  0.00     0.100 N 
HETATM   15  H   UNL     1      -6.435   1.415 -34.573  1.00  0.00     0.317 HD
BRANCH  14  16
HETATM   16  C   UNL     1      -7.896   0.062 -34.181  1.00  0.00     0.250 C 
HETATM   17  C   UNL     1      -8.484   0.196 -32.771  1.00  0.00     0.048 C 
BRANCH  16  18
HETATM   18  C   UNL     1      -6.783  -0.972 -34.178  1.00  0.00    -0.024 A 
HETATM   19  C   UNL     1      -6.966  -2.251 -34.736  1.00  0.00     0.036 A 
HETATM   20  C   UNL     1      -5.923  -3.179 -34.738  1.00  0.00     0.073 A 
HETATM   21 CL   UNL     1      -6.178  -4.737 -35.424  1.00  0.00    -0.081 Cl
HETATM   22  C   UNL     1      -4.691  -2.838 -34.189  1.00  0.00     0.138 A 
HETATM   23  F   UNL     1      -3.673  -3.713 -34.186  1.00  0.00    -0.204 F 
HETATM   24  C   UNL     1      -4.487  -1.577 -33.637  1.00  0.00     0.044 A 
HETATM   25  C   UNL     1      -5.529  -0.647 -33.632  1.00  0.00     0.012 A 
ENDBRANCH  16  18
ENDBRANCH  14  16
ENDBRANCH   1  14
TORSDOF 5
ENDMDL
MODEL 7
REMARK VINA RESULT:      -7.2      1.702      2.121
REMARK  5 active torsions:
REMARK  status: ('A' for Active; 'I' for Inactive)
REMARK    1  A    between atoms: C_8  and  N_9 
REMARK       I    between atoms: N_9  and  C_10 
REMARK    2  A    between atoms: C_10  and  C_11 
REMARK    3  A    between atoms: C_11  and  N_12 
REMARK    4  A    between atoms: N_12  and  C_13 
REMARK    5  A    between atoms: C_13  and  C_14 
ROOT
HETATM    1  C   UNL     1      -8.045   2.396 -33.082  1.00  0.00     0.372 C 
ENDROOT
BRANCH   1   2
HETATM    2  C   UNL     1      -9.340   3.214 -33.210  1.00  0.00     0.250 C 
HETATM    3  N   UNL     1     -10.466   2.450 -32.985  1.00  0.00    -0.322 N 
HETATM    4  H   UNL     1     -10.273   1.477 -32.762  1.00  0.00     0.169 HD
HETATM    5  O   UNL     1      -9.296   4.412 -33.461  1.00  0.00    -0.271 OA
BRANCH   3   6
HETATM    6  C   UNL     1     -11.791   2.833 -33.059  1.00  0.00     0.085 A 
HETATM    7  C   UNL     1     -12.591   2.463 -34.125  1.00  0.00     0.052 A 
HETATM    8  C   UNL     1     -12.332   1.661 -35.343  1.00  0.00     0.072 C 
HETATM    9  N   UNL     1     -13.816   3.016 -33.883  1.00  0.00    -0.280 N 
HETATM   10  H   UNL     1     -14.654   2.958 -34.452  1.00  0.00     0.189 HD
HETATM   11  N   UNL     1     -13.878   3.717 -32.748  1.00  0.00    -0.177 NA
HETATM   12  C   UNL     1     -12.646   3.613 -32.226  1.00  0.00     0.079 A 
HETATM   13  C   UNL     1     -12.381   4.294 -30.933  1.00  0.00     0.075 C 
ENDBRANCH   3   6
ENDBRANCH   1   2
BRANCH   1  14
HETATM   14  N   UNL     1      -8.132   1.144 -33.881  1.00  0.00     0.100 N 
HETATM   15  H   UNL     1      -7.342   1.154 -34.533  1.00  0.00     0.317 HD
BRANCH  14  16
HETATM   16  C   UNL     1      -7.976  -0.048 -33.026  1.00  0.00     0.250 C 
HETATM   17  C   UNL     1      -7.676   0.411 -31.594  1.00  0.00     0.048 C 
BRANCH  16  18
HETATM   18  C   UNL     1      -6.886  -0.995 -33.501  1.00  0.00    -0.024 A 
HETATM   19  C   UNL     1      -7.195  -2.188 -34.181  1.00  0.00     0.036 A 
HETATM   20  C   UNL     1      -6.176  -3.034 -34.624  1.00  0.00     0.073 A 
HETATM   21 CL   UNL     1      -6.584  -4.489 -35.448  1.00  0.00    -0.081 Cl
HETATM   22  C   UNL     1      -4.845  -2.694 -34.399  1.00  0.00     0.138 A 
HETATM   23  F   UNL     1      -3.851  -3.490 -34.822  1.00  0.00    -0.204 F 
HETATM   24  C   UNL     1      -4.519  -1.516 -33.735  1.00  0.00     0.044 A 
HETATM   25  C   UNL     1      -5.536  -0.669 -33.287  1.00  0.00     0.012 A 
ENDBRANCH  16  18
ENDBRANCH  14  16
ENDBRANCH   1  14
TORSDOF 5
ENDMDL
MODEL 8
REMARK VINA RESULT:      -7.2     14.313     16.192
REMARK  5 active torsions:
REMARK  status: ('A' for Active; 'I' for Inactive)
REMARK    1  A    between atoms: C_8  and  N_9 
REMARK       I    between atoms: N_9  and  C_10 
REMARK    2  A    between atoms: C_10  and  C_11 
REMARK    3  A    between atoms: C_11  and  N_12 
REMARK    4  A    between atoms: N_12  and  C_13 
REMARK    5  A    between atoms: C_13  and  C_14 
ROOT
HETATM    1  C   UNL     1      -4.781 -13.501 -36.314  1.00  0.00     0.372 C 
ENDROOT
BRANCH   1   2
HETATM    2  C   UNL     1      -4.227 -13.032 -37.669  1.00  0.00     0.250 C 
HETATM    3  N   UNL     1      -4.354 -13.995 -38.648  1.00  0.00    -0.322 N 
HETATM    4  H   UNL     1      -4.798 -14.854 -38.334  1.00  0.00     0.169 HD
HETATM    5  O   UNL     1      -3.762 -11.905 -37.794  1.00  0.00    -0.271 OA
BRANCH   3   6
HETATM    6  C   UNL     1      -3.929 -13.944 -39.962  1.00  0.00     0.085 A 
HETATM    7  C   UNL     1      -2.599 -14.121 -40.298  1.00  0.00     0.052 A 
HETATM    8  C   UNL     1      -1.386 -14.383 -39.490  1.00  0.00     0.072 C 
HETATM    9  N   UNL     1      -2.537 -13.996 -41.657  1.00  0.00    -0.280 N 
HETATM   10  H   UNL     1      -1.721 -14.063 -42.256  1.00  0.00     0.189 HD
HETATM   11  N   UNL     1      -3.717 -13.749 -42.231  1.00  0.00    -0.177 NA
HETATM   12  C   UNL     1      -4.585 -13.718 -41.208  1.00  0.00     0.079 A 
HETATM   13  C   UNL     1      -6.015 -13.464 -41.518  1.00  0.00     0.075 C 
ENDBRANCH   3   6
ENDBRANCH   1   2
BRANCH   1  14
HETATM   14  N   UNL     1      -6.168 -13.006 -36.112  1.00  0.00     0.100 N 
HETATM   15  H   UNL     1      -6.392 -12.414 -36.918  1.00  0.00     0.317 HD
BRANCH  14  16
HETATM   16  C   UNL     1      -7.137 -14.119 -36.108  1.00  0.00     0.250 C 
HETATM   17  C   UNL     1      -6.386 -15.423 -35.814  1.00  0.00     0.048 C 
BRANCH  16  18
HETATM   18  C   UNL     1      -7.910 -14.253 -37.410  1.00  0.00    -0.024 A 
HETATM   19  C   UNL     1      -8.322 -13.122 -38.139  1.00  0.00     0.036 A 
HETATM   20  C   UNL     1      -9.015 -13.269 -39.343  1.00  0.00     0.073 A 
HETATM   21 CL   UNL     1      -9.510 -11.867 -40.210  1.00  0.00    -0.081 Cl
HETATM   22  C   UNL     1      -9.297 -14.542 -39.829  1.00  0.00     0.138 A 
HETATM   23  F   UNL     1      -9.958 -14.706 -40.985  1.00  0.00    -0.204 F 
HETATM   24  C   UNL     1      -8.895 -15.673 -39.126  1.00  0.00     0.044 A 
HETATM   25  C   UNL     1      -8.203 -15.529 -37.920  1.00  0.00     0.012 A 
ENDBRANCH  16  18
ENDBRANCH  14  16
ENDBRANCH   1  14
TORSDOF 5
ENDMDL
MODEL 9
REMARK VINA RESULT:      -7.1      1.612      2.870
REMARK  5 active torsions:
REMARK  status: ('A' for Active; 'I' for Inactive)
REMARK    1  A    between atoms: C_8  and  N_9 
REMARK       I    between atoms: N_9  and  C_10 
REMARK    2  A    between atoms: C_10  and  C_11 
REMARK    3  A    between atoms: C_11  and  N_12 
REMARK    4  A    between atoms: N_12  and  C_13 
REMARK    5  A    between atoms: C_13  and  C_14 
ROOT
HETATM    1  C   UNL     1      -9.201   2.405 -30.999  1.00  0.00     0.372 C 
ENDROOT
BRANCH   1   2
HETATM    2  C   UNL     1     -10.310   2.879 -31.951  1.00  0.00     0.250 C 
HETATM    3  N   UNL     1     -10.559   1.969 -32.957  1.00  0.00    -0.322 N 
HETATM    4  H   UNL     1      -9.988   1.129 -32.912  1.00  0.00     0.169 HD
HETATM    5  O   UNL     1     -10.880   3.946 -31.760  1.00  0.00    -0.271 OA
BRANCH   3   6
HETATM    6  C   UNL     1     -11.446   2.077 -34.011  1.00  0.00     0.085 A 
HETATM    7  C   UNL     1     -12.454   1.150 -34.204  1.00  0.00     0.052 A 
HETATM    8  C   UNL     1     -12.851  -0.069 -33.463  1.00  0.00     0.072 C 
HETATM    9  N   UNL     1     -13.121   1.552 -35.326  1.00  0.00    -0.280 N 
HETATM   10  H   UNL     1     -13.920   1.112 -35.772  1.00  0.00     0.189 HD
HETATM   11  N   UNL     1     -12.629   2.662 -35.879  1.00  0.00    -0.177 NA
HETATM   12  C   UNL     1     -11.602   3.003 -35.084  1.00  0.00     0.079 A 
HETATM   13  C   UNL     1     -10.831   4.224 -35.431  1.00  0.00     0.075 C 
ENDBRANCH   3   6
ENDBRANCH   1   2
BRANCH   1  14
HETATM   14  N   UNL     1      -8.841   0.988 -31.272  1.00  0.00     0.100 N 
HETATM   15  H   UNL     1      -9.157   0.781 -32.224  1.00  0.00     0.317 HD
BRANCH  14  16
HETATM   16  C   UNL     1      -7.378   0.794 -31.247  1.00  0.00     0.250 C 
HETATM   17  C   UNL     1      -6.699   2.166 -31.337  1.00  0.00     0.048 C 
BRANCH  16  18
HETATM   18  C   UNL     1      -6.869  -0.106 -32.361  1.00  0.00    -0.024 A 
HETATM   19  C   UNL     1      -5.640  -0.784 -32.254  1.00  0.00     0.036 A 
HETATM   20  C   UNL     1      -5.201  -1.620 -33.283  1.00  0.00     0.073 A 
HETATM   21 CL   UNL     1      -3.692  -2.433 -33.126  1.00  0.00    -0.081 Cl
HETATM   22  C   UNL     1      -5.985  -1.789 -34.420  1.00  0.00     0.138 A 
HETATM   23  F   UNL     1      -5.584  -2.592 -35.418  1.00  0.00    -0.204 F 
HETATM   24  C   UNL     1      -7.205  -1.132 -34.543  1.00  0.00     0.044 A 
HETATM   25  C   UNL     1      -7.646  -0.294 -33.517  1.00  0.00     0.012 A 
ENDBRANCH  16  18
ENDBRANCH  14  16
ENDBRANCH   1  14
TORSDOF 5
ENDMDL
MODEL 10
REMARK VINA RESULT:      -7.1      5.828      8.013
REMARK  5 active torsions:
REMARK  status: ('A' for Active; 'I' for Inactive)
REMARK    1  A    between atoms: C_8  and  N_9 
REMARK       I    between atoms: N_9  and  C_10 
REMARK    2  A    between atoms: C_10  and  C_11 
REMARK    3  A    between atoms: C_11  and  N_12 
REMARK    4  A    between atoms: N_12  and  C_13 
REMARK    5  A    between atoms: C_13  and  C_14 
ROOT
HETATM    1  C   UNL     1      -3.589   2.300 -31.450  1.00  0.00     0.372 C 
ENDROOT
BRANCH   1   2
HETATM    2  C   UNL     1      -2.838   3.523 -32.000  1.00  0.00     0.250 C 
HETATM    3  N   UNL     1      -2.450   4.391 -31.002  1.00  0.00    -0.322 N 
HETATM    4  H   UNL     1      -2.707   4.092 -30.065  1.00  0.00     0.169 HD
HETATM    5  O   UNL     1      -2.622   3.632 -33.202  1.00  0.00    -0.271 OA
BRANCH   3   6
HETATM    6  C   UNL     1      -1.802   5.605 -31.125  1.00  0.00     0.085 A 
HETATM    7  C   UNL     1      -2.495   6.769 -31.402  1.00  0.00     0.052 A 
HETATM    8  C   UNL     1      -3.932   7.053 -31.623  1.00  0.00     0.072 C 
HETATM    9  N   UNL     1      -1.556   7.758 -31.466  1.00  0.00    -0.280 N 
HETATM   10  H   UNL     1      -1.696   8.745 -31.654  1.00  0.00     0.189 HD
HETATM   11  N   UNL     1      -0.308   7.333 -31.255  1.00  0.00    -0.177 NA
HETATM   12  C   UNL     1      -0.438   6.014 -31.039  1.00  0.00     0.079 A 
HETATM   13  C   UNL     1       0.792   5.231 -30.763  1.00  0.00     0.075 C 
ENDBRANCH   3   6
ENDBRANCH   1   2
BRANCH   1  14
HETATM   14  N   UNL     1      -3.892   1.334 -32.539  1.00  0.00     0.100 N 
HETATM   15  H   UNL     1      -3.018   0.843 -32.751  1.00  0.00     0.317 HD
BRANCH  14  16
HETATM   16  C   UNL     1      -4.866   0.317 -32.096  1.00  0.00     0.250 C 
HETATM   17  C   UNL     1      -4.962   0.364 -30.567  1.00  0.00     0.048 C 
BRANCH  16  18
HETATM   18  C   UNL     1      -4.516  -1.092 -32.547  1.00  0.00    -0.024 A 
HETATM   19  C   UNL     1      -5.135  -1.680 -33.666  1.00  0.00     0.036 A 
HETATM   20  C   UNL     1      -4.785  -2.969 -34.073  1.00  0.00     0.073 A 
HETATM   21 CL   UNL     1      -5.561  -3.665 -35.442  1.00  0.00    -0.081 Cl
HETATM   22  C   UNL     1      -3.813  -3.677 -33.371  1.00  0.00     0.138 A 
HETATM   23  F   UNL     1      -3.458  -4.915 -33.748  1.00  0.00    -0.204 F 
HETATM   24  C   UNL     1      -3.185  -3.111 -32.266  1.00  0.00     0.044 A 
HETATM   25  C   UNL     1      -3.535  -1.823 -31.855  1.00  0.00     0.012 A 
ENDBRANCH  16  18
ENDBRANCH  14  16
ENDBRANCH   1  14
TORSDOF 5
ENDMDL
