MODEL 1
REMARK VINA RESULT:      -7.2      0.000      0.000
REMARK  11 active torsions:
REMARK  status: ('A' for Active; 'I' for Inactive)
REMARK    1  A    between atoms: C_1  and  C_17 
REMARK    2  A    between atoms: C_1  and  S_18 
REMARK    3  A    between atoms: C_2  and  N_23 
REMARK    4  A    between atoms: C_3  and  C_13 
REMARK    5  A    between atoms: C_6  and  S_18 
REMARK    6  A    between atoms: C_6  and  S_19 
REMARK    7  A    between atoms: C_7  and  C_20 
REMARK    8  A    between atoms: C_7  and  C_21 
REMARK    9  A    between atoms: C_9  and  C_24 
REMARK   10  A    between atoms: C_16  and  C_17 
REMARK   11  A    between atoms: S_19  and  C_20 
ROOT
HETATM    1  C           1      -7.040   2.933 -30.562  0.00  0.00     0.092 C 
HETATM    2  C           1      -7.157   3.132 -32.955  0.00  0.00     0.156 C 
HETATM    3  C           1      -5.776   3.641 -30.968  0.00  0.00     0.127 C 
HETATM    4  C           1      -6.068   4.125 -32.412  0.00  0.00     0.136 C 
HETATM    5  C           1      -6.639   5.507 -32.352  0.00  0.00     0.079 C 
HETATM    6  N           1      -6.998   6.602 -32.216  0.00  0.00    -0.196 NA
HETATM    7  C           1      -4.377   2.893 -30.815  0.00  0.00     0.248 C 
HETATM    8  C           1      -3.508   4.249 -32.635  0.00  0.00     0.105 C 
HETATM    9  N           1      -7.756   2.665 -31.620  0.00  0.00    -0.350 N 
HETATM   10  N           1      -3.200   3.796 -31.289  0.00  0.00    -0.040 N 
HETATM   11  C           1      -2.306   4.595 -33.482  0.00  0.00     0.075 C 
HETATM   12  C           1      -4.755   4.321 -33.151  0.00  0.00     0.036 C 
HETATM   13  H           1      -8.663   2.182 -31.559  0.00  0.00     0.163 HD
HETATM   14  H           1      -2.343   3.198 -31.330  0.00  0.00     0.284 HD
HETATM   15  H           1      -2.993   4.594 -30.656  0.00  0.00     0.284 HD
ENDROOT
BRANCH   2  16
HETATM   16  S           1      -8.510   3.932 -33.881  0.00  0.00    -0.125 SA
BRANCH  16  17
HETATM   17  C           1     -10.004   3.240 -33.113  0.00  0.00     0.077 C 
BRANCH  17  18
HETATM   18  C           1     -10.768   2.419 -34.164  0.00  0.00     0.010 C 
BRANCH  18  19
HETATM   19  C           1     -11.171   1.039 -33.619  0.00  0.00    -0.004 C 
HETATM   20  C           1     -12.676   0.781 -33.768  0.00  0.00     0.005 C 
ENDBRANCH  18  19
ENDBRANCH  17  18
ENDBRANCH  16  17
ENDBRANCH   2  16
BRANCH   2  21
HETATM   21  S           1      -6.365   1.745 -33.831  0.00  0.00    -0.125 SA
BRANCH  21  22
HETATM   22  C           1      -7.614   0.440 -33.621  0.00  0.00     0.077 C 
BRANCH  22  23
HETATM   23  C           1      -7.633  -0.430 -34.889  0.00  0.00     0.010 C 
BRANCH  23  24
HETATM   24  C           1      -6.409  -1.357 -34.958  0.00  0.00    -0.004 C 
HETATM   25  C           1      -6.765  -2.800 -34.575  0.00  0.00     0.005 C 
ENDBRANCH  23  24
ENDBRANCH  22  23
ENDBRANCH  21  22
ENDBRANCH   2  21
BRANCH   3  26
HETATM   26  C           1      -5.375   4.810 -30.139  0.00  0.00     0.105 C 
HETATM   27  N           1      -5.501   5.143 -29.036  0.00  0.00    -0.151 N 
ENDBRANCH   3  26
BRANCH   1  28
HETATM   28  N           1      -7.364   2.629 -29.375  0.00  0.00    -0.388 N 
HETATM   29  H           1      -6.668   2.688 -28.592  0.00  0.00     0.157 HD
HETATM   30  H           1      -8.337   2.303 -29.155  0.00  0.00     0.157 HD
ENDBRANCH   1  28
BRANCH   7  31
HETATM   31  C           1      -4.292   1.475 -31.373  0.00  0.00    -0.026 A 
HETATM   32  C           1      -3.433   1.104 -32.343  0.00  0.00     0.009 A 
HETATM   33  C           1      -3.381  -0.158 -32.795  0.00  0.00     0.001 A 
HETATM   34  C           1      -4.186  -1.096 -32.277  0.00  0.00     0.000 A 
HETATM   35  C           1      -5.035  -0.758 -31.296  0.00  0.00     0.001 A 
HETATM   36  C           1      -5.073   0.508 -30.853  0.00  0.00     0.009 A 
ENDBRANCH   7  31
TORSDOF 11
ENDMDL
MODEL 2
REMARK VINA RESULT:      -6.6      1.915      5.938
REMARK  11 active torsions:
REMARK  status: ('A' for Active; 'I' for Inactive)
REMARK    1  A    between atoms: C_1  and  C_17 
REMARK    2  A    between atoms: C_1  and  S_18 
REMARK    3  A    between atoms: C_2  and  N_23 
REMARK    4  A    between atoms: C_3  and  C_13 
REMARK    5  A    between atoms: C_6  and  S_18 
REMARK    6  A    between atoms: C_6  and  S_19 
REMARK    7  A    between atoms: C_7  and  C_20 
REMARK    8  A    between atoms: C_7  and  C_21 
REMARK    9  A    between atoms: C_9  and  C_24 
REMARK   10  A    between atoms: C_16  and  C_17 
REMARK   11  A    between atoms: S_19  and  C_20 
ROOT
HETATM    1  C           1      -6.951   3.119 -30.388  0.00  0.00     0.092 C 
HETATM    2  C           1      -6.200   3.856 -32.549  0.00  0.00     0.156 C 
HETATM    3  C           1      -6.528   1.870 -31.113  0.00  0.00     0.127 C 
HETATM    4  C           1      -5.675   2.398 -32.296  0.00  0.00     0.136 C 
HETATM    5  C           1      -4.241   2.450 -31.871  0.00  0.00     0.079 C 
HETATM    6  N           1      -3.149   2.382 -31.483  0.00  0.00    -0.196 NA
HETATM    7  C           1      -7.633   0.806 -31.547  0.00  0.00     0.248 C 
HETATM    8  C           1      -6.182   0.116 -33.371  0.00  0.00     0.105 C 
HETATM    9  N           1      -6.778   4.158 -31.158  0.00  0.00    -0.350 N 
HETATM   10  N           1      -6.989  -0.407 -32.281  0.00  0.00    -0.040 N 
HETATM   11  C           1      -5.985  -0.832 -34.530  0.00  0.00     0.075 C 
HETATM   12  C           1      -5.671   1.367 -33.412  0.00  0.00     0.036 C 
HETATM   13  H           1      -7.006   5.113 -30.849  0.00  0.00     0.163 HD
HETATM   14  H           1      -7.766  -0.976 -32.690  0.00  0.00     0.284 HD
HETATM   15  H           1      -6.436  -1.034 -31.664  0.00  0.00     0.284 HD
ENDROOT
BRANCH   2  16
HETATM   16  S           1      -4.885   5.087 -32.844  0.00  0.00    -0.125 SA
BRANCH  16  17
HETATM   17  C           1      -4.561   4.927 -34.625  0.00  0.00     0.077 C 
BRANCH  17  18
HETATM   18  C           1      -3.146   5.449 -34.921  0.00  0.00     0.010 C 
BRANCH  18  19
HETATM   19  C           1      -2.079   4.656 -34.148  0.00  0.00    -0.004 C 
HETATM   20  C           1      -1.190   5.572 -33.295  0.00  0.00     0.005 C 
ENDBRANCH  18  19
ENDBRANCH  17  18
ENDBRANCH  16  17
ENDBRANCH   2  16
BRANCH   2  21
HETATM   21  S           1      -7.514   3.844 -33.810  0.00  0.00    -0.125 SA
BRANCH  21  22
HETATM   22  C           1      -8.307   5.452 -33.504  0.00  0.00     0.077 C 
BRANCH  22  23
HETATM   23  C           1      -9.464   5.625 -34.502  0.00  0.00     0.010 C 
BRANCH  23  24
HETATM   24  C           1     -10.701   6.243 -33.831  0.00  0.00    -0.004 C 
HETATM   25  C           1     -12.001   5.807 -34.520  0.00  0.00     0.005 C 
ENDBRANCH  23  24
ENDBRANCH  22  23
ENDBRANCH  21  22
ENDBRANCH   2  21
BRANCH   3  26
HETATM   26  C           1      -5.722   0.891 -30.335  0.00  0.00     0.105 C 
HETATM   27  N           1      -5.706   0.488 -29.248  0.00  0.00    -0.151 N 
ENDBRANCH   3  26
BRANCH   1  28
HETATM   28  N           1      -7.416   3.163 -29.210  0.00  0.00    -0.388 N 
HETATM   29  H           1      -6.784   3.088 -28.375  0.00  0.00     0.157 HD
HETATM   30  H           1      -8.448   3.266 -29.048  0.00  0.00     0.157 HD
ENDBRANCH   1  28
BRANCH   7  31
HETATM   31  C           1      -8.861   1.348 -32.272  0.00  0.00    -0.026 A 
HETATM   32  C           1      -9.647   2.326 -31.781  0.00  0.00     0.009 A 
HETATM   33  C           1     -10.711   2.785 -32.457  0.00  0.00     0.001 A 
HETATM   34  C           1     -11.015   2.280 -33.661  0.00  0.00     0.000 A 
HETATM   35  C           1     -10.238   1.320 -34.181  0.00  0.00     0.001 A 
HETATM   36  C           1      -9.176   0.874 -33.493  0.00  0.00     0.009 A 
ENDBRANCH   7  31
TORSDOF 11
ENDMDL
MODEL 3
REMARK VINA RESULT:      -6.3      1.757      2.517
REMARK  11 active torsions:
REMARK  status: ('A' for Active; 'I' for Inactive)
REMARK    1  A    between atoms: C_1  and  C_17 
REMARK    2  A    between atoms: C_1  and  S_18 
REMARK    3  A    between atoms: C_2  and  N_23 
REMARK    4  A    between atoms: C_3  and  C_13 
REMARK    5  A    between atoms: C_6  and  S_18 
REMARK    6  A    between atoms: C_6  and  S_19 
REMARK    7  A    between atoms: C_7  and  C_20 
REMARK    8  A    between atoms: C_7  and  C_21 
REMARK    9  A    between atoms: C_9  and  C_24 
REMARK   10  A    between atoms: C_16  and  C_17 
REMARK   11  A    between atoms: S_19  and  C_20 
ROOT
HETATM    1  C           1      -9.367   2.923 -31.195  0.00  0.00     0.092 C 
HETATM    2  C           1      -9.149   2.457 -33.543  0.00  0.00     0.156 C 
HETATM    3  C           1      -8.310   3.869 -31.694  0.00  0.00     0.127 C 
HETATM    4  C           1      -8.492   3.849 -33.234  0.00  0.00     0.136 C 
HETATM    5  C           1      -9.435   4.944 -33.623  0.00  0.00     0.079 C 
HETATM    6  N           1     -10.109   5.864 -33.840  0.00  0.00    -0.196 NA
HETATM    7  C           1      -6.799   3.671 -31.227  0.00  0.00     0.248 C 
HETATM    8  C           1      -6.072   4.723 -33.293  0.00  0.00     0.105 C 
HETATM    9  N           1      -9.797   2.180 -32.178  0.00  0.00    -0.350 N 
HETATM   10  N           1      -5.869   4.751 -31.855  0.00  0.00    -0.040 N 
HETATM   11  C           1      -4.899   5.207 -34.113  0.00  0.00     0.075 C 
HETATM   12  C           1      -7.188   4.260 -33.899  0.00  0.00     0.036 C 
HETATM   13  H           1     -10.526   1.465 -32.047  0.00  0.00     0.163 HD
HETATM   14  H           1      -4.881   4.469 -31.656  0.00  0.00     0.284 HD
HETATM   15  H           1      -6.003   5.707 -31.469  0.00  0.00     0.284 HD
ENDROOT
BRANCH   2  16
HETATM   16  S           1     -10.507   2.520 -34.760  0.00  0.00    -0.125 SA
BRANCH  16  17
HETATM   17  C           1     -11.987   2.235 -33.745  0.00  0.00     0.077 C 
BRANCH  17  18
HETATM   18  C           1     -12.501   0.809 -34.008  0.00  0.00     0.010 C 
BRANCH  18  19
HETATM   19  C           1     -14.020   0.793 -34.245  0.00  0.00    -0.004 C 
HETATM   20  C           1     -14.786   1.474 -33.103  0.00  0.00     0.005 C 
ENDBRANCH  18  19
ENDBRANCH  17  18
ENDBRANCH  16  17
ENDBRANCH   2  16
BRANCH   2  21
HETATM   21  S           1      -7.864   1.221 -33.915  0.00  0.00    -0.125 SA
BRANCH  21  22
HETATM   22  C           1      -8.694  -0.313 -33.398  0.00  0.00     0.077 C 
BRANCH  22  23
HETATM   23  C           1      -7.828  -1.508 -33.828  0.00  0.00     0.010 C 
BRANCH  23  24
HETATM   24  C           1      -6.717  -1.081 -34.800  0.00  0.00    -0.004 C 
HETATM   25  C           1      -5.574  -2.104 -34.844  0.00  0.00     0.005 C 
ENDBRANCH  23  24
ENDBRANCH  22  23
ENDBRANCH  21  22
ENDBRANCH   2  21
BRANCH   3  26
HETATM   26  C           1      -8.398   5.275 -31.216  0.00  0.00     0.105 C 
HETATM   27  N           1      -8.651   5.811 -30.220  0.00  0.00    -0.151 N 
ENDBRANCH   3  26
BRANCH   1  28
HETATM   28  N           1      -9.778   2.844 -29.998  0.00  0.00    -0.388 N 
HETATM   29  H           1      -9.552   3.593 -29.299  0.00  0.00     0.157 HD
HETATM   30  H           1     -10.345   2.019 -29.682  0.00  0.00     0.157 HD
ENDBRANCH   1  28
BRANCH   7  31
HETATM   31  C           1      -6.224   2.262 -31.338  0.00  0.00    -0.026 A 
HETATM   32  C           1      -6.717   1.200 -30.671  0.00  0.00     0.009 A 
HETATM   33  C           1      -6.190  -0.026 -30.808  0.00  0.00     0.001 A 
HETATM   34  C           1      -5.154  -0.229 -31.634  0.00  0.00     0.000 A 
HETATM   35  C           1      -4.658   0.807 -32.325  0.00  0.00     0.001 A 
HETATM   36  C           1      -5.198   2.027 -32.178  0.00  0.00     0.009 A 
ENDBRANCH   7  31
TORSDOF 11
ENDMDL
MODEL 4
REMARK VINA RESULT:      -6.2     16.298     19.104
REMARK  11 active torsions:
REMARK  status: ('A' for Active; 'I' for Inactive)
REMARK    1  A    between atoms: C_1  and  C_17 
REMARK    2  A    between atoms: C_1  and  S_18 
REMARK    3  A    between atoms: C_2  and  N_23 
REMARK    4  A    between atoms: C_3  and  C_13 
REMARK    5  A    between atoms: C_6  and  S_18 
REMARK    6  A    between atoms: C_6  and  S_19 
REMARK    7  A    between atoms: C_7  and  C_20 
REMARK    8  A    between atoms: C_7  and  C_21 
REMARK    9  A    between atoms: C_9  and  C_24 
REMARK   10  A    between atoms: C_16  and  C_17 
REMARK   11  A    between atoms: S_19  and  C_20 
ROOT
HETATM    1  C           1      -3.477 -14.215 -40.122  0.00  0.00     0.092 C 
HETATM    2  C           1      -4.705 -15.998 -39.077  0.00  0.00     0.156 C 
HETATM    3  C           1      -3.593 -13.826 -38.673  0.00  0.00     0.127 C 
HETATM    4  C           1      -3.994 -15.147 -37.965  0.00  0.00     0.136 C 
HETATM    5  C           1      -2.751 -15.850 -37.516  0.00  0.00     0.079 C 
HETATM    6  N           1      -1.743 -16.283 -37.136  0.00  0.00    -0.196 NA
HETATM    7  C           1      -4.504 -12.582 -38.267  0.00  0.00     0.248 C 
HETATM    8  C           1      -4.847 -13.606 -36.090  0.00  0.00     0.105 C 
HETATM    9  N           1      -4.072 -15.359 -40.322  0.00  0.00    -0.350 N 
HETATM   10  N           1      -4.487 -12.351 -36.727  0.00  0.00    -0.040 N 
HETATM   11  C           1      -5.472 -13.470 -34.721  0.00  0.00     0.075 C 
HETATM   12  C           1      -4.701 -14.823 -36.660  0.00  0.00     0.036 C 
HETATM   13  H           1      -4.107 -15.803 -41.250  0.00  0.00     0.163 HD
HETATM   14  H           1      -5.228 -11.645 -36.508  0.00  0.00     0.284 HD
HETATM   15  H           1      -3.587 -11.981 -36.361  0.00  0.00     0.284 HD
ENDROOT
BRANCH   2  16
HETATM   16  S           1      -4.226 -17.759 -39.096  0.00  0.00    -0.125 SA
BRANCH  16  17
HETATM   17  C           1      -3.358 -17.935 -40.683  0.00  0.00     0.077 C 
BRANCH  17  18
HETATM   18  C           1      -1.846 -18.016 -40.414  0.00  0.00     0.010 C 
BRANCH  18  19
HETATM   19  C           1      -1.069 -16.978 -41.241  0.00  0.00    -0.004 C 
HETATM   20  C           1      -0.296 -15.997 -40.349  0.00  0.00     0.005 C 
ENDBRANCH  18  19
ENDBRANCH  17  18
ENDBRANCH  16  17
ENDBRANCH   2  16
BRANCH   2  21
HETATM   21  S           1      -6.503 -15.709 -39.040  0.00  0.00    -0.125 SA
BRANCH  21  22
HETATM   22  C           1      -6.938 -15.988 -40.783  0.00  0.00     0.077 C 
BRANCH  22  23
HETATM   23  C           1      -8.469 -16.061 -40.901  0.00  0.00     0.010 C 
BRANCH  23  24
HETATM   24  C           1      -9.143 -16.073 -39.520  0.00  0.00    -0.004 C 
HETATM   25  C           1     -10.007 -17.326 -39.318  0.00  0.00     0.005 C 
ENDBRANCH  23  24
ENDBRANCH  22  23
ENDBRANCH  21  22
ENDBRANCH   2  21
BRANCH   3  26
HETATM   26  C           1      -2.365 -13.287 -38.030  0.00  0.00     0.105 C 
HETATM   27  N           1      -1.542 -12.517 -38.300  0.00  0.00    -0.151 N 
ENDBRANCH   3  26
BRANCH   1  28
HETATM   28  N           1      -2.900 -13.534 -41.021  0.00  0.00    -0.388 N 
HETATM   29  H           1      -3.390 -13.297 -41.918  0.00  0.00     0.157 HD
HETATM   30  H           1      -1.912 -13.203 -40.888  0.00  0.00     0.157 HD
ENDBRANCH   1  28
BRANCH   7  31
HETATM   31  C           1      -5.912 -12.542 -38.853  0.00  0.00    -0.026 A 
HETATM   32  C           1      -7.033 -12.610 -38.109  0.00  0.00     0.009 A 
HETATM   33  C           1      -8.254 -12.556 -38.664  0.00  0.00     0.001 A 
HETATM   34  C           1      -8.388 -12.419 -39.991  0.00  0.00     0.000 A 
HETATM   35  C           1      -7.288 -12.328 -40.751  0.00  0.00     0.001 A 
HETATM   36  C           1      -6.075 -12.381 -40.181  0.00  0.00     0.009 A 
ENDBRANCH   7  31
TORSDOF 11
ENDMDL
MODEL 5
REMARK VINA RESULT:      -6.1     16.710     19.140
REMARK  11 active torsions:
REMARK  status: ('A' for Active; 'I' for Inactive)
REMARK    1  A    between atoms: C_1  and  C_17 
REMARK    2  A    between atoms: C_1  and  S_18 
REMARK    3  A    between atoms: C_2  and  N_23 
REMARK    4  A    between atoms: C_3  and  C_13 
REMARK    5  A    between atoms: C_6  and  S_18 
REMARK    6  A    between atoms: C_6  and  S_19 
REMARK    7  A    between atoms: C_7  and  C_20 
REMARK    8  A    between atoms: C_7  and  C_21 
REMARK    9  A    between atoms: C_9  and  C_24 
REMARK   10  A    between atoms: C_16  and  C_17 
REMARK   11  A    between atoms: S_19  and  C_20 
ROOT
HETATM    1  C           1      -4.674 -13.010 -39.449  0.00  0.00     0.092 C 
HETATM    2  C           1      -5.260 -15.184 -40.290  0.00  0.00     0.156 C 
HETATM    3  C           1      -5.145 -13.789 -38.251  0.00  0.00     0.127 C 
HETATM    4  C           1      -5.106 -15.265 -38.729  0.00  0.00     0.136 C 
HETATM    5  C           1      -3.770 -15.847 -38.389  0.00  0.00     0.079 C 
HETATM    6  N           1      -2.742 -16.237 -38.017  0.00  0.00    -0.196 NA
HETATM    7  C           1      -6.514 -13.384 -37.542  0.00  0.00     0.248 C 
HETATM    8  C           1      -6.756 -15.685 -36.800  0.00  0.00     0.105 C 
HETATM    9  N           1      -4.746 -13.755 -40.518  0.00  0.00    -0.350 N 
HETATM   10  N           1      -6.817 -14.312 -36.329  0.00  0.00    -0.040 N 
HETATM   11  C           1      -7.581 -16.670 -36.004  0.00  0.00     0.075 C 
HETATM   12  C           1      -6.069 -16.089 -37.892  0.00  0.00     0.036 C 
HETATM   13  H           1      -4.468 -13.409 -41.446  0.00  0.00     0.163 HD
HETATM   14  H           1      -7.795 -14.113 -36.018  0.00  0.00     0.284 HD
HETATM   15  H           1      -6.193 -14.161 -35.511  0.00  0.00     0.284 HD
ENDROOT
BRANCH   2  16
HETATM   16  S           1      -4.144 -16.293 -41.213  0.00  0.00    -0.125 SA
BRANCH  16  17
HETATM   17  C           1      -2.978 -15.143 -42.003  0.00  0.00     0.077 C 
BRANCH  17  18
HETATM   18  C           1      -1.583 -15.355 -41.393  0.00  0.00     0.010 C 
BRANCH  18  19
HETATM   19  C           1      -1.084 -14.090 -40.674  0.00  0.00    -0.004 C 
HETATM   20  C           1       0.024 -14.408 -39.660  0.00  0.00     0.005 C 
ENDBRANCH  18  19
ENDBRANCH  17  18
ENDBRANCH  16  17
ENDBRANCH   2  16
BRANCH   2  21
HETATM   21  S           1      -7.015 -15.326 -40.758  0.00  0.00    -0.125 SA
BRANCH  21  22
HETATM   22  C           1      -7.061 -17.013 -41.435  0.00  0.00     0.077 C 
BRANCH  22  23
HETATM   23  C           1      -8.016 -17.860 -40.577  0.00  0.00     0.010 C 
BRANCH  23  24
HETATM   24  C           1      -9.216 -17.036 -40.086  0.00  0.00    -0.004 C 
HETATM   25  C           1      -9.788 -17.588 -38.773  0.00  0.00     0.005 C 
ENDBRANCH  23  24
ENDBRANCH  22  23
ENDBRANCH  21  22
ENDBRANCH   2  21
BRANCH   3  26
HETATM   26  C           1      -4.329 -13.662 -37.013  0.00  0.00     0.105 C 
HETATM   27  N           1      -4.127 -12.842 -36.220  0.00  0.00    -0.151 N 
ENDBRANCH   3  26
BRANCH   1  28
HETATM   28  N           1      -4.277 -11.807 -39.433  0.00  0.00    -0.388 N 
HETATM   29  H           1      -4.908 -11.024 -39.733  0.00  0.00     0.157 HD
HETATM   30  H           1      -3.300 -11.572 -39.127  0.00  0.00     0.157 HD
ENDBRANCH   1  28
BRANCH   7  31
HETATM   31  C           1      -7.725 -13.186 -38.449  0.00  0.00    -0.026 A 
HETATM   32  C           1      -8.903 -13.816 -38.270  0.00  0.00     0.009 A 
HETATM   33  C           1      -9.948 -13.603 -39.083  0.00  0.00     0.001 A 
HETATM   34  C           1      -9.848 -12.736 -40.101  0.00  0.00     0.000 A 
HETATM   35  C           1      -8.694 -12.081 -40.288  0.00  0.00     0.001 A 
HETATM   36  C           1      -7.658 -12.304 -39.464  0.00  0.00     0.009 A 
ENDBRANCH   7  31
TORSDOF 11
ENDMDL
MODEL 6
REMARK VINA RESULT:      -6.1      1.869      5.195
REMARK  11 active torsions:
REMARK  status: ('A' for Active; 'I' for Inactive)
REMARK    1  A    between atoms: C_1  and  C_17 
REMARK    2  A    between atoms: C_1  and  S_18 
REMARK    3  A    between atoms: C_2  and  N_23 
REMARK    4  A    between atoms: C_3  and  C_13 
REMARK    5  A    between atoms: C_6  and  S_18 
REMARK    6  A    between atoms: C_6  and  S_19 
REMARK    7  A    between atoms: C_7  and  C_20 
REMARK    8  A    between atoms: C_7  and  C_21 
REMARK    9  A    between atoms: C_9  and  C_24 
REMARK   10  A    between atoms: C_16  and  C_17 
REMARK   11  A    between atoms: S_19  and  C_20 
ROOT
HETATM    1  C           1      -5.505   3.697 -33.782  0.00  0.00     0.092 C 
HETATM    2  C           1      -6.302   2.053 -32.221  0.00  0.00     0.156 C 
HETATM    3  C           1      -5.273   4.292 -32.420  0.00  0.00     0.127 C 
HETATM    4  C           1      -5.389   3.080 -31.460  0.00  0.00     0.136 C 
HETATM    5  C           1      -4.028   2.488 -31.263  0.00  0.00     0.079 C 
HETATM    6  N           1      -2.931   2.146 -31.105  0.00  0.00    -0.196 NA
HETATM    7  C           1      -6.131   5.555 -31.961  0.00  0.00     0.248 C 
HETATM    8  C           1      -5.837   4.856 -29.653  0.00  0.00     0.105 C 
HETATM    9  N           1      -6.053   2.519 -33.663  0.00  0.00    -0.350 N 
HETATM   10  N           1      -5.736   6.013 -30.526  0.00  0.00    -0.040 N 
HETATM   11  C           1      -6.099   5.175 -28.199  0.00  0.00     0.075 C 
HETATM   12  C           1      -5.760   3.573 -30.072  0.00  0.00     0.036 C 
HETATM   13  H           1      -6.293   1.941 -34.480  0.00  0.00     0.163 HD
HETATM   14  H           1      -6.442   6.721 -30.218  0.00  0.00     0.284 HD
HETATM   15  H           1      -4.800   6.459 -30.463  0.00  0.00     0.284 HD
ENDROOT
BRANCH   2  16
HETATM   16  S           1      -5.727   0.323 -32.126  0.00  0.00    -0.125 SA
BRANCH  16  17
HETATM   17  C           1      -5.744  -0.214 -33.862  0.00  0.00     0.077 C 
BRANCH  17  18
HETATM   18  C           1      -6.585  -1.496 -33.977  0.00  0.00     0.010 C 
BRANCH  18  19
HETATM   19  C           1      -5.899  -2.542 -34.871  0.00  0.00    -0.004 C 
HETATM   20  C           1      -6.670  -3.870 -34.892  0.00  0.00     0.005 C 
ENDBRANCH  18  19
ENDBRANCH  17  18
ENDBRANCH  16  17
ENDBRANCH   2  16
BRANCH   2  21
HETATM   21  S           1      -8.046   2.291 -31.752  0.00  0.00    -0.125 SA
BRANCH  21  22
HETATM   22  C           1      -8.624   0.569 -31.669  0.00  0.00     0.077 C 
BRANCH  22  23
HETATM   23  C           1      -9.630   0.334 -32.808  0.00  0.00     0.010 C 
BRANCH  23  24
HETATM   24  C           1      -9.555   1.445 -33.867  0.00  0.00    -0.004 C 
HETATM   25  C           1     -10.950   1.876 -34.342  0.00  0.00     0.005 C 
ENDBRANCH  23  24
ENDBRANCH  22  23
ENDBRANCH  21  22
ENDBRANCH   2  21
BRANCH   3  26
HETATM   26  C           1      -3.959   4.957 -32.201  0.00  0.00     0.105 C 
HETATM   27  N           1      -3.267   5.669 -32.798  0.00  0.00    -0.151 N 
ENDBRANCH   3  26
BRANCH   1  28
HETATM   28  N           1      -5.223   4.253 -34.885  0.00  0.00    -0.388 N 
HETATM   29  H           1      -5.424   3.777 -35.799  0.00  0.00     0.157 HD
HETATM   30  H           1      -4.773   5.202 -34.905  0.00  0.00     0.157 HD
ENDBRANCH   1  28
BRANCH   7  31
HETATM   31  C           1      -7.641   5.467 -32.157  0.00  0.00    -0.026 A 
HETATM   32  C           1      -8.531   5.539 -31.148  0.00  0.00     0.009 A 
HETATM   33  C           1      -9.853   5.471 -31.365  0.00  0.00     0.001 A 
HETATM   34  C           1     -10.328   5.340 -32.612  0.00  0.00     0.000 A 
HETATM   35  C           1      -9.464   5.287 -33.636  0.00  0.00     0.001 A 
HETATM   36  C           1      -8.145   5.359 -33.402  0.00  0.00     0.009 A 
ENDBRANCH   7  31
TORSDOF 11
ENDMDL
MODEL 7
REMARK VINA RESULT:      -6.1      2.333      5.837
REMARK  11 active torsions:
REMARK  status: ('A' for Active; 'I' for Inactive)
REMARK    1  A    between atoms: C_1  and  C_17 
REMARK    2  A    between atoms: C_1  and  S_18 
REMARK    3  A    between atoms: C_2  and  N_23 
REMARK    4  A    between atoms: C_3  and  C_13 
REMARK    5  A    between atoms: C_6  and  S_18 
REMARK    6  A    between atoms: C_6  and  S_19 
REMARK    7  A    between atoms: C_7  and  C_20 
REMARK    8  A    between atoms: C_7  and  C_21 
REMARK    9  A    between atoms: C_9  and  C_24 
REMARK   10  A    between atoms: C_16  and  C_17 
REMARK   11  A    between atoms: S_19  and  C_20 
ROOT
HETATM    1  C           1      -9.447   2.529 -31.500  0.00  0.00     0.092 C 
HETATM    2  C           1      -8.318   2.349 -33.615  0.00  0.00     0.156 C 
HETATM    3  C           1     -10.082   3.568 -32.383  0.00  0.00     0.127 C 
HETATM    4  C           1      -9.653   3.152 -33.814  0.00  0.00     0.136 C 
HETATM    5  C           1     -10.699   2.248 -34.389  0.00  0.00     0.079 C 
HETATM    6  N           1     -11.594   1.623 -34.781  0.00  0.00    -0.196 NA
HETATM    7  C           1      -9.846   5.113 -32.069  0.00  0.00     0.248 C 
HETATM    8  C           1     -10.181   5.595 -34.427  0.00  0.00     0.105 C 
HETATM    9  N           1      -8.514   1.897 -32.160  0.00  0.00    -0.350 N 
HETATM   10  N           1     -10.587   6.017 -33.097  0.00  0.00    -0.040 N 
HETATM   11  C           1     -10.273   6.663 -35.491  0.00  0.00     0.075 C 
HETATM   12  C           1      -9.702   4.366 -34.726  0.00  0.00     0.036 C 
HETATM   13  H           1      -7.957   1.144 -31.735  0.00  0.00     0.163 HD
HETATM   14  H           1     -10.257   6.998 -32.947  0.00  0.00     0.284 HD
HETATM   15  H           1     -11.622   6.018 -32.996  0.00  0.00     0.284 HD
ENDROOT
BRANCH   2  16
HETATM   16  S           1      -8.198   0.830 -34.619  0.00  0.00    -0.125 SA
BRANCH  16  17
HETATM   17  C           1      -7.926  -0.468 -33.377  0.00  0.00     0.077 C 
BRANCH  17  18
HETATM   18  C           1      -6.469  -0.950 -33.473  0.00  0.00     0.010 C 
BRANCH  18  19
HETATM   19  C           1      -6.222  -1.742 -34.768  0.00  0.00    -0.004 C 
HETATM   20  C           1      -6.794  -3.164 -34.687  0.00  0.00     0.005 C 
ENDBRANCH  18  19
ENDBRANCH  17  18
ENDBRANCH  16  17
ENDBRANCH   2  16
BRANCH   2  21
HETATM   21  S           1      -6.884   3.462 -33.762  0.00  0.00    -0.125 SA
BRANCH  21  22
HETATM   22  C           1      -5.686   2.635 -32.671  0.00  0.00     0.077 C 
BRANCH  22  23
HETATM   23  C           1      -4.310   3.292 -32.866  0.00  0.00     0.010 C 
BRANCH  23  24
HETATM   24  C           1      -3.469   3.236 -31.581  0.00  0.00    -0.004 C 
HETATM   25  C           1      -2.375   4.313 -31.568  0.00  0.00     0.005 C 
ENDBRANCH  23  24
ENDBRANCH  22  23
ENDBRANCH  21  22
ENDBRANCH   2  21
BRANCH   3  26
HETATM   26  C           1     -11.566   3.664 -32.333  0.00  0.00     0.105 C 
HETATM   27  N           1     -12.369   3.872 -31.524  0.00  0.00    -0.151 N 
ENDBRANCH   3  26
BRANCH   1  28
HETATM   28  N           1      -9.757   2.301 -30.292  0.00  0.00    -0.388 N 
HETATM   29  H           1      -9.044   1.945 -29.609  0.00  0.00     0.157 HD
HETATM   30  H           1     -10.739   2.457 -29.955  0.00  0.00     0.157 HD
ENDBRANCH   1  28
BRANCH   7  31
HETATM   31  C           1      -8.404   5.552 -31.830  0.00  0.00    -0.026 A 
HETATM   32  C           1      -7.747   6.420 -32.623  0.00  0.00     0.009 A 
HETATM   33  C           1      -6.483   6.791 -32.370  0.00  0.00     0.001 A 
HETATM   34  C           1      -5.838   6.309 -31.297  0.00  0.00     0.000 A 
HETATM   35  C           1      -6.477   5.460 -30.480  0.00  0.00     0.001 A 
HETATM   36  C           1      -7.743   5.101 -30.747  0.00  0.00     0.009 A 
ENDBRANCH   7  31
TORSDOF 11
ENDMDL
MODEL 8
REMARK VINA RESULT:      -6.0      2.000      5.376
REMARK  11 active torsions:
REMARK  status: ('A' for Active; 'I' for Inactive)
REMARK    1  A    between atoms: C_1  and  C_17 
REMARK    2  A    between atoms: C_1  and  S_18 
REMARK    3  A    between atoms: C_2  and  N_23 
REMARK    4  A    between atoms: C_3  and  C_13 
REMARK    5  A    between atoms: C_6  and  S_18 
REMARK    6  A    between atoms: C_6  and  S_19 
REMARK    7  A    between atoms: C_7  and  C_20 
REMARK    8  A    between atoms: C_7  and  C_21 
REMARK    9  A    between atoms: C_9  and  C_24 
REMARK   10  A    between atoms: C_16  and  C_17 
REMARK   11  A    between atoms: S_19  and  C_20 
ROOT
HETATM    1  C           1      -5.796   2.984 -34.042  0.00  0.00     0.092 C 
HETATM    2  C           1      -6.943   0.880 -33.856  0.00  0.00     0.156 C 
HETATM    3  C           1      -5.404   2.432 -32.699  0.00  0.00     0.127 C 
HETATM    4  C           1      -5.796   0.934 -32.784  0.00  0.00     0.136 C 
HETATM    5  C           1      -4.617   0.154 -33.276  0.00  0.00     0.079 C 
HETATM    6  N           1      -3.632  -0.378 -33.583  0.00  0.00    -0.196 NA
HETATM    7  C           1      -5.923   3.153 -31.375  0.00  0.00     0.248 C 
HETATM    8  C           1      -5.770   1.025 -30.213  0.00  0.00     0.105 C 
HETATM    9  N           1      -6.612   2.158 -34.639  0.00  0.00    -0.350 N 
HETATM   10  N           1      -5.406   2.426 -30.098  0.00  0.00    -0.040 N 
HETATM   11  C           1      -5.923   0.296 -28.898  0.00  0.00     0.075 C 
HETATM   12  C           1      -6.014   0.391 -31.382  0.00  0.00     0.036 C 
HETATM   13  H           1      -6.999   2.350 -35.574  0.00  0.00     0.163 HD
HETATM   14  H           1      -5.914   2.833 -29.279  0.00  0.00     0.284 HD
HETATM   15  H           1      -4.388   2.544 -29.923  0.00  0.00     0.284 HD
ENDROOT
BRANCH   2  16
HETATM   16  S           1      -6.804  -0.505 -35.036  0.00  0.00    -0.125 SA
BRANCH  16  17
HETATM   17  C           1      -7.179  -1.960 -34.013  0.00  0.00     0.077 C 
BRANCH  17  18
HETATM   18  C           1      -6.766  -3.226 -34.782  0.00  0.00     0.010 C 
BRANCH  18  19
HETATM   19  C           1      -5.251  -3.471 -34.694  0.00  0.00    -0.004 C 
HETATM   20  C           1      -4.925  -4.941 -34.394  0.00  0.00     0.005 C 
ENDBRANCH  18  19
ENDBRANCH  17  18
ENDBRANCH  16  17
ENDBRANCH   2  16
BRANCH   2  21
HETATM   21  S           1      -8.569   1.016 -33.047  0.00  0.00    -0.125 SA
BRANCH  21  22
HETATM   22  C           1      -9.595   1.616 -34.423  0.00  0.00     0.077 C 
BRANCH  22  23
HETATM   23  C           1     -11.051   1.722 -33.939  0.00  0.00     0.010 C 
BRANCH  23  24
HETATM   24  C           1     -11.578   0.372 -33.428  0.00  0.00    -0.004 C 
HETATM   25  C           1     -13.069   0.188 -33.738  0.00  0.00     0.005 C 
ENDBRANCH  23  24
ENDBRANCH  22  23
ENDBRANCH  21  22
ENDBRANCH   2  21
BRANCH   3  26
HETATM   26  C           1      -3.966   2.535 -32.333  0.00  0.00     0.105 C 
HETATM   27  N           1      -3.128   3.329 -32.429  0.00  0.00    -0.151 N 
ENDBRANCH   3  26
BRANCH   1  28
HETATM   28  N           1      -5.406   4.089 -34.526  0.00  0.00    -0.388 N 
HETATM   29  H           1      -5.501   4.981 -33.982  0.00  0.00     0.157 HD
HETATM   30  H           1      -4.987   4.132 -35.488  0.00  0.00     0.157 HD
ENDBRANCH   1  28
BRANCH   7  31
HETATM   31  C           1      -7.412   3.475 -31.307  0.00  0.00    -0.026 A 
HETATM   32  C           1      -8.040   4.293 -32.175  0.00  0.00     0.009 A 
HETATM   33  C           1      -9.356   4.540 -32.089  0.00  0.00     0.001 A 
HETATM   34  C           1     -10.091   3.959 -31.129  0.00  0.00     0.000 A 
HETATM   35  C           1      -9.495   3.125 -30.266  0.00  0.00     0.001 A 
HETATM   36  C           1      -8.178   2.887 -30.367  0.00  0.00     0.009 A 
ENDBRANCH   7  31
TORSDOF 11
ENDMDL
MODEL 9
REMARK VINA RESULT:      -5.9      1.854      3.258
REMARK  11 active torsions:
REMARK  status: ('A' for Active; 'I' for Inactive)
REMARK    1  A    between atoms: C_1  and  C_17 
REMARK    2  A    between atoms: C_1  and  S_18 
REMARK    3  A    between atoms: C_2  and  N_23 
REMARK    4  A    between atoms: C_3  and  C_13 
REMARK    5  A    between atoms: C_6  and  S_18 
REMARK    6  A    between atoms: C_6  and  S_19 
REMARK    7  A    between atoms: C_7  and  C_20 
REMARK    8  A    between atoms: C_7  and  C_21 
REMARK    9  A    between atoms: C_9  and  C_24 
REMARK   10  A    between atoms: C_16  and  C_17 
REMARK   11  A    between atoms: S_19  and  C_20 
ROOT
HETATM    1  C           1      -7.732   3.265 -30.569  0.00  0.00     0.092 C 
HETATM    2  C           1      -8.765   4.389 -32.425  0.00  0.00     0.156 C 
HETATM    3  C           1      -6.594   3.788 -31.404  0.00  0.00     0.127 C 
HETATM    4  C           1      -7.264   4.841 -32.325  0.00  0.00     0.136 C 
HETATM    5  C           1      -7.189   6.180 -31.662  0.00  0.00     0.079 C 
HETATM    6  N           1      -7.015   7.188 -31.112  0.00  0.00    -0.196 NA
HETATM    7  C           1      -5.658   2.760 -32.183  0.00  0.00     0.248 C 
HETATM    8  C           1      -5.200   4.494 -33.823  0.00  0.00     0.105 C 
HETATM    9  N           1      -8.870   3.584 -31.122  0.00  0.00    -0.350 N 
HETATM   10  N           1      -4.548   3.504 -32.983  0.00  0.00    -0.040 N 
HETATM   11  C           1      -4.437   4.875 -35.069  0.00  0.00     0.075 C 
HETATM   12  C           1      -6.420   5.023 -33.575  0.00  0.00     0.036 C 
HETATM   13  H           1      -9.774   3.319 -30.707  0.00  0.00     0.163 HD
HETATM   14  H           1      -4.084   2.800 -33.603  0.00  0.00     0.284 HD
HETATM   15  H           1      -3.810   3.932 -32.390  0.00  0.00     0.284 HD
ENDROOT
BRANCH   2  16
HETATM   16  S           1      -9.970   5.753 -32.294  0.00  0.00    -0.125 SA
BRANCH  16  17
HETATM   17  C           1     -10.669   5.527 -30.631  0.00  0.00     0.077 C 
BRANCH  17  18
HETATM   18  C           1     -12.197   5.396 -30.749  0.00  0.00     0.010 C 
BRANCH  18  19
HETATM   19  C           1     -12.595   4.452 -31.896  0.00  0.00    -0.004 C 
HETATM   20  C           1     -13.848   3.633 -31.556  0.00  0.00     0.005 C 
ENDBRANCH  18  19
ENDBRANCH  17  18
ENDBRANCH  16  17
ENDBRANCH   2  16
BRANCH   2  21
HETATM   21  S           1      -9.004   3.313 -33.876  0.00  0.00    -0.125 SA
BRANCH  21  22
HETATM   22  C           1     -10.239   2.139 -33.240  0.00  0.00     0.077 C 
BRANCH  22  23
HETATM   23  C           1     -10.913   1.442 -34.433  0.00  0.00     0.010 C 
BRANCH  23  24
HETATM   24  C           1     -12.344   1.959 -34.655  0.00  0.00    -0.004 C 
HETATM   25  C           1     -12.408   2.988 -35.791  0.00  0.00     0.005 C 
ENDBRANCH  23  24
ENDBRANCH  22  23
ENDBRANCH  21  22
ENDBRANCH   2  21
BRANCH   3  26
HETATM   26  C           1      -5.474   4.433 -30.668  0.00  0.00     0.105 C 
HETATM   27  N           1      -5.157   4.562 -29.561  0.00  0.00    -0.151 N 
ENDBRANCH   3  26
BRANCH   1  28
HETATM   28  N           1      -7.611   2.603 -29.495  0.00  0.00    -0.388 N 
HETATM   29  H           1      -6.677   2.240 -29.185  0.00  0.00     0.157 HD
HETATM   30  H           1      -8.451   2.399 -28.898  0.00  0.00     0.157 HD
ENDBRANCH   1  28
BRANCH   7  31
HETATM   31  C           1      -6.357   1.683 -33.008  0.00  0.00    -0.026 A 
HETATM   32  C           1      -6.354   1.654 -34.355  0.00  0.00     0.009 A 
HETATM   33  C           1      -6.970   0.681 -35.042  0.00  0.00     0.001 A 
HETATM   34  C           1      -7.603  -0.308 -34.394  0.00  0.00     0.000 A 
HETATM   35  C           1      -7.604  -0.313 -33.054  0.00  0.00     0.001 A 
HETATM   36  C           1      -6.980   0.666 -32.381  0.00  0.00     0.009 A 
ENDBRANCH   7  31
TORSDOF 11
ENDMDL
MODEL 10
REMARK VINA RESULT:      -5.8     16.310     18.933
REMARK  11 active torsions:
REMARK  status: ('A' for Active; 'I' for Inactive)
REMARK    1  A    between atoms: C_1  and  C_17 
REMARK    2  A    between atoms: C_1  and  S_18 
REMARK    3  A    between atoms: C_2  and  N_23 
REMARK    4  A    between atoms: C_3  and  C_13 
REMARK    5  A    between atoms: C_6  and  S_18 
REMARK    6  A    between atoms: C_6  and  S_19 
REMARK    7  A    between atoms: C_7  and  C_20 
REMARK    8  A    between atoms: C_7  and  C_21 
REMARK    9  A    between atoms: C_9  and  C_24 
REMARK   10  A    between atoms: C_16  and  C_17 
REMARK   11  A    between atoms: S_19  and  C_20 
ROOT
HETATM    1  C           1      -4.590 -13.542 -36.257  0.00  0.00     0.092 C 
HETATM    2  C           1      -3.972 -15.414 -37.633  0.00  0.00     0.156 C 
HETATM    3  C           1      -5.845 -14.356 -36.413  0.00  0.00     0.127 C 
HETATM    4  C           1      -5.336 -15.730 -36.922  0.00  0.00     0.136 C 
HETATM    5  C           1      -5.090 -16.620 -35.744  0.00  0.00     0.079 C 
HETATM    6  N           1      -5.005 -17.263 -34.781  0.00  0.00    -0.196 NA
HETATM    7  C           1      -7.058 -13.769 -37.266  0.00  0.00     0.248 C 
HETATM    8  C           1      -7.747 -16.046 -37.764  0.00  0.00     0.105 C 
HETATM    9  N           1      -3.611 -14.108 -36.910  0.00  0.00    -0.350 N 
HETATM   10  N           1      -8.255 -14.765 -37.303  0.00  0.00    -0.040 N 
HETATM   11  C           1      -8.768 -16.931 -38.439  0.00  0.00     0.075 C 
HETATM   12  C           1      -6.456 -16.437 -37.666  0.00  0.00     0.036 C 
HETATM   13  H           1      -2.663 -13.708 -36.930  0.00  0.00     0.163 HD
HETATM   14  H           1      -8.938 -14.407 -38.009  0.00  0.00     0.284 HD
HETATM   15  H           1      -8.760 -14.858 -36.399  0.00  0.00     0.284 HD
ENDROOT
BRANCH   2  16
HETATM   16  S           1      -2.637 -16.601 -37.260  0.00  0.00    -0.125 SA
BRANCH  16  17
HETATM   17  C           1      -1.292 -15.536 -36.661  0.00  0.00     0.077 C 
BRANCH  17  18
HETATM   18  C           1      -0.030 -15.814 -37.494  0.00  0.00     0.010 C 
BRANCH  18  19
HETATM   19  C           1       0.422 -14.565 -38.269  0.00  0.00    -0.004 C 
HETATM   20  C           1       1.884 -14.671 -38.722  0.00  0.00     0.005 C 
ENDBRANCH  18  19
ENDBRANCH  17  18
ENDBRANCH  16  17
ENDBRANCH   2  16
BRANCH   2  21
HETATM   21  S           1      -4.240 -15.120 -39.411  0.00  0.00    -0.125 SA
BRANCH  21  22
HETATM   22  C           1      -2.804 -14.079 -39.813  0.00  0.00     0.077 C 
BRANCH  22  23
HETATM   23  C           1      -2.427 -14.311 -41.286  0.00  0.00     0.010 C 
BRANCH  23  24
HETATM   24  C           1      -3.672 -14.533 -42.160  0.00  0.00    -0.004 C 
HETATM   25  C           1      -3.366 -15.426 -43.370  0.00  0.00     0.005 C 
ENDBRANCH  23  24
ENDBRANCH  22  23
ENDBRANCH  21  22
ENDBRANCH   2  21
BRANCH   3  26
HETATM   26  C           1      -6.657 -14.567 -35.184  0.00  0.00     0.105 C 
HETATM   27  N           1      -7.019 -13.920 -34.294  0.00  0.00    -0.151 N 
ENDBRANCH   3  26
BRANCH   1  28
HETATM   28  N           1      -4.491 -12.462 -35.602  0.00  0.00    -0.388 N 
HETATM   29  H           1      -4.970 -11.586 -35.925  0.00  0.00     0.157 HD
HETATM   30  H           1      -3.917 -12.422 -34.723  0.00  0.00     0.157 HD
ENDBRANCH   1  28
BRANCH   7  31
HETATM   31  C           1      -6.720 -13.204 -38.642  0.00  0.00    -0.026 A 
HETATM   32  C           1      -7.315 -13.606 -39.781  0.00  0.00     0.009 A 
HETATM   33  C           1      -6.998 -13.072 -40.971  0.00  0.00     0.001 A 
HETATM   34  C           1      -6.076 -12.102 -41.052  0.00  0.00     0.000 A 
HETATM   35  C           1      -5.484 -11.669 -39.931  0.00  0.00     0.001 A 
HETATM   36  C           1      -5.815 -12.212 -38.748  0.00  0.00     0.009 A 
ENDBRANCH   7  31
TORSDOF 11
ENDMDL
