MODEL 1
REMARK VINA RESULT:      -9.8      0.000      0.000
REMARK  3 active torsions:
REMARK  status: ('A' for Active; 'I' for Inactive)
REMARK    1  A    between atoms: C_3  and  N_4 
REMARK       I    between atoms: N_4  and  C_5 
REMARK    2  A    between atoms: C_5  and  C_6 
REMARK    3  A    between atoms: N_20  and  C_21 
ROOT
HETATM    1  N   UNL     1      -3.517   2.585 -33.112  1.00  0.00    -0.305 N 
HETATM    2  C   UNL     1      -4.615   2.023 -32.492  1.00  0.00     0.257 C 
HETATM    3  O   UNL     1      -5.266   2.468 -31.555  1.00  0.00    -0.267 OA
HETATM    4  H   UNL     1      -3.162   2.166 -33.955  1.00  0.00     0.170 HD
ENDROOT
BRANCH   2   5
HETATM    5  C   UNL     1      -5.069   0.736 -33.093  1.00  0.00     0.034 A 
HETATM    6  C   UNL     1      -4.221  -0.376 -32.998  1.00  0.00     0.049 A 
HETATM    7  C   UNL     1      -4.620  -1.596 -33.540  1.00  0.00     0.063 A 
HETATM    8  C   UNL     1      -5.857  -1.711 -34.184  1.00  0.00     0.062 A 
HETATM    9  N   UNL     1      -3.782  -2.708 -33.437  1.00  0.00    -0.317 N 
HETATM   10  N   UNL     1      -6.252  -2.939 -34.717  1.00  0.00    -0.317 N 
HETATM   11  C   UNL     1      -6.694  -0.603 -34.303  1.00  0.00     0.033 A 
HETATM   12  C   UNL     1      -5.480  -4.078 -34.645  1.00  0.00     0.314 A 
HETATM   13  H   UNL     1      -7.142  -3.043 -35.186  1.00  0.00     0.169 HD
HETATM   14  O   UNL     1      -5.864  -5.142 -35.115  1.00  0.00    -0.262 OA
HETATM   15  C   UNL     1      -4.107  -3.950 -33.940  1.00  0.00     0.314 A 
HETATM   16  O   UNL     1      -3.352  -4.907 -33.834  1.00  0.00    -0.262 OA
HETATM   17  C   UNL     1      -6.299   0.624 -33.762  1.00  0.00     0.019 A 
HETATM   18  H   UNL     1      -2.881  -2.639 -32.984  1.00  0.00     0.169 HD
ENDBRANCH   2   5
BRANCH   1  19
HETATM   19  C   UNL     1      -2.883   3.747 -32.713  1.00  0.00     0.158 A 
HETATM   20  C   UNL     1      -2.847   4.940 -33.479  1.00  0.00     0.003 A 
HETATM   21  C   UNL     1      -3.459   5.238 -34.795  1.00  0.00     0.054 C 
HETATM   22  C   UNL     1      -2.128   5.823 -32.699  1.00  0.00     0.129 A 
HETATM   23  N   UNL     1      -1.728   5.153 -31.565  1.00  0.00    -0.241 N 
HETATM   24  N   UNL     1      -2.234   3.896 -31.564  1.00  0.00    -0.149 NA
BRANCH  23  25
HETATM   25  C   UNL     1      -0.964   5.609 -30.449  1.00  0.00     0.079 A 
HETATM   26  C   UNL     1      -1.280   6.728 -29.662  1.00  0.00     0.062 A 
HETATM   27 CL   UNL     1      -2.529   7.875 -30.001  1.00  0.00    -0.082 Cl
HETATM   28  C   UNL     1      -0.480   7.047 -28.551  1.00  0.00     0.026 A 
HETATM   29  C   UNL     1       0.637   6.281 -28.223  1.00  0.00     0.002 A 
HETATM   30  C   UNL     1       0.979   5.194 -29.015  1.00  0.00     0.002 A 
HETATM   31  C   UNL     1       0.192   4.865 -30.121  1.00  0.00     0.033 A 
ENDBRANCH  23  25
ENDBRANCH   1  19
TORSDOF 3
ENDMDL
MODEL 2
REMARK VINA RESULT:      -9.4      1.407      2.255
REMARK  3 active torsions:
REMARK  status: ('A' for Active; 'I' for Inactive)
REMARK    1  A    between atoms: C_3  and  N_4 
REMARK       I    between atoms: N_4  and  C_5 
REMARK    2  A    between atoms: C_5  and  C_6 
REMARK    3  A    between atoms: N_20  and  C_21 
ROOT
HETATM    1  N   UNL     1      -3.122   2.380 -32.492  1.00  0.00    -0.305 N 
HETATM    2  C   UNL     1      -4.261   1.657 -32.200  1.00  0.00     0.257 C 
HETATM    3  O   UNL     1      -5.328   2.069 -31.763  1.00  0.00    -0.267 OA
HETATM    4  H   UNL     1      -2.361   1.925 -32.968  1.00  0.00     0.170 HD
ENDROOT
BRANCH   2   5
HETATM    5  C   UNL     1      -4.164   0.202 -32.513  1.00  0.00     0.034 A 
HETATM    6  C   UNL     1      -5.137  -0.364 -33.347  1.00  0.00     0.049 A 
HETATM    7  C   UNL     1      -5.069  -1.718 -33.667  1.00  0.00     0.063 A 
HETATM    8  C   UNL     1      -4.041  -2.514 -33.151  1.00  0.00     0.062 A 
HETATM    9  N   UNL     1      -6.032  -2.282 -34.507  1.00  0.00    -0.317 N 
HETATM   10  N   UNL     1      -3.975  -3.868 -33.483  1.00  0.00    -0.317 N 
HETATM   11  C   UNL     1      -3.083  -1.963 -32.301  1.00  0.00     0.033 A 
HETATM   12  C   UNL     1      -4.885  -4.489 -34.311  1.00  0.00     0.314 A 
HETATM   13  H   UNL     1      -3.240  -4.461 -33.121  1.00  0.00     0.169 HD
HETATM   14  O   UNL     1      -4.791  -5.677 -34.589  1.00  0.00    -0.262 OA
HETATM   15  C   UNL     1      -6.029  -3.610 -34.875  1.00  0.00     0.314 A 
HETATM   16  O   UNL     1      -6.886  -4.076 -35.615  1.00  0.00    -0.262 OA
HETATM   17  C   UNL     1      -3.147  -0.604 -31.976  1.00  0.00     0.019 A 
HETATM   18  H   UNL     1      -6.787  -1.723 -34.879  1.00  0.00     0.169 HD
ENDBRANCH   2   5
BRANCH   1  19
HETATM   19  C   UNL     1      -2.950   3.730 -32.250  1.00  0.00     0.158 A 
HETATM   20  C   UNL     1      -3.566   4.762 -33.003  1.00  0.00     0.003 A 
HETATM   21  C   UNL     1      -4.508   4.667 -34.143  1.00  0.00     0.054 C 
HETATM   22  C   UNL     1      -3.123   5.926 -32.410  1.00  0.00     0.129 A 
HETATM   23  N   UNL     1      -2.256   5.580 -31.398  1.00  0.00    -0.241 N 
HETATM   24  N   UNL     1      -2.192   4.232 -31.281  1.00  0.00    -0.149 NA
BRANCH  23  25
HETATM   25  C   UNL     1      -1.529   6.405 -30.489  1.00  0.00     0.079 A 
HETATM   26  C   UNL     1      -0.140   6.349 -30.287  1.00  0.00     0.062 A 
HETATM   27 CL   UNL     1       0.924   5.154 -30.944  1.00  0.00    -0.082 Cl
HETATM   28  C   UNL     1       0.472   7.254 -29.403  1.00  0.00     0.026 A 
HETATM   29  C   UNL     1      -0.277   8.200 -28.706  1.00  0.00     0.002 A 
HETATM   30  C   UNL     1      -1.654   8.241 -28.871  1.00  0.00     0.002 A 
HETATM   31  C   UNL     1      -2.275   7.348 -29.747  1.00  0.00     0.033 A 
ENDBRANCH  23  25
ENDBRANCH   1  19
TORSDOF 3
ENDMDL
MODEL 3
REMARK VINA RESULT:      -9.2      1.678      1.958
REMARK  3 active torsions:
REMARK  status: ('A' for Active; 'I' for Inactive)
REMARK    1  A    between atoms: C_3  and  N_4 
REMARK       I    between atoms: N_4  and  C_5 
REMARK    2  A    between atoms: C_5  and  C_6 
REMARK    3  A    between atoms: N_20  and  C_21 
ROOT
HETATM    1  N   UNL     1      -4.910   2.624 -32.470  1.00  0.00    -0.305 N 
HETATM    2  C   UNL     1      -5.342   1.554 -31.712  1.00  0.00     0.257 C 
HETATM    3  O   UNL     1      -5.496   1.498 -30.499  1.00  0.00    -0.267 OA
HETATM    4  H   UNL     1      -4.956   2.564 -33.473  1.00  0.00     0.170 HD
ENDROOT
BRANCH   2   5
HETATM    5  C   UNL     1      -5.704   0.344 -32.506  1.00  0.00     0.034 A 
HETATM    6  C   UNL     1      -4.745  -0.668 -32.647  1.00  0.00     0.049 A 
HETATM    7  C   UNL     1      -5.056  -1.816 -33.374  1.00  0.00     0.063 A 
HETATM    8  C   UNL     1      -6.314  -1.956 -33.968  1.00  0.00     0.062 A 
HETATM    9  N   UNL     1      -4.105  -2.830 -33.507  1.00  0.00    -0.317 N 
HETATM   10  N   UNL     1      -6.619  -3.113 -34.687  1.00  0.00    -0.317 N 
HETATM   11  C   UNL     1      -7.264  -0.942 -33.852  1.00  0.00     0.033 A 
HETATM   12  C   UNL     1      -5.734  -4.156 -34.853  1.00  0.00     0.314 A 
HETATM   13  H   UNL     1      -7.523  -3.233 -35.124  1.00  0.00     0.169 HD
HETATM   14  O   UNL     1      -6.040  -5.160 -35.482  1.00  0.00    -0.262 OA
HETATM   15  C   UNL     1      -4.337  -3.998 -34.203  1.00  0.00     0.314 A 
HETATM   16  O   UNL     1      -3.485  -4.870 -34.301  1.00  0.00    -0.262 OA
HETATM   17  C   UNL     1      -6.958   0.212 -33.125  1.00  0.00     0.019 A 
HETATM   18  H   UNL     1      -3.187  -2.740 -33.093  1.00  0.00     0.169 HD
ENDBRANCH   2   5
BRANCH   1  19
HETATM   19  C   UNL     1      -4.476   3.835 -31.965  1.00  0.00     0.158 A 
HETATM   20  C   UNL     1      -5.331   4.919 -31.644  1.00  0.00     0.003 A 
HETATM   21  C   UNL     1      -6.807   5.018 -31.731  1.00  0.00     0.054 C 
HETATM   22  C   UNL     1      -4.478   5.897 -31.173  1.00  0.00     0.129 A 
HETATM   23  N   UNL     1      -3.192   5.415 -31.268  1.00  0.00    -0.241 N 
HETATM   24  N   UNL     1      -3.206   4.136 -31.713  1.00  0.00    -0.149 NA
BRANCH  23  25
HETATM   25  C   UNL     1      -1.953   6.029 -30.919  1.00  0.00     0.079 A 
HETATM   26  C   UNL     1      -0.879   6.231 -31.801  1.00  0.00     0.062 A 
HETATM   27 CL   UNL     1      -0.768   5.606 -33.410  1.00  0.00    -0.082 Cl
HETATM   28  C   UNL     1       0.274   6.900 -31.354  1.00  0.00     0.026 A 
HETATM   29  C   UNL     1       0.380   7.355 -30.040  1.00  0.00     0.002 A 
HETATM   30  C   UNL     1      -0.661   7.130 -29.151  1.00  0.00     0.002 A 
HETATM   31  C   UNL     1      -1.813   6.468 -29.582  1.00  0.00     0.033 A 
ENDBRANCH  23  25
ENDBRANCH   1  19
TORSDOF 3
ENDMDL
MODEL 4
REMARK VINA RESULT:      -9.1      3.719      9.697
REMARK  3 active torsions:
REMARK  status: ('A' for Active; 'I' for Inactive)
REMARK    1  A    between atoms: C_3  and  N_4 
REMARK       I    between atoms: N_4  and  C_5 
REMARK    2  A    between atoms: C_5  and  C_6 
REMARK    3  A    between atoms: N_20  and  C_21 
ROOT
HETATM    1  N   UNL     1      -4.627   2.136 -32.816  1.00  0.00    -0.305 N 
HETATM    2  C   UNL     1      -3.559   2.458 -32.004  1.00  0.00     0.257 C 
HETATM    3  O   UNL     1      -2.923   1.720 -31.261  1.00  0.00    -0.267 OA
HETATM    4  H   UNL     1      -4.969   2.820 -33.470  1.00  0.00     0.170 HD
ENDROOT
BRANCH   2   5
HETATM    5  C   UNL     1      -3.117   3.879 -32.101  1.00  0.00     0.034 A 
HETATM    6  C   UNL     1      -3.677   4.809 -31.215  1.00  0.00     0.049 A 
HETATM    7  C   UNL     1      -3.279   6.144 -31.273  1.00  0.00     0.063 A 
HETATM    8  C   UNL     1      -2.332   6.557 -32.216  1.00  0.00     0.062 A 
HETATM    9  N   UNL     1      -3.827   7.070 -30.383  1.00  0.00    -0.317 N 
HETATM   10  N   UNL     1      -1.932   7.893 -32.261  1.00  0.00    -0.317 N 
HETATM   11  C   UNL     1      -1.789   5.641 -33.116  1.00  0.00     0.033 A 
HETATM   12  C   UNL     1      -2.425   8.859 -31.411  1.00  0.00     0.314 A 
HETATM   13  H   UNL     1      -1.249   8.212 -32.935  1.00  0.00     0.169 HD
HETATM   14  O   UNL     1      -2.044  10.021 -31.473  1.00  0.00    -0.262 OA
HETATM   15  C   UNL     1      -3.480   8.404 -30.372  1.00  0.00     0.314 A 
HETATM   16  O   UNL     1      -3.977   9.193 -29.580  1.00  0.00    -0.262 OA
HETATM   17  C   UNL     1      -2.186   4.301 -33.063  1.00  0.00     0.019 A 
HETATM   18  H   UNL     1      -4.521   6.790 -29.703  1.00  0.00     0.169 HD
ENDBRANCH   2   5
BRANCH   1  19
HETATM   19  C   UNL     1      -5.245   0.901 -32.870  1.00  0.00     0.158 A 
HETATM   20  C   UNL     1      -6.525   0.624 -32.325  1.00  0.00     0.003 A 
HETATM   21  C   UNL     1      -7.474   1.527 -31.633  1.00  0.00     0.054 C 
HETATM   22  C   UNL     1      -6.737  -0.708 -32.616  1.00  0.00     0.129 A 
HETATM   23  N   UNL     1      -5.613  -1.184 -33.252  1.00  0.00    -0.241 N 
HETATM   24  N   UNL     1      -4.724  -0.179 -33.441  1.00  0.00    -0.149 NA
BRANCH  23  25
HETATM   25  C   UNL     1      -5.324  -2.488 -33.754  1.00  0.00     0.079 A 
HETATM   26  C   UNL     1      -4.292  -3.319 -33.288  1.00  0.00     0.062 A 
HETATM   27 CL   UNL     1      -3.059  -2.858 -32.166  1.00  0.00    -0.082 Cl
HETATM   28  C   UNL     1      -4.140  -4.609 -33.825  1.00  0.00     0.026 A 
HETATM   29  C   UNL     1      -4.988  -5.078 -34.828  1.00  0.00     0.002 A 
HETATM   30  C   UNL     1      -5.988  -4.252 -35.320  1.00  0.00     0.002 A 
HETATM   31  C   UNL     1      -6.151  -2.968 -34.795  1.00  0.00     0.033 A 
ENDBRANCH  23  25
ENDBRANCH   1  19
TORSDOF 3
ENDMDL
MODEL 5
REMARK VINA RESULT:      -9.0      5.804      8.887
REMARK  3 active torsions:
REMARK  status: ('A' for Active; 'I' for Inactive)
REMARK    1  A    between atoms: C_3  and  N_4 
REMARK       I    between atoms: N_4  and  C_5 
REMARK    2  A    between atoms: C_5  and  C_6 
REMARK    3  A    between atoms: N_20  and  C_21 
ROOT
HETATM    1  N   UNL     1      -9.016   1.128 -33.370  1.00  0.00    -0.305 N 
HETATM    2  C   UNL     1      -7.948   1.196 -32.499  1.00  0.00     0.257 C 
HETATM    3  O   UNL     1      -7.789   1.958 -31.553  1.00  0.00    -0.267 OA
HETATM    4  H   UNL     1      -9.068   0.364 -34.023  1.00  0.00     0.170 HD
ENDROOT
BRANCH   2   5
HETATM    5  C   UNL     1      -6.894   0.168 -32.735  1.00  0.00     0.034 A 
HETATM    6  C   UNL     1      -7.228  -0.962 -33.493  1.00  0.00     0.049 A 
HETATM    7  C   UNL     1      -6.262  -1.936 -33.741  1.00  0.00     0.063 A 
HETATM    8  C   UNL     1      -4.968  -1.794 -33.229  1.00  0.00     0.062 A 
HETATM    9  N   UNL     1      -6.590  -3.059 -34.505  1.00  0.00    -0.317 N 
HETATM   10  N   UNL     1      -4.006  -2.770 -33.490  1.00  0.00    -0.317 N 
HETATM   11  C   UNL     1      -4.636  -0.683 -32.455  1.00  0.00     0.033 A 
HETATM   12  C   UNL     1      -4.256  -3.898 -34.241  1.00  0.00     0.314 A 
HETATM   13  H   UNL     1      -3.064  -2.685 -33.129  1.00  0.00     0.169 HD
HETATM   14  O   UNL     1      -3.384  -4.729 -34.457  1.00  0.00    -0.262 OA
HETATM   15  C   UNL     1      -5.691  -4.061 -34.800  1.00  0.00     0.314 A 
HETATM   16  O   UNL     1      -6.007  -5.033 -35.474  1.00  0.00    -0.262 OA
HETATM   17  C   UNL     1      -5.601   0.297 -32.202  1.00  0.00     0.019 A 
HETATM   18  H   UNL     1      -7.524  -3.182 -34.872  1.00  0.00     0.169 HD
ENDBRANCH   2   5
BRANCH   1  19
HETATM   19  C   UNL     1     -10.091   1.997 -33.384  1.00  0.00     0.158 A 
HETATM   20  C   UNL     1     -10.003   3.372 -33.722  1.00  0.00     0.003 A 
HETATM   21  C   UNL     1      -8.827   4.168 -34.145  1.00  0.00     0.054 C 
HETATM   22  C   UNL     1     -11.299   3.832 -33.611  1.00  0.00     0.129 A 
HETATM   23  N   UNL     1     -12.083   2.785 -33.182  1.00  0.00    -0.241 N 
HETATM   24  N   UNL     1     -11.341   1.656 -33.089  1.00  0.00    -0.149 NA
BRANCH  23  25
HETATM   25  C   UNL     1     -13.483   2.736 -32.911  1.00  0.00     0.079 A 
HETATM   26  C   UNL     1     -14.334   1.677 -33.265  1.00  0.00     0.062 A 
HETATM   27 CL   UNL     1     -13.901   0.330 -34.262  1.00  0.00    -0.082 Cl
HETATM   28  C   UNL     1     -15.689   1.717 -32.894  1.00  0.00     0.026 A 
HETATM   29  C   UNL     1     -16.212   2.801 -32.191  1.00  0.00     0.002 A 
HETATM   30  C   UNL     1     -15.388   3.869 -31.867  1.00  0.00     0.002 A 
HETATM   31  C   UNL     1     -14.040   3.842 -32.228  1.00  0.00     0.033 A 
ENDBRANCH  23  25
ENDBRANCH   1  19
TORSDOF 3
ENDMDL
MODEL 6
REMARK VINA RESULT:      -8.9      4.591     10.578
REMARK  3 active torsions:
REMARK  status: ('A' for Active; 'I' for Inactive)
REMARK    1  A    between atoms: C_3  and  N_4 
REMARK       I    between atoms: N_4  and  C_5 
REMARK    2  A    between atoms: C_5  and  C_6 
REMARK    3  A    between atoms: N_20  and  C_21 
ROOT
HETATM    1  N   UNL     1      -1.706   5.714 -30.675  1.00  0.00    -0.305 N 
HETATM    2  C   UNL     1      -0.515   5.652 -29.980  1.00  0.00     0.257 C 
HETATM    3  O   UNL     1       0.360   4.798 -30.051  1.00  0.00    -0.267 OA
HETATM    4  H   UNL     1      -2.270   6.545 -30.607  1.00  0.00     0.170 HD
ENDROOT
BRANCH   2   5
HETATM    5  C   UNL     1      -0.271   6.810 -29.072  1.00  0.00     0.034 A 
HETATM    6  C   UNL     1       0.700   6.673 -28.070  1.00  0.00     0.049 A 
HETATM    7  C   UNL     1       0.959   7.740 -27.211  1.00  0.00     0.063 A 
HETATM    8  C   UNL     1       0.250   8.938 -27.340  1.00  0.00     0.062 A 
HETATM    9  N   UNL     1       1.934   7.610 -26.219  1.00  0.00    -0.317 N 
HETATM   10  N   UNL     1       0.522  10.004 -26.481  1.00  0.00    -0.317 N 
HETATM   11  C   UNL     1      -0.734   9.072 -28.318  1.00  0.00     0.033 A 
HETATM   12  C   UNL     1       1.474   9.949 -25.486  1.00  0.00     0.314 A 
HETATM   13  H   UNL     1       0.020  10.879 -26.558  1.00  0.00     0.169 HD
HETATM   14  O   UNL     1       1.693  10.908 -24.757  1.00  0.00    -0.262 OA
HETATM   15  C   UNL     1       2.254   8.620 -25.337  1.00  0.00     0.314 A 
HETATM   16  O   UNL     1       3.114   8.477 -24.479  1.00  0.00    -0.262 OA
HETATM   17  C   UNL     1      -0.999   8.005 -29.183  1.00  0.00     0.019 A 
HETATM   18  H   UNL     1       2.448   6.747 -26.107  1.00  0.00     0.169 HD
ENDBRANCH   2   5
BRANCH   1  19
HETATM   19  C   UNL     1      -2.178   4.744 -31.538  1.00  0.00     0.158 A 
HETATM   20  C   UNL     1      -2.017   4.781 -32.946  1.00  0.00     0.003 A 
HETATM   21  C   UNL     1      -1.325   5.781 -33.793  1.00  0.00     0.054 C 
HETATM   22  C   UNL     1      -2.626   3.624 -33.389  1.00  0.00     0.129 A 
HETATM   23  N   UNL     1      -3.156   2.982 -32.292  1.00  0.00    -0.241 N 
HETATM   24  N   UNL     1      -2.837   3.654 -31.160  1.00  0.00    -0.149 NA
BRANCH  23  25
HETATM   25  C   UNL     1      -3.882   1.757 -32.207  1.00  0.00     0.079 A 
HETATM   26  C   UNL     1      -5.127   1.516 -32.813  1.00  0.00     0.062 A 
HETATM   27 CL   UNL     1      -6.106   2.703 -33.604  1.00  0.00    -0.082 Cl
HETATM   28  C   UNL     1      -5.721   0.247 -32.705  1.00  0.00     0.026 A 
HETATM   29  C   UNL     1      -5.104  -0.779 -31.991  1.00  0.00     0.002 A 
HETATM   30  C   UNL     1      -3.892  -0.542 -31.360  1.00  0.00     0.002 A 
HETATM   31  C   UNL     1      -3.290   0.714 -31.460  1.00  0.00     0.033 A 
ENDBRANCH  23  25
ENDBRANCH   1  19
TORSDOF 3
ENDMDL
MODEL 7
REMARK VINA RESULT:      -8.8      4.786      6.194
REMARK  3 active torsions:
REMARK  status: ('A' for Active; 'I' for Inactive)
REMARK    1  A    between atoms: C_3  and  N_4 
REMARK       I    between atoms: N_4  and  C_5 
REMARK    2  A    between atoms: C_5  and  C_6 
REMARK    3  A    between atoms: N_20  and  C_21 
ROOT
HETATM    1  N   UNL     1      -7.481   3.510 -32.743  1.00  0.00    -0.305 N 
HETATM    2  C   UNL     1      -7.817   2.400 -33.492  1.00  0.00     0.257 C 
HETATM    3  O   UNL     1      -7.090   1.487 -33.860  1.00  0.00    -0.267 OA
HETATM    4  H   UNL     1      -8.213   4.113 -32.406  1.00  0.00     0.170 HD
ENDROOT
BRANCH   2   5
HETATM    5  C   UNL     1      -9.265   2.307 -33.840  1.00  0.00     0.034 A 
HETATM    6  C   UNL     1      -9.972   1.168 -33.434  1.00  0.00     0.049 A 
HETATM    7  C   UNL     1     -11.328   1.054 -33.734  1.00  0.00     0.063 A 
HETATM    8  C   UNL     1     -11.980   2.066 -34.446  1.00  0.00     0.062 A 
HETATM    9  N   UNL     1     -12.038  -0.075 -33.320  1.00  0.00    -0.317 N 
HETATM   10  N   UNL     1     -13.340   1.948 -34.735  1.00  0.00    -0.317 N 
HETATM   11  C   UNL     1     -11.276   3.191 -34.874  1.00  0.00     0.033 A 
HETATM   12  C   UNL     1     -14.104   0.868 -34.352  1.00  0.00     0.314 A 
HETATM   13  H   UNL     1     -13.830   2.669 -35.249  1.00  0.00     0.169 HD
HETATM   14  O   UNL     1     -15.298   0.802 -34.615  1.00  0.00    -0.262 OA
HETATM   15  C   UNL     1     -13.381  -0.258 -33.572  1.00  0.00     0.314 A 
HETATM   16  O   UNL     1     -13.977  -1.258 -33.195  1.00  0.00    -0.262 OA
HETATM   17  C   UNL     1      -9.915   3.310 -34.576  1.00  0.00     0.019 A 
HETATM   18  H   UNL     1     -11.579  -0.820 -32.814  1.00  0.00     0.169 HD
ENDBRANCH   2   5
BRANCH   1  19
HETATM   19  C   UNL     1      -6.203   3.843 -32.338  1.00  0.00     0.158 A 
HETATM   20  C   UNL     1      -5.588   3.359 -31.155  1.00  0.00     0.003 A 
HETATM   21  C   UNL     1      -6.109   2.417 -30.136  1.00  0.00     0.054 C 
HETATM   22  C   UNL     1      -4.335   3.935 -31.162  1.00  0.00     0.129 A 
HETATM   23  N   UNL     1      -4.253   4.750 -32.269  1.00  0.00    -0.241 N 
HETATM   24  N   UNL     1      -5.386   4.651 -33.005  1.00  0.00    -0.149 NA
BRANCH  23  25
HETATM   25  C   UNL     1      -3.178   5.567 -32.731  1.00  0.00     0.079 A 
HETATM   26  C   UNL     1      -2.961   6.901 -32.350  1.00  0.00     0.062 A 
HETATM   27 CL   UNL     1      -4.048   7.869 -31.414  1.00  0.00    -0.082 Cl
HETATM   28  C   UNL     1      -1.833   7.589 -32.830  1.00  0.00     0.026 A 
HETATM   29  C   UNL     1      -0.929   6.975 -33.694  1.00  0.00     0.002 A 
HETATM   30  C   UNL     1      -1.152   5.669 -34.105  1.00  0.00     0.002 A 
HETATM   31  C   UNL     1      -2.269   4.973 -33.635  1.00  0.00     0.033 A 
ENDBRANCH  23  25
ENDBRANCH   1  19
TORSDOF 3
ENDMDL
MODEL 8
REMARK VINA RESULT:      -8.7      3.087      4.294
REMARK  3 active torsions:
REMARK  status: ('A' for Active; 'I' for Inactive)
REMARK    1  A    between atoms: C_3  and  N_4 
REMARK       I    between atoms: N_4  and  C_5 
REMARK    2  A    between atoms: C_5  and  C_6 
REMARK    3  A    between atoms: N_20  and  C_21 
ROOT
HETATM    1  N   UNL     1      -4.108   3.882 -32.248  1.00  0.00    -0.305 N 
HETATM    2  C   UNL     1      -4.030   2.506 -32.316  1.00  0.00     0.257 C 
HETATM    3  O   UNL     1      -3.044   1.795 -32.170  1.00  0.00    -0.267 OA
HETATM    4  H   UNL     1      -5.013   4.323 -32.262  1.00  0.00     0.170 HD
ENDROOT
BRANCH   2   5
HETATM    5  C   UNL     1      -5.337   1.826 -32.550  1.00  0.00     0.034 A 
HETATM    6  C   UNL     1      -6.510   2.583 -32.430  1.00  0.00     0.049 A 
HETATM    7  C   UNL     1      -7.746   1.980 -32.653  1.00  0.00     0.063 A 
HETATM    8  C   UNL     1      -7.819   0.623 -32.985  1.00  0.00     0.062 A 
HETATM    9  N   UNL     1      -8.916   2.735 -32.546  1.00  0.00    -0.317 N 
HETATM   10  N   UNL     1      -9.062   0.029 -33.214  1.00  0.00    -0.317 N 
HETATM   11  C   UNL     1      -6.658  -0.142 -33.081  1.00  0.00     0.033 A 
HETATM   12  C   UNL     1     -10.254   0.714 -33.134  1.00  0.00     0.314 A 
HETATM   13  H   UNL     1      -9.136  -0.951 -33.455  1.00  0.00     0.169 HD
HETATM   14  O   UNL     1     -11.325   0.163 -33.351  1.00  0.00    -0.262 OA
HETATM   15  C   UNL     1     -10.174   2.214 -32.757  1.00  0.00     0.314 A 
HETATM   16  O   UNL     1     -11.182   2.902 -32.657  1.00  0.00    -0.262 OA
HETATM   17  C   UNL     1      -5.415   0.458 -32.858  1.00  0.00     0.019 A 
HETATM   18  H   UNL     1      -8.880   3.714 -32.296  1.00  0.00     0.169 HD
ENDBRANCH   2   5
BRANCH   1  19
HETATM   19  C   UNL     1      -3.033   4.735 -32.086  1.00  0.00     0.158 A 
HETATM   20  C   UNL     1      -2.174   5.146 -33.137  1.00  0.00     0.003 A 
HETATM   21  C   UNL     1      -2.220   4.815 -34.580  1.00  0.00     0.054 C 
HETATM   22  C   UNL     1      -1.267   5.987 -32.525  1.00  0.00     0.129 A 
HETATM   23  N   UNL     1      -1.561   6.017 -31.181  1.00  0.00    -0.241 N 
HETATM   24  N   UNL     1      -2.671   5.282 -30.931  1.00  0.00    -0.149 NA
BRANCH  23  25
HETATM   25  C   UNL     1      -0.928   6.727 -30.117  1.00  0.00     0.079 A 
HETATM   26  C   UNL     1       0.206   6.282 -29.417  1.00  0.00     0.062 A 
HETATM   27 CL   UNL     1       0.930   4.718 -29.566  1.00  0.00    -0.082 Cl
HETATM   28  C   UNL     1       0.775   7.097 -28.423  1.00  0.00     0.026 A 
HETATM   29  C   UNL     1       0.225   8.337 -28.105  1.00  0.00     0.002 A 
HETATM   30  C   UNL     1      -0.915   8.771 -28.766  1.00  0.00     0.002 A 
HETATM   31  C   UNL     1      -1.491   7.972 -29.757  1.00  0.00     0.033 A 
ENDBRANCH  23  25
ENDBRANCH   1  19
TORSDOF 3
ENDMDL
MODEL 9
REMARK VINA RESULT:      -8.7      3.802      9.794
REMARK  3 active torsions:
REMARK  status: ('A' for Active; 'I' for Inactive)
REMARK    1  A    between atoms: C_3  and  N_4 
REMARK       I    between atoms: N_4  and  C_5 
REMARK    2  A    between atoms: C_5  and  C_6 
REMARK    3  A    between atoms: N_20  and  C_21 
ROOT
HETATM    1  N   UNL     1      -3.652   3.839 -31.784  1.00  0.00    -0.305 N 
HETATM    2  C   UNL     1      -2.576   4.401 -32.442  1.00  0.00     0.257 C 
HETATM    3  O   UNL     1      -2.298   4.336 -33.633  1.00  0.00    -0.267 OA
HETATM    4  H   UNL     1      -3.822   4.085 -30.824  1.00  0.00     0.170 HD
ENDROOT
BRANCH   2   5
HETATM    5  C   UNL     1      -1.685   5.225 -31.574  1.00  0.00     0.034 A 
HETATM    6  C   UNL     1      -2.279   6.069 -30.626  1.00  0.00     0.049 A 
HETATM    7  C   UNL     1      -1.474   6.843 -29.792  1.00  0.00     0.063 A 
HETATM    8  C   UNL     1      -0.081   6.788 -29.906  1.00  0.00     0.062 A 
HETATM    9  N   UNL     1      -2.064   7.677 -28.838  1.00  0.00    -0.317 N 
HETATM   10  N   UNL     1       0.717   7.561 -29.061  1.00  0.00    -0.317 N 
HETATM   11  C   UNL     1       0.515   5.969 -30.863  1.00  0.00     0.033 A 
HETATM   12  C   UNL     1       0.205   8.399 -28.094  1.00  0.00     0.314 A 
HETATM   13  H   UNL     1       1.726   7.535 -29.127  1.00  0.00     0.169 HD
HETATM   14  O   UNL     1       0.936   9.055 -27.364  1.00  0.00    -0.262 OA
HETATM   15  C   UNL     1      -1.337   8.467 -27.974  1.00  0.00     0.314 A 
HETATM   16  O   UNL     1      -1.882   9.187 -27.147  1.00  0.00    -0.262 OA
HETATM   17  C   UNL     1      -0.287   5.190 -31.703  1.00  0.00     0.019 A 
HETATM   18  H   UNL     1      -3.069   7.736 -28.751  1.00  0.00     0.169 HD
ENDBRANCH   2   5
BRANCH   1  19
HETATM   19  C   UNL     1      -4.589   3.002 -32.359  1.00  0.00     0.158 A 
HETATM   20  C   UNL     1      -5.906   3.395 -32.706  1.00  0.00     0.003 A 
HETATM   21  C   UNL     1      -6.562   4.718 -32.580  1.00  0.00     0.054 C 
HETATM   22  C   UNL     1      -6.470   2.258 -33.247  1.00  0.00     0.129 A 
HETATM   23  N   UNL     1      -5.537   1.248 -33.167  1.00  0.00    -0.241 N 
HETATM   24  N   UNL     1      -4.375   1.726 -32.662  1.00  0.00    -0.149 NA
BRANCH  23  25
HETATM   25  C   UNL     1      -5.621  -0.115 -33.582  1.00  0.00     0.079 A 
HETATM   26  C   UNL     1      -6.789  -0.745 -34.043  1.00  0.00     0.062 A 
HETATM   27 CL   UNL     1      -8.379  -0.062 -34.011  1.00  0.00    -0.082 Cl
HETATM   28  C   UNL     1      -6.736  -2.080 -34.478  1.00  0.00     0.026 A 
HETATM   29  C   UNL     1      -5.543  -2.801 -34.447  1.00  0.00     0.002 A 
HETATM   30  C   UNL     1      -4.391  -2.200 -33.961  1.00  0.00     0.002 A 
HETATM   31  C   UNL     1      -4.430  -0.873 -33.526  1.00  0.00     0.033 A 
ENDBRANCH  23  25
ENDBRANCH   1  19
TORSDOF 3
ENDMDL
MODEL 10
REMARK VINA RESULT:      -8.6      5.190      9.240
REMARK  3 active torsions:
REMARK  status: ('A' for Active; 'I' for Inactive)
REMARK    1  A    between atoms: C_3  and  N_4 
REMARK       I    between atoms: N_4  and  C_5 
REMARK    2  A    between atoms: C_5  and  C_6 
REMARK    3  A    between atoms: N_20  and  C_21 
ROOT
HETATM    1  N   UNL     1      -6.474   1.639 -32.044  1.00  0.00    -0.305 N 
HETATM    2  C   UNL     1      -6.817   1.922 -30.737  1.00  0.00     0.257 C 
HETATM    3  O   UNL     1      -6.328   1.469 -29.710  1.00  0.00    -0.267 OA
HETATM    4  H   UNL     1      -6.877   2.186 -32.786  1.00  0.00     0.170 HD
ENDROOT
BRANCH   2   5
HETATM    5  C   UNL     1      -7.891   2.947 -30.591  1.00  0.00     0.034 A 
HETATM    6  C   UNL     1      -9.166   2.648 -31.087  1.00  0.00     0.049 A 
HETATM    7  C   UNL     1     -10.194   3.580 -30.957  1.00  0.00     0.063 A 
HETATM    8  C   UNL     1      -9.953   4.814 -30.343  1.00  0.00     0.062 A 
HETATM    9  N   UNL     1     -11.469   3.279 -31.441  1.00  0.00    -0.317 N 
HETATM   10  N   UNL     1     -10.990   5.738 -30.210  1.00  0.00    -0.317 N 
HETATM   11  C   UNL     1      -8.681   5.128 -29.869  1.00  0.00     0.033 A 
HETATM   12  C   UNL     1     -12.273   5.506 -30.656  1.00  0.00     0.314 A 
HETATM   13  H   UNL     1     -10.837   6.636 -29.769  1.00  0.00     0.169 HD
HETATM   14  O   UNL     1     -13.160   6.337 -30.513  1.00  0.00    -0.262 OA
HETATM   15  C   UNL     1     -12.538   4.144 -31.344  1.00  0.00     0.314 A 
HETATM   16  O   UNL     1     -13.645   3.852 -31.776  1.00  0.00    -0.262 OA
HETATM   17  C   UNL     1      -7.646   4.196 -29.998  1.00  0.00     0.019 A 
HETATM   18  H   UNL     1     -11.656   2.396 -31.896  1.00  0.00     0.169 HD
ENDBRANCH   2   5
BRANCH   1  19
HETATM   19  C   UNL     1      -5.544   0.695 -32.438  1.00  0.00     0.158 A 
HETATM   20  C   UNL     1      -4.145   0.923 -32.483  1.00  0.00     0.003 A 
HETATM   21  C   UNL     1      -3.371   2.133 -32.119  1.00  0.00     0.054 C 
HETATM   22  C   UNL     1      -3.619  -0.277 -32.918  1.00  0.00     0.129 A 
HETATM   23  N   UNL     1      -4.670  -1.134 -33.158  1.00  0.00    -0.241 N 
HETATM   24  N   UNL     1      -5.840  -0.543 -32.818  1.00  0.00    -0.149 NA
BRANCH  23  25
HETATM   25  C   UNL     1      -4.667  -2.484 -33.619  1.00  0.00     0.079 A 
HETATM   26  C   UNL     1      -3.909  -3.524 -33.056  1.00  0.00     0.062 A 
HETATM   27 CL   UNL     1      -2.697  -3.339 -31.836  1.00  0.00    -0.082 Cl
HETATM   28  C   UNL     1      -4.032  -4.830 -33.564  1.00  0.00     0.026 A 
HETATM   29  C   UNL     1      -4.883  -5.111 -34.631  1.00  0.00     0.002 A 
HETATM   30  C   UNL     1      -5.609  -4.084 -35.217  1.00  0.00     0.002 A 
HETATM   31  C   UNL     1      -5.498  -2.783 -34.723  1.00  0.00     0.033 A 
ENDBRANCH  23  25
ENDBRANCH   1  19
TORSDOF 3
ENDMDL
