MODEL 1
REMARK VINA RESULT:      -9.2      0.000      0.000
REMARK  6 active torsions:
REMARK  status: ('A' for Active; 'I' for Inactive)
REMARK    1  A    between atoms: C_3  and  C_4 
REMARK    2  A    between atoms: C_4  and  C_5 
REMARK    3  A    between atoms: N_8  and  C_10 
REMARK    4  A    between atoms: C_10  and  C_11 
REMARK    5  A    between atoms: N_24  and  C_25 
REMARK    6  A    between atoms: C_25  and  C_26 
ROOT
HETATM    1  C   UNL     1      -8.833   2.619 -32.785  1.00  0.00     0.164 C 
HETATM    2  N   UNL     1      -7.815   2.631 -33.824  1.00  0.00    -0.319 N 
HETATM    3  C   UNL     1      -6.827   3.556 -33.560  1.00  0.00     0.326 C 
HETATM    4  O   UNL     1      -5.978   3.857 -34.379  1.00  0.00    -0.247 OA
HETATM    5  N   UNL     1      -7.003   4.052 -32.310  1.00  0.00    -0.265 N 
HETATM    6  C   UNL     1      -8.233   3.686 -31.840  1.00  0.00     0.263 C 
HETATM    7  O   UNL     1      -8.770   4.100 -30.821  1.00  0.00    -0.270 OA
HETATM    8  H   UNL     1      -8.105   2.602 -34.798  1.00  0.00     0.166 HD
ENDROOT
BRANCH   1   9
HETATM    9  C   UNL     1     -10.164   3.045 -33.397  1.00  0.00     0.072 A 
HETATM   10  C   UNL     1     -11.361   3.049 -32.686  1.00  0.00     0.030 A 
HETATM   11  C   UNL     1     -12.527   3.452 -33.333  1.00  0.00     0.003 A 
HETATM   12  C   UNL     1     -12.479   3.829 -34.669  1.00  0.00     0.019 A 
HETATM   13  C   UNL     1     -11.261   3.773 -35.318  1.00  0.00     0.117 A 
HETATM   14  N   UNL     1     -10.112   3.373 -34.725  1.00  0.00    -0.262 NA
ENDBRANCH   1   9
BRANCH   1  15
HETATM   15  C   UNL     1      -8.905   1.236 -32.044  1.00  0.00     0.033 C 
HETATM   16  C   UNL     1      -7.598   0.817 -31.333  1.00  0.00     0.036 C 
HETATM   17  C   UNL     1      -6.489   0.325 -32.262  1.00  0.00     0.235 C 
HETATM   18  N   UNL     1      -6.993  -0.733 -33.217  1.00  0.00    -0.067 N 
HETATM   19  H   UNL     1      -7.151  -1.585 -32.660  1.00  0.00     0.280 HD
HETATM   20  C   UNL     1      -8.291  -0.384 -33.912  1.00  0.00     0.235 C 
HETATM   21  C   UNL     1      -9.343   0.039 -32.907  1.00  0.00     0.036 C 
BRANCH  18  22
HETATM   22  C   UNL     1      -5.957  -1.108 -34.277  1.00  0.00     0.278 C 
BRANCH  22  23
HETATM   23  C   UNL     1      -5.282  -2.437 -34.121  1.00  0.00     0.028 A 
HETATM   24  C   UNL     1      -4.100  -2.625 -33.395  1.00  0.00     0.045 A 
HETATM   25 CL   UNL     1      -3.296  -1.291 -32.652  1.00  0.00    -0.084 Cl
HETATM   26  C   UNL     1      -3.533  -3.897 -33.274  1.00  0.00     0.024 A 
HETATM   27  C   UNL     1      -4.142  -5.000 -33.873  1.00  0.00     0.005 A 
HETATM   28  C   UNL     1      -5.319  -4.830 -34.596  1.00  0.00     0.043 A 
HETATM   29  C   UNL     1      -5.873  -3.560 -34.710  1.00  0.00     0.126 A 
HETATM   30  F   UNL     1      -7.004  -3.414 -35.413  1.00  0.00    -0.205 F 
ENDBRANCH  22  23
ENDBRANCH  18  22
ENDBRANCH   1  15
BRANCH   5  31
HETATM   31  C   UNL     1      -6.132   5.059 -31.721  1.00  0.00     0.168 C 
BRANCH  31  32
HETATM   32  C   UNL     1      -4.795   4.502 -31.226  1.00  0.00     0.140 C 
HETATM   33  O   UNL     1      -4.792   3.060 -31.258  1.00  0.00    -0.384 OA
HETATM   34  C   UNL     1      -3.407   2.686 -31.288  1.00  0.00     0.168 C 
HETATM   35  C   UNL     1      -2.757   3.686 -32.216  1.00  0.00     0.029 C 
HETATM   36  C   UNL     1      -3.606   4.934 -32.079  1.00  0.00     0.036 C 
ENDBRANCH  31  32
ENDBRANCH   5  31
TORSDOF 6
ENDMDL
MODEL 2
REMARK VINA RESULT:      -9.1      2.262      3.337
REMARK  6 active torsions:
REMARK  status: ('A' for Active; 'I' for Inactive)
REMARK    1  A    between atoms: C_3  and  C_4 
REMARK    2  A    between atoms: C_4  and  C_5 
REMARK    3  A    between atoms: N_8  and  C_10 
REMARK    4  A    between atoms: C_10  and  C_11 
REMARK    5  A    between atoms: N_24  and  C_25 
REMARK    6  A    between atoms: C_25  and  C_26 
ROOT
HETATM    1  C   UNL     1      -5.681   2.830 -31.358  1.00  0.00     0.164 C 
HETATM    2  N   UNL     1      -5.130   2.899 -32.702  1.00  0.00    -0.319 N 
HETATM    3  C   UNL     1      -4.353   4.023 -32.879  1.00  0.00     0.326 C 
HETATM    4  O   UNL     1      -3.943   4.370 -33.972  1.00  0.00    -0.247 OA
HETATM    5  N   UNL     1      -4.182   4.640 -31.683  1.00  0.00    -0.265 N 
HETATM    6  C   UNL     1      -5.047   4.109 -30.766  1.00  0.00     0.263 C 
HETATM    7  O   UNL     1      -5.267   4.545 -29.643  1.00  0.00    -0.270 OA
HETATM    8  H   UNL     1      -5.733   2.683 -33.493  1.00  0.00     0.166 HD
ENDROOT
BRANCH   1   9
HETATM    9  C   UNL     1      -7.203   2.905 -31.446  1.00  0.00     0.072 A 
HETATM   10  C   UNL     1      -8.023   3.050 -30.331  1.00  0.00     0.030 A 
HETATM   11  C   UNL     1      -9.403   3.107 -30.513  1.00  0.00     0.003 A 
HETATM   12  C   UNL     1      -9.934   3.004 -31.792  1.00  0.00     0.019 A 
HETATM   13  C   UNL     1      -9.061   2.833 -32.848  1.00  0.00     0.117 A 
HETATM   14  N   UNL     1      -7.717   2.760 -32.707  1.00  0.00    -0.262 NA
ENDBRANCH   1   9
BRANCH   1  15
HETATM   15  C   UNL     1      -5.167   1.571 -30.572  1.00  0.00     0.033 C 
HETATM   16  C   UNL     1      -3.678   1.230 -30.805  1.00  0.00     0.036 C 
HETATM   17  C   UNL     1      -3.369   0.582 -32.154  1.00  0.00     0.235 C 
HETATM   18  N   UNL     1      -4.282  -0.591 -32.429  1.00  0.00    -0.067 N 
HETATM   19  H   UNL     1      -3.990  -1.349 -31.796  1.00  0.00     0.280 HD
HETATM   20  C   UNL     1      -5.749  -0.317 -32.181  1.00  0.00     0.235 C 
HETATM   21  C   UNL     1      -5.961   0.272 -30.800  1.00  0.00     0.036 C 
BRANCH  18  22
HETATM   22  C   UNL     1      -4.121  -1.139 -33.847  1.00  0.00     0.278 C 
BRANCH  22  23
HETATM   23  C   UNL     1      -4.895  -2.378 -34.184  1.00  0.00     0.028 A 
HETATM   24  C   UNL     1      -6.150  -2.362 -34.803  1.00  0.00     0.045 A 
HETATM   25 CL   UNL     1      -6.931  -0.871 -35.184  1.00  0.00    -0.084 Cl
HETATM   26  C   UNL     1      -6.810  -3.557 -35.107  1.00  0.00     0.024 A 
HETATM   27  C   UNL     1      -6.222  -4.784 -34.801  1.00  0.00     0.005 A 
HETATM   28  C   UNL     1      -4.972  -4.817 -34.188  1.00  0.00     0.043 A 
HETATM   29  C   UNL     1      -4.327  -3.623 -33.890  1.00  0.00     0.126 A 
HETATM   30  F   UNL     1      -3.127  -3.673 -33.296  1.00  0.00    -0.205 F 
ENDBRANCH  22  23
ENDBRANCH  18  22
ENDBRANCH   1  15
BRANCH   5  31
HETATM   31  C   UNL     1      -3.415   5.865 -31.518  1.00  0.00     0.168 C 
BRANCH  31  32
HETATM   32  C   UNL     1      -2.052   5.653 -30.853  1.00  0.00     0.140 C 
HETATM   33  O   UNL     1      -1.220   4.781 -31.646  1.00  0.00    -0.384 OA
HETATM   34  C   UNL     1       0.124   5.066 -31.233  1.00  0.00     0.168 C 
HETATM   35  C   UNL     1       0.166   6.567 -31.061  1.00  0.00     0.029 C 
HETATM   36  C   UNL     1      -1.253   6.942 -30.684  1.00  0.00     0.036 C 
ENDBRANCH  31  32
ENDBRANCH   5  31
TORSDOF 6
ENDMDL
MODEL 3
REMARK VINA RESULT:      -9.1      3.148      7.262
REMARK  6 active torsions:
REMARK  status: ('A' for Active; 'I' for Inactive)
REMARK    1  A    between atoms: C_3  and  C_4 
REMARK    2  A    between atoms: C_4  and  C_5 
REMARK    3  A    between atoms: N_8  and  C_10 
REMARK    4  A    between atoms: C_10  and  C_11 
REMARK    5  A    between atoms: N_24  and  C_25 
REMARK    6  A    between atoms: C_25  and  C_26 
ROOT
HETATM    1  C   UNL     1      -6.863   1.892 -32.657  1.00  0.00     0.164 C 
HETATM    2  N   UNL     1      -7.440   1.729 -33.983  1.00  0.00    -0.319 N 
HETATM    3  C   UNL     1      -6.803   0.739 -34.699  1.00  0.00     0.326 C 
HETATM    4  O   UNL     1      -7.005   0.558 -35.887  1.00  0.00    -0.247 OA
HETATM    5  N   UNL     1      -5.944   0.080 -33.883  1.00  0.00    -0.265 N 
HETATM    6  C   UNL     1      -5.791   0.779 -32.718  1.00  0.00     0.263 C 
HETATM    7  O   UNL     1      -4.968   0.551 -31.841  1.00  0.00    -0.270 OA
HETATM    8  H   UNL     1      -7.660   2.559 -34.528  1.00  0.00     0.166 HD
ENDROOT
BRANCH   1   9
HETATM    9  C   UNL     1      -6.264   3.291 -32.549  1.00  0.00     0.072 A 
HETATM   10  C   UNL     1      -5.512   3.714 -31.458  1.00  0.00     0.030 A 
HETATM   11  C   UNL     1      -5.009   5.013 -31.449  1.00  0.00     0.003 A 
HETATM   12  C   UNL     1      -5.276   5.862 -32.515  1.00  0.00     0.019 A 
HETATM   13  C   UNL     1      -6.053   5.383 -33.552  1.00  0.00     0.117 A 
HETATM   14  N   UNL     1      -6.569   4.132 -33.586  1.00  0.00    -0.262 NA
ENDBRANCH   1   9
BRANCH   1  15
HETATM   15  C   UNL     1      -7.896   1.569 -31.519  1.00  0.00     0.033 C 
HETATM   16  C   UNL     1      -8.914   0.460 -31.868  1.00  0.00     0.036 C 
HETATM   17  C   UNL     1     -10.023   0.883 -32.831  1.00  0.00     0.235 C 
HETATM   18  N   UNL     1     -10.692   2.162 -32.382  1.00  0.00    -0.067 N 
HETATM   19  H   UNL     1     -11.256   1.927 -31.552  1.00  0.00     0.280 HD
HETATM   20  C   UNL     1      -9.735   3.269 -31.994  1.00  0.00     0.235 C 
HETATM   21  C   UNL     1      -8.708   2.768 -30.997  1.00  0.00     0.036 C 
BRANCH  18  22
HETATM   22  C   UNL     1     -11.673   2.707 -33.419  1.00  0.00     0.278 C 
BRANCH  22  23
HETATM   23  C   UNL     1     -13.118   2.358 -33.230  1.00  0.00     0.028 A 
HETATM   24  C   UNL     1     -13.930   2.928 -32.242  1.00  0.00     0.045 A 
HETATM   25 CL   UNL     1     -13.286   4.066 -31.116  1.00  0.00    -0.084 Cl
HETATM   26  C   UNL     1     -15.278   2.572 -32.133  1.00  0.00     0.024 A 
HETATM   27  C   UNL     1     -15.834   1.643 -33.013  1.00  0.00     0.005 A 
HETATM   28  C   UNL     1     -15.041   1.069 -34.003  1.00  0.00     0.043 A 
HETATM   29  C   UNL     1     -13.702   1.431 -34.101  1.00  0.00     0.126 A 
HETATM   30  F   UNL     1     -12.953   0.865 -35.056  1.00  0.00    -0.205 F 
ENDBRANCH  22  23
ENDBRANCH  18  22
ENDBRANCH   1  15
BRANCH   5  31
HETATM   31  C   UNL     1      -5.105  -1.023 -34.329  1.00  0.00     0.168 C 
BRANCH  31  32
HETATM   32  C   UNL     1      -5.670  -2.403 -33.982  1.00  0.00     0.140 C 
HETATM   33  O   UNL     1      -6.782  -2.737 -34.839  1.00  0.00    -0.384 OA
HETATM   34  C   UNL     1      -6.878  -4.168 -34.791  1.00  0.00     0.168 C 
HETATM   35  C   UNL     1      -5.446  -4.652 -34.814  1.00  0.00     0.029 C 
HETATM   36  C   UNL     1      -4.660  -3.533 -34.161  1.00  0.00     0.036 C 
ENDBRANCH  31  32
ENDBRANCH   5  31
TORSDOF 6
ENDMDL
MODEL 4
REMARK VINA RESULT:      -9.0      2.771      6.951
REMARK  6 active torsions:
REMARK  status: ('A' for Active; 'I' for Inactive)
REMARK    1  A    between atoms: C_3  and  C_4 
REMARK    2  A    between atoms: C_4  and  C_5 
REMARK    3  A    between atoms: N_8  and  C_10 
REMARK    4  A    between atoms: C_10  and  C_11 
REMARK    5  A    between atoms: N_24  and  C_25 
REMARK    6  A    between atoms: C_25  and  C_26 
ROOT
HETATM    1  C   UNL     1      -6.105   0.508 -32.409  1.00  0.00     0.164 C 
HETATM    2  N   UNL     1      -5.965   1.662 -33.283  1.00  0.00    -0.319 N 
HETATM    3  C   UNL     1      -7.122   2.409 -33.332  1.00  0.00     0.326 C 
HETATM    4  O   UNL     1      -7.284   3.312 -34.133  1.00  0.00    -0.247 OA
HETATM    5  N   UNL     1      -7.992   1.946 -32.401  1.00  0.00    -0.265 N 
HETATM    6  C   UNL     1      -7.554   0.742 -31.923  1.00  0.00     0.263 C 
HETATM    7  O   UNL     1      -8.181  -0.020 -31.199  1.00  0.00    -0.270 OA
HETATM    8  H   UNL     1      -5.509   1.545 -34.185  1.00  0.00     0.166 HD
ENDROOT
BRANCH   1   9
HETATM    9  C   UNL     1      -5.954  -0.761 -33.244  1.00  0.00     0.072 A 
HETATM   10  C   UNL     1      -7.002  -1.325 -33.965  1.00  0.00     0.030 A 
HETATM   11  C   UNL     1      -6.767  -2.488 -34.696  1.00  0.00     0.003 A 
HETATM   12  C   UNL     1      -5.505  -3.067 -34.681  1.00  0.00     0.019 A 
HETATM   13  C   UNL     1      -4.521  -2.468 -33.920  1.00  0.00     0.117 A 
HETATM   14  N   UNL     1      -4.718  -1.347 -33.188  1.00  0.00    -0.262 NA
ENDBRANCH   1   9
BRANCH   1  15
HETATM   15  C   UNL     1      -5.120   0.568 -31.187  1.00  0.00     0.033 C 
HETATM   16  C   UNL     1      -5.596   1.460 -30.019  1.00  0.00     0.036 C 
HETATM   17  C   UNL     1      -5.472   2.963 -30.265  1.00  0.00     0.235 C 
HETATM   18  N   UNL     1      -4.089   3.335 -30.750  1.00  0.00    -0.067 N 
HETATM   19  H   UNL     1      -3.454   3.232 -29.946  1.00  0.00     0.280 HD
HETATM   20  C   UNL     1      -3.563   2.466 -31.872  1.00  0.00     0.235 C 
HETATM   21  C   UNL     1      -3.678   0.997 -31.514  1.00  0.00     0.036 C 
BRANCH  18  22
HETATM   22  C   UNL     1      -3.992   4.798 -31.180  1.00  0.00     0.278 C 
BRANCH  22  23
HETATM   23  C   UNL     1      -3.145   5.095 -32.380  1.00  0.00     0.028 A 
HETATM   24  C   UNL     1      -1.748   5.172 -32.343  1.00  0.00     0.045 A 
HETATM   25 CL   UNL     1      -0.890   4.974 -30.858  1.00  0.00    -0.084 Cl
HETATM   26  C   UNL     1      -1.017   5.434 -33.505  1.00  0.00     0.024 A 
HETATM   27  C   UNL     1      -1.672   5.618 -34.723  1.00  0.00     0.005 A 
HETATM   28  C   UNL     1      -3.061   5.540 -34.778  1.00  0.00     0.043 A 
HETATM   29  C   UNL     1      -3.777   5.280 -33.616  1.00  0.00     0.126 A 
HETATM   30  F   UNL     1      -5.113   5.214 -33.686  1.00  0.00    -0.205 F 
ENDBRANCH  22  23
ENDBRANCH  18  22
ENDBRANCH   1  15
BRANCH   5  31
HETATM   31  C   UNL     1      -9.317   2.511 -32.194  1.00  0.00     0.168 C 
BRANCH  31  32
HETATM   32  C   UNL     1     -10.320   2.145 -33.291  1.00  0.00     0.140 C 
HETATM   33  O   UNL     1     -10.848   0.819 -33.087  1.00  0.00    -0.384 OA
HETATM   34  C   UNL     1     -12.088   0.791 -33.809  1.00  0.00     0.168 C 
HETATM   35  C   UNL     1     -12.714   2.143 -33.553  1.00  0.00     0.029 C 
HETATM   36  C   UNL     1     -11.534   3.069 -33.334  1.00  0.00     0.036 C 
ENDBRANCH  31  32
ENDBRANCH   5  31
TORSDOF 6
ENDMDL
MODEL 5
REMARK VINA RESULT:      -8.8      3.280      7.553
REMARK  6 active torsions:
REMARK  status: ('A' for Active; 'I' for Inactive)
REMARK    1  A    between atoms: C_3  and  C_4 
REMARK    2  A    between atoms: C_4  and  C_5 
REMARK    3  A    between atoms: N_8  and  C_10 
REMARK    4  A    between atoms: C_10  and  C_11 
REMARK    5  A    between atoms: N_24  and  C_25 
REMARK    6  A    between atoms: C_25  and  C_26 
ROOT
HETATM    1  C   UNL     1      -6.028   1.395 -32.402  1.00  0.00     0.164 C 
HETATM    2  N   UNL     1      -5.736   2.503 -33.298  1.00  0.00    -0.319 N 
HETATM    3  C   UNL     1      -6.832   3.319 -33.475  1.00  0.00     0.326 C 
HETATM    4  O   UNL     1      -6.864   4.198 -34.318  1.00  0.00    -0.247 OA
HETATM    5  N   UNL     1      -7.809   2.949 -32.611  1.00  0.00    -0.265 N 
HETATM    6  C   UNL     1      -7.495   1.740 -32.055  1.00  0.00     0.263 C 
HETATM    7  O   UNL     1      -8.232   1.048 -31.365  1.00  0.00    -0.270 OA
HETATM    8  H   UNL     1      -5.212   2.321 -34.151  1.00  0.00     0.166 HD
ENDROOT
BRANCH   1   9
HETATM    9  C   UNL     1      -5.890   0.087 -33.176  1.00  0.00     0.072 A 
HETATM   10  C   UNL     1      -6.716  -0.257 -34.242  1.00  0.00     0.030 A 
HETATM   11  C   UNL     1      -6.513  -1.475 -34.885  1.00  0.00     0.003 A 
HETATM   12  C   UNL     1      -5.507  -2.326 -34.447  1.00  0.00     0.019 A 
HETATM   13  C   UNL     1      -4.744  -1.932 -33.365  1.00  0.00     0.117 A 
HETATM   14  N   UNL     1      -4.922  -0.762 -32.708  1.00  0.00    -0.262 NA
ENDBRANCH   1   9
BRANCH   1  15
HETATM   15  C   UNL     1      -5.152   1.442 -31.099  1.00  0.00     0.033 C 
HETATM   16  C   UNL     1      -5.531   2.563 -30.107  1.00  0.00     0.036 C 
HETATM   17  C   UNL     1      -5.089   3.966 -30.521  1.00  0.00     0.235 C 
HETATM   18  N   UNL     1      -3.626   3.999 -30.899  1.00  0.00    -0.067 N 
HETATM   19  H   UNL     1      -3.090   3.893 -30.026  1.00  0.00     0.280 HD
HETATM   20  C   UNL     1      -3.197   2.897 -31.843  1.00  0.00     0.235 C 
HETATM   21  C   UNL     1      -3.632   1.541 -31.322  1.00  0.00     0.036 C 
BRANCH  18  22
HETATM   22  C   UNL     1      -3.203   5.342 -31.494  1.00  0.00     0.278 C 
BRANCH  22  23
HETATM   23  C   UNL     1      -1.984   5.987 -30.907  1.00  0.00     0.028 A 
HETATM   24  C   UNL     1      -2.007   6.785 -29.757  1.00  0.00     0.045 A 
HETATM   25 CL   UNL     1      -3.492   7.126 -28.946  1.00  0.00    -0.084 Cl
HETATM   26  C   UNL     1      -0.829   7.341 -29.251  1.00  0.00     0.024 A 
HETATM   27  C   UNL     1       0.391   7.104 -29.886  1.00  0.00     0.005 A 
HETATM   28  C   UNL     1       0.432   6.310 -31.029  1.00  0.00     0.043 A 
HETATM   29  C   UNL     1      -0.747   5.763 -31.522  1.00  0.00     0.126 A 
HETATM   30  F   UNL     1      -0.690   5.006 -32.626  1.00  0.00    -0.205 F 
ENDBRANCH  22  23
ENDBRANCH  18  22
ENDBRANCH   1  15
BRANCH   5  31
HETATM   31  C   UNL     1      -9.107   3.604 -32.543  1.00  0.00     0.168 C 
BRANCH  31  32
HETATM   32  C   UNL     1     -10.134   3.039 -33.528  1.00  0.00     0.140 C 
HETATM   33  O   UNL     1     -11.431   2.914 -32.909  1.00  0.00    -0.384 OA
HETATM   34  C   UNL     1     -12.367   2.891 -33.997  1.00  0.00     0.168 C 
HETATM   35  C   UNL     1     -11.846   3.917 -34.977  1.00  0.00     0.029 C 
HETATM   36  C   UNL     1     -10.347   3.924 -34.753  1.00  0.00     0.036 C 
ENDBRANCH  31  32
ENDBRANCH   5  31
TORSDOF 6
ENDMDL
MODEL 6
REMARK VINA RESULT:      -8.7      3.450      7.069
REMARK  6 active torsions:
REMARK  status: ('A' for Active; 'I' for Inactive)
REMARK    1  A    between atoms: C_3  and  C_4 
REMARK    2  A    between atoms: C_4  and  C_5 
REMARK    3  A    between atoms: N_8  and  C_10 
REMARK    4  A    between atoms: C_10  and  C_11 
REMARK    5  A    between atoms: N_24  and  C_25 
REMARK    6  A    between atoms: C_25  and  C_26 
ROOT
HETATM    1  C   UNL     1      -6.488   2.175 -32.421  1.00  0.00     0.164 C 
HETATM    2  N   UNL     1      -6.163   3.321 -33.255  1.00  0.00    -0.319 N 
HETATM    3  C   UNL     1      -7.171   4.260 -33.249  1.00  0.00     0.326 C 
HETATM    4  O   UNL     1      -7.187   5.209 -34.013  1.00  0.00    -0.247 OA
HETATM    5  N   UNL     1      -8.093   3.919 -32.315  1.00  0.00    -0.265 N 
HETATM    6  C   UNL     1      -7.865   2.639 -31.891  1.00  0.00     0.263 C 
HETATM    7  O   UNL     1      -8.604   1.970 -31.181  1.00  0.00    -0.270 OA
HETATM    8  H   UNL     1      -5.750   3.161 -34.171  1.00  0.00     0.166 HD
ENDROOT
BRANCH   1   9
HETATM    9  C   UNL     1      -6.577   0.934 -33.304  1.00  0.00     0.072 A 
HETATM   10  C   UNL     1      -6.951   0.978 -34.643  1.00  0.00     0.030 A 
HETATM   11  C   UNL     1      -7.005  -0.210 -35.368  1.00  0.00     0.003 A 
HETATM   12  C   UNL     1      -6.701  -1.412 -34.743  1.00  0.00     0.019 A 
HETATM   13  C   UNL     1      -6.365  -1.384 -33.403  1.00  0.00     0.117 A 
HETATM   14  N   UNL     1      -6.316  -0.250 -32.666  1.00  0.00    -0.262 NA
ENDBRANCH   1   9
BRANCH   1  15
HETATM   15  C   UNL     1      -5.488   2.013 -31.221  1.00  0.00     0.033 C 
HETATM   16  C   UNL     1      -5.609   3.100 -30.130  1.00  0.00     0.036 C 
HETATM   17  C   UNL     1      -5.024   4.460 -30.507  1.00  0.00     0.235 C 
HETATM   18  N   UNL     1      -3.615   4.331 -31.041  1.00  0.00    -0.067 N 
HETATM   19  H   UNL     1      -3.014   4.094 -30.238  1.00  0.00     0.280 HD
HETATM   20  C   UNL     1      -3.437   3.254 -32.088  1.00  0.00     0.235 C 
HETATM   21  C   UNL     1      -3.998   1.932 -31.602  1.00  0.00     0.036 C 
BRANCH  18  22
HETATM   22  C   UNL     1      -3.076   5.648 -31.598  1.00  0.00     0.278 C 
BRANCH  22  23
HETATM   23  C   UNL     1      -1.850   6.207 -30.942  1.00  0.00     0.028 A 
HETATM   24  C   UNL     1      -1.882   7.000 -29.789  1.00  0.00     0.045 A 
HETATM   25 CL   UNL     1      -3.383   7.437 -29.057  1.00  0.00    -0.084 Cl
HETATM   26  C   UNL     1      -0.698   7.474 -29.217  1.00  0.00     0.024 A 
HETATM   27  C   UNL     1       0.536   7.159 -29.787  1.00  0.00     0.005 A 
HETATM   28  C   UNL     1       0.585   6.369 -30.932  1.00  0.00     0.043 A 
HETATM   29  C   UNL     1      -0.599   5.904 -31.492  1.00  0.00     0.126 A 
HETATM   30  F   UNL     1      -0.533   5.149 -32.597  1.00  0.00    -0.205 F 
ENDBRANCH  22  23
ENDBRANCH  18  22
ENDBRANCH   1  15
BRANCH   5  31
HETATM   31  C   UNL     1      -9.295   4.699 -32.056  1.00  0.00     0.168 C 
BRANCH  31  32
HETATM   32  C   UNL     1      -9.184   5.609 -30.830  1.00  0.00     0.140 C 
HETATM   33  O   UNL     1      -8.585   4.910 -29.719  1.00  0.00    -0.384 OA
HETATM   34  C   UNL     1      -8.071   5.938 -28.861  1.00  0.00     0.168 C 
HETATM   35  C   UNL     1      -7.484   6.968 -29.799  1.00  0.00     0.029 C 
HETATM   36  C   UNL     1      -8.308   6.836 -31.065  1.00  0.00     0.036 C 
ENDBRANCH  31  32
ENDBRANCH   5  31
TORSDOF 6
ENDMDL
MODEL 7
REMARK VINA RESULT:      -8.7      1.634      2.267
REMARK  6 active torsions:
REMARK  status: ('A' for Active; 'I' for Inactive)
REMARK    1  A    between atoms: C_3  and  C_4 
REMARK    2  A    between atoms: C_4  and  C_5 
REMARK    3  A    between atoms: N_8  and  C_10 
REMARK    4  A    between atoms: C_10  and  C_11 
REMARK    5  A    between atoms: N_24  and  C_25 
REMARK    6  A    between atoms: C_25  and  C_26 
ROOT
HETATM    1  C   UNL     1      -7.031   3.383 -31.820  1.00  0.00     0.164 C 
HETATM    2  N   UNL     1      -6.573   3.234 -33.192  1.00  0.00    -0.319 N 
HETATM    3  C   UNL     1      -5.828   4.317 -33.603  1.00  0.00     0.326 C 
HETATM    4  O   UNL     1      -5.498   4.482 -34.764  1.00  0.00    -0.247 OA
HETATM    5  N   UNL     1      -5.586   5.122 -32.539  1.00  0.00    -0.265 N 
HETATM    6  C   UNL     1      -6.377   4.746 -31.490  1.00  0.00     0.263 C 
HETATM    7  O   UNL     1      -6.527   5.358 -30.441  1.00  0.00    -0.270 OA
HETATM    8  H   UNL     1      -7.225   2.889 -33.893  1.00  0.00     0.166 HD
ENDROOT
BRANCH   1   9
HETATM    9  C   UNL     1      -8.556   3.437 -31.813  1.00  0.00     0.072 A 
HETATM   10  C   UNL     1      -9.329   3.218 -32.949  1.00  0.00     0.030 A 
HETATM   11  C   UNL     1     -10.716   3.291 -32.844  1.00  0.00     0.003 A 
HETATM   12  C   UNL     1     -11.299   3.590 -31.619  1.00  0.00     0.019 A 
HETATM   13  C   UNL     1     -10.468   3.823 -30.541  1.00  0.00     0.117 A 
HETATM   14  N   UNL     1      -9.118   3.774 -30.610  1.00  0.00    -0.262 NA
ENDBRANCH   1   9
BRANCH   1  15
HETATM   15  C   UNL     1      -6.444   2.273 -30.876  1.00  0.00     0.033 C 
HETATM   16  C   UNL     1      -4.918   2.064 -30.998  1.00  0.00     0.036 C 
HETATM   17  C   UNL     1      -4.470   1.314 -32.252  1.00  0.00     0.235 C 
HETATM   18  N   UNL     1      -5.247   0.031 -32.441  1.00  0.00    -0.067 N 
HETATM   19  H   UNL     1      -4.921  -0.623 -31.715  1.00  0.00     0.280 HD
HETATM   20  C   UNL     1      -6.746   0.178 -32.295  1.00  0.00     0.235 C 
HETATM   21  C   UNL     1      -7.094   0.883 -30.999  1.00  0.00     0.036 C 
BRANCH  18  22
HETATM   22  C   UNL     1      -4.951  -0.643 -33.780  1.00  0.00     0.278 C 
BRANCH  22  23
HETATM   23  C   UNL     1      -4.648  -2.110 -33.746  1.00  0.00     0.028 A 
HETATM   24  C   UNL     1      -3.665  -2.680 -32.929  1.00  0.00     0.045 A 
HETATM   25 CL   UNL     1      -2.675  -1.693 -31.916  1.00  0.00    -0.084 Cl
HETATM   26  C   UNL     1      -3.447  -4.061 -32.932  1.00  0.00     0.024 A 
HETATM   27  C   UNL     1      -4.213  -4.893 -33.748  1.00  0.00     0.005 A 
HETATM   28  C   UNL     1      -5.198  -4.343 -34.564  1.00  0.00     0.043 A 
HETATM   29  C   UNL     1      -5.404  -2.968 -34.553  1.00  0.00     0.126 A 
HETATM   30  F   UNL     1      -6.352  -2.455 -35.349  1.00  0.00    -0.205 F 
ENDBRANCH  22  23
ENDBRANCH  18  22
ENDBRANCH   1  15
BRANCH   5  31
HETATM   31  C   UNL     1      -4.828   6.362 -32.630  1.00  0.00     0.168 C 
BRANCH  31  32
HETATM   32  C   UNL     1      -3.315   6.169 -32.494  1.00  0.00     0.140 C 
HETATM   33  O   UNL     1      -3.005   4.849 -32.002  1.00  0.00    -0.384 OA
HETATM   34  C   UNL     1      -1.647   4.608 -32.399  1.00  0.00     0.168 C 
HETATM   35  C   UNL     1      -1.546   5.180 -33.795  1.00  0.00     0.029 C 
HETATM   36  C   UNL     1      -2.567   6.300 -33.817  1.00  0.00     0.036 C 
ENDBRANCH  31  32
ENDBRANCH   5  31
TORSDOF 6
ENDMDL
MODEL 8
REMARK VINA RESULT:      -8.6      3.376      7.512
REMARK  6 active torsions:
REMARK  status: ('A' for Active; 'I' for Inactive)
REMARK    1  A    between atoms: C_3  and  C_4 
REMARK    2  A    between atoms: C_4  and  C_5 
REMARK    3  A    between atoms: N_8  and  C_10 
REMARK    4  A    between atoms: C_10  and  C_11 
REMARK    5  A    between atoms: N_24  and  C_25 
REMARK    6  A    between atoms: C_25  and  C_26 
ROOT
HETATM    1  C   UNL     1      -6.271   1.961 -32.378  1.00  0.00     0.164 C 
HETATM    2  N   UNL     1      -5.920   3.069 -33.253  1.00  0.00    -0.319 N 
HETATM    3  C   UNL     1      -6.947   3.980 -33.360  1.00  0.00     0.326 C 
HETATM    4  O   UNL     1      -6.936   4.886 -34.175  1.00  0.00    -0.247 OA
HETATM    5  N   UNL     1      -7.918   3.667 -32.467  1.00  0.00    -0.265 N 
HETATM    6  C   UNL     1      -7.688   2.418 -31.960  1.00  0.00     0.263 C 
HETATM    7  O   UNL     1      -8.454   1.770 -31.260  1.00  0.00    -0.270 OA
HETATM    8  H   UNL     1      -5.447   2.871 -34.132  1.00  0.00     0.166 HD
ENDROOT
BRANCH   1   9
HETATM    9  C   UNL     1      -6.276   0.672 -33.195  1.00  0.00     0.072 A 
HETATM   10  C   UNL     1      -5.674  -0.505 -32.761  1.00  0.00     0.030 A 
HETATM   11  C   UNL     1      -5.730  -1.631 -33.579  1.00  0.00     0.003 A 
HETATM   12  C   UNL     1      -6.369  -1.557 -34.810  1.00  0.00     0.019 A 
HETATM   13  C   UNL     1      -6.920  -0.348 -35.187  1.00  0.00     0.117 A 
HETATM   14  N   UNL     1      -6.872   0.769 -34.424  1.00  0.00    -0.262 NA
ENDBRANCH   1   9
BRANCH   1  15
HETATM   15  C   UNL     1      -5.343   1.890 -31.112  1.00  0.00     0.033 C 
HETATM   16  C   UNL     1      -5.667   2.930 -30.017  1.00  0.00     0.036 C 
HETATM   17  C   UNL     1      -5.222   4.358 -30.332  1.00  0.00     0.235 C 
HETATM   18  N   UNL     1      -3.774   4.406 -30.765  1.00  0.00    -0.067 N 
HETATM   19  H   UNL     1      -3.207   4.222 -29.925  1.00  0.00     0.280 HD
HETATM   20  C   UNL     1      -3.399   3.381 -31.813  1.00  0.00     0.235 C 
HETATM   21  C   UNL     1      -3.832   1.992 -31.387  1.00  0.00     0.036 C 
BRANCH  18  22
HETATM   22  C   UNL     1      -3.357   5.789 -31.264  1.00  0.00     0.278 C 
BRANCH  22  23
HETATM   23  C   UNL     1      -1.998   6.272 -30.856  1.00  0.00     0.028 A 
HETATM   24  C   UNL     1      -0.872   6.206 -31.684  1.00  0.00     0.045 A 
HETATM   25 CL   UNL     1      -0.968   5.498 -33.255  1.00  0.00    -0.084 Cl
HETATM   26  C   UNL     1       0.364   6.693 -31.247  1.00  0.00     0.024 A 
HETATM   27  C   UNL     1       0.490   7.258 -29.978  1.00  0.00     0.005 A 
HETATM   28  C   UNL     1      -0.622   7.334 -29.143  1.00  0.00     0.043 A 
HETATM   29  C   UNL     1      -1.844   6.845 -29.588  1.00  0.00     0.126 A 
HETATM   30  F   UNL     1      -2.902   6.922 -28.770  1.00  0.00    -0.205 F 
ENDBRANCH  22  23
ENDBRANCH  18  22
ENDBRANCH   1  15
BRANCH   5  31
HETATM   31  C   UNL     1      -9.150   4.428 -32.326  1.00  0.00     0.168 C 
BRANCH  31  32
HETATM   32  C   UNL     1     -10.270   3.964 -33.261  1.00  0.00     0.140 C 
HETATM   33  O   UNL     1     -11.308   3.282 -32.526  1.00  0.00    -0.384 OA
HETATM   34  C   UNL     1     -12.474   3.364 -33.357  1.00  0.00     0.168 C 
HETATM   35  C   UNL     1     -12.441   4.761 -33.933  1.00  0.00     0.029 C 
HETATM   36  C   UNL     1     -10.967   5.111 -33.986  1.00  0.00     0.036 C 
ENDBRANCH  31  32
ENDBRANCH   5  31
TORSDOF 6
ENDMDL
MODEL 9
REMARK VINA RESULT:      -8.4      2.849      4.117
REMARK  6 active torsions:
REMARK  status: ('A' for Active; 'I' for Inactive)
REMARK    1  A    between atoms: C_3  and  C_4 
REMARK    2  A    between atoms: C_4  and  C_5 
REMARK    3  A    between atoms: N_8  and  C_10 
REMARK    4  A    between atoms: C_10  and  C_11 
REMARK    5  A    between atoms: N_24  and  C_25 
REMARK    6  A    between atoms: C_25  and  C_26 
ROOT
HETATM    1  C   UNL     1      -6.744   4.950 -32.107  1.00  0.00     0.164 C 
HETATM    2  N   UNL     1      -6.742   3.638 -32.733  1.00  0.00    -0.319 N 
HETATM    3  C   UNL     1      -5.934   3.605 -33.849  1.00  0.00     0.326 C 
HETATM    4  O   UNL     1      -5.924   2.664 -34.623  1.00  0.00    -0.247 OA
HETATM    5  N   UNL     1      -5.232   4.763 -33.925  1.00  0.00    -0.265 N 
HETATM    6  C   UNL     1      -5.750   5.672 -33.046  1.00  0.00     0.263 C 
HETATM    7  O   UNL     1      -5.459   6.859 -32.978  1.00  0.00    -0.270 OA
HETATM    8  H   UNL     1      -7.625   3.145 -32.846  1.00  0.00     0.166 HD
ENDROOT
BRANCH   1   9
HETATM    9  C   UNL     1      -8.156   5.526 -32.176  1.00  0.00     0.072 A 
HETATM   10  C   UNL     1      -8.470   6.820 -31.771  1.00  0.00     0.030 A 
HETATM   11  C   UNL     1      -9.789   7.255 -31.870  1.00  0.00     0.003 A 
HETATM   12  C   UNL     1     -10.764   6.394 -32.356  1.00  0.00     0.019 A 
HETATM   13  C   UNL     1     -10.384   5.115 -32.713  1.00  0.00     0.117 A 
HETATM   14  N   UNL     1      -9.115   4.654 -32.617  1.00  0.00    -0.262 NA
ENDBRANCH   1   9
BRANCH   1  15
HETATM   15  C   UNL     1      -6.161   4.911 -30.649  1.00  0.00     0.033 C 
HETATM   16  C   UNL     1      -4.797   4.197 -30.519  1.00  0.00     0.036 C 
HETATM   17  C   UNL     1      -4.859   2.672 -30.596  1.00  0.00     0.235 C 
HETATM   18  N   UNL     1      -5.898   2.109 -29.653  1.00  0.00    -0.067 N 
HETATM   19  H   UNL     1      -5.528   2.226 -28.699  1.00  0.00     0.280 HD
HETATM   20  C   UNL     1      -7.243   2.800 -29.717  1.00  0.00     0.235 C 
HETATM   21  C   UNL     1      -7.084   4.301 -29.578  1.00  0.00     0.036 C 
BRANCH  18  22
HETATM   22  C   UNL     1      -6.111   0.608 -29.843  1.00  0.00     0.278 C 
BRANCH  22  23
HETATM   23  C   UNL     1      -5.901   0.065 -31.224  1.00  0.00     0.028 A 
HETATM   24  C   UNL     1      -6.911  -0.006 -32.190  1.00  0.00     0.045 A 
HETATM   25 CL   UNL     1      -8.522   0.496 -31.826  1.00  0.00    -0.084 Cl
HETATM   26  C   UNL     1      -6.642  -0.507 -33.467  1.00  0.00     0.024 A 
HETATM   27  C   UNL     1      -5.358  -0.940 -33.798  1.00  0.00     0.005 A 
HETATM   28  C   UNL     1      -4.341  -0.873 -32.850  1.00  0.00     0.043 A 
HETATM   29  C   UNL     1      -4.621  -0.374 -31.583  1.00  0.00     0.126 A 
HETATM   30  F   UNL     1      -3.632  -0.321 -30.681  1.00  0.00    -0.205 F 
ENDBRANCH  22  23
ENDBRANCH  18  22
ENDBRANCH   1  15
BRANCH   5  31
HETATM   31  C   UNL     1      -4.287   5.056 -34.993  1.00  0.00     0.168 C 
BRANCH  31  32
HETATM   32  C   UNL     1      -2.829   5.101 -34.528  1.00  0.00     0.140 C 
HETATM   33  O   UNL     1      -2.466   6.427 -34.093  1.00  0.00    -0.384 OA
HETATM   34  C   UNL     1      -1.331   6.245 -33.234  1.00  0.00     0.168 C 
HETATM   35  C   UNL     1      -1.650   5.005 -32.431  1.00  0.00     0.029 C 
HETATM   36  C   UNL     1      -2.544   4.187 -33.341  1.00  0.00     0.036 C 
ENDBRANCH  31  32
ENDBRANCH   5  31
TORSDOF 6
ENDMDL
MODEL 10
REMARK VINA RESULT:      -8.4      3.607      7.327
REMARK  6 active torsions:
REMARK  status: ('A' for Active; 'I' for Inactive)
REMARK    1  A    between atoms: C_3  and  C_4 
REMARK    2  A    between atoms: C_4  and  C_5 
REMARK    3  A    between atoms: N_8  and  C_10 
REMARK    4  A    between atoms: C_10  and  C_11 
REMARK    5  A    between atoms: N_24  and  C_25 
REMARK    6  A    between atoms: C_25  and  C_26 
ROOT
HETATM    1  C   UNL     1      -6.179   2.069 -32.409  1.00  0.00     0.164 C 
HETATM    2  N   UNL     1      -5.790   3.159 -33.291  1.00  0.00    -0.319 N 
HETATM    3  C   UNL     1      -6.769   4.125 -33.371  1.00  0.00     0.326 C 
HETATM    4  O   UNL     1      -6.729   5.031 -34.184  1.00  0.00    -0.247 OA
HETATM    5  N   UNL     1      -7.733   3.861 -32.455  1.00  0.00    -0.265 N 
HETATM    6  C   UNL     1      -7.559   2.600 -31.956  1.00  0.00     0.263 C 
HETATM    7  O   UNL     1      -8.342   1.992 -31.239  1.00  0.00    -0.270 OA
HETATM    8  H   UNL     1      -5.350   2.938 -34.182  1.00  0.00     0.166 HD
ENDROOT
BRANCH   1   9
HETATM    9  C   UNL     1      -6.274   0.785 -33.228  1.00  0.00     0.072 A 
HETATM   10  C   UNL     1      -5.731  -0.426 -32.809  1.00  0.00     0.030 A 
HETATM   11  C   UNL     1      -5.867  -1.545 -33.628  1.00  0.00     0.003 A 
HETATM   12  C   UNL     1      -6.525  -1.431 -34.846  1.00  0.00     0.019 A 
HETATM   13  C   UNL     1      -7.013  -0.191 -35.209  1.00  0.00     0.117 A 
HETATM   14  N   UNL     1      -6.887   0.919 -34.445  1.00  0.00    -0.262 NA
ENDBRANCH   1   9
BRANCH   1  15
HETATM   15  C   UNL     1      -5.226   1.944 -31.167  1.00  0.00     0.033 C 
HETATM   16  C   UNL     1      -5.536   2.927 -30.016  1.00  0.00     0.036 C 
HETATM   17  C   UNL     1      -5.107   4.372 -30.270  1.00  0.00     0.235 C 
HETATM   18  N   UNL     1      -3.669   4.452 -30.728  1.00  0.00    -0.067 N 
HETATM   19  H   UNL     1      -3.083   4.233 -29.910  1.00  0.00     0.280 HD
HETATM   20  C   UNL     1      -3.306   3.483 -31.832  1.00  0.00     0.235 C 
HETATM   21  C   UNL     1      -3.721   2.071 -31.466  1.00  0.00     0.036 C 
BRANCH  18  22
HETATM   22  C   UNL     1      -3.271   5.862 -31.166  1.00  0.00     0.278 C 
BRANCH  22  23
HETATM   23  C   UNL     1      -1.905   6.332 -30.770  1.00  0.00     0.028 A 
HETATM   24  C   UNL     1      -0.796   6.298 -31.623  1.00  0.00     0.045 A 
HETATM   25 CL   UNL     1      -0.925   5.646 -33.217  1.00  0.00    -0.084 Cl
HETATM   26  C   UNL     1       0.448   6.771 -31.196  1.00  0.00     0.024 A 
HETATM   27  C   UNL     1       0.600   7.290 -29.910  1.00  0.00     0.005 A 
HETATM   28  C   UNL     1      -0.494   7.334 -29.050  1.00  0.00     0.043 A 
HETATM   29  C   UNL     1      -1.725   6.860 -29.486  1.00  0.00     0.126 A 
HETATM   30  F   UNL     1      -2.766   6.906 -28.644  1.00  0.00    -0.205 F 
ENDBRANCH  22  23
ENDBRANCH  18  22
ENDBRANCH   1  15
BRANCH   5  31
HETATM   31  C   UNL     1      -8.919   4.687 -32.282  1.00  0.00     0.168 C 
BRANCH  31  32
HETATM   32  C   UNL     1      -8.678   5.938 -31.432  1.00  0.00     0.140 C 
HETATM   33  O   UNL     1      -9.766   6.874 -31.569  1.00  0.00    -0.384 OA
HETATM   34  C   UNL     1      -9.701   7.702 -30.400  1.00  0.00     0.168 C 
HETATM   35  C   UNL     1      -9.364   6.753 -29.272  1.00  0.00     0.029 C 
HETATM   36  C   UNL     1      -8.575   5.643 -29.938  1.00  0.00     0.036 C 
ENDBRANCH  31  32
ENDBRANCH   5  31
TORSDOF 6
ENDMDL
