MODEL 1
REMARK VINA RESULT:      -8.9      0.000      0.000
REMARK  6 active torsions:
REMARK  status: ('A' for Active; 'I' for Inactive)
REMARK    1  A    between atoms: C_2  and  N_3 
REMARK    2  A    between atoms: C_2  and  C_15 
REMARK    3  A    between atoms: C_5  and  C_6 
REMARK       I    between atoms: C_15  and  N_16 
REMARK    4  A    between atoms: N_16  and  C_17 
REMARK    5  A    between atoms: C_20  and  O_21 
REMARK    6  A    between atoms: O_21  and  C_22 
ROOT
HETATM    1  C   UNL     1      -4.535   3.736 -32.239  1.00  0.00     0.253 C 
HETATM    2  N   UNL     1      -5.843   3.361 -32.484  1.00  0.00    -0.325 N 
HETATM    3  O   UNL     1      -3.555   3.001 -32.350  1.00  0.00    -0.271 OA
HETATM    4  H   UNL     1      -6.594   4.001 -32.260  1.00  0.00     0.169 HD
ENDROOT
BRANCH   1   5
HETATM    5  C   UNL     1      -4.281   5.243 -31.958  1.00  0.00     0.276 C 
HETATM    6  C   UNL     1      -5.041   6.241 -32.826  1.00  0.00     0.050 C 
BRANCH   5   7
HETATM    7  N   UNL     1      -2.781   5.610 -31.976  1.00  0.00    -0.049 N 
HETATM    8  H   UNL     1      -2.268   4.728 -31.869  1.00  0.00     0.281 HD
HETATM    9  C   UNL     1      -2.314   6.529 -30.860  1.00  0.00     0.238 C 
HETATM   10  C   UNL     1      -2.129   7.876 -31.546  1.00  0.00     0.041 C 
HETATM   11  C   UNL     1      -1.610   7.520 -32.923  1.00  0.00     0.030 C 
HETATM   12  C   UNL     1      -2.324   6.234 -33.292  1.00  0.00     0.237 C 
BRANCH   9  13
HETATM   13  C   UNL     1      -1.044   6.019 -30.236  1.00  0.00     0.042 A 
HETATM   14  N   UNL     1      -0.637   6.372 -28.961  1.00  0.00    -0.363 N 
HETATM   15  C   UNL     1      -1.302   7.280 -28.047  1.00  0.00     0.155 C 
HETATM   16  C   UNL     1       0.555   5.759 -28.670  1.00  0.00     0.090 A 
HETATM   17  C   UNL     1       0.943   5.024 -29.762  1.00  0.00     0.019 A 
HETATM   18  C   UNL     1      -0.051   5.192 -30.749  1.00  0.00     0.028 A 
ENDBRANCH   9  13
ENDBRANCH   5   7
ENDBRANCH   1   5
BRANCH   2  19
HETATM   19  C   UNL     1      -6.284   2.100 -32.958  1.00  0.00     0.035 A 
HETATM   20  C   UNL     1      -6.471   0.978 -32.147  1.00  0.00     0.032 A 
HETATM   21  C   UNL     1      -6.873  -0.241 -32.703  1.00  0.00     0.039 A 
HETATM   22  C   UNL     1      -7.101  -0.352 -34.071  1.00  0.00     0.076 A 
HETATM   23  C   UNL     1      -6.907   0.757 -34.893  1.00  0.00     0.039 A 
HETATM   24  C   UNL     1      -6.510   1.979 -34.337  1.00  0.00     0.032 A 
BRANCH  22  25
HETATM   25  O   UNL     1      -7.427  -1.608 -34.527  1.00  0.00    -0.311 OA
BRANCH  25  26
HETATM   26  C   UNL     1      -6.475  -2.596 -34.464  1.00  0.00     0.076 A 
HETATM   27  C   UNL     1      -6.879  -3.888 -34.806  1.00  0.00     0.037 A 
HETATM   28  C   UNL     1      -5.949  -4.927 -34.812  1.00  0.00     0.003 A 
HETATM   29  C   UNL     1      -4.616  -4.670 -34.492  1.00  0.00     0.000 A 
HETATM   30  C   UNL     1      -4.208  -3.373 -34.175  1.00  0.00     0.003 A 
HETATM   31  C   UNL     1      -5.136  -2.331 -34.170  1.00  0.00     0.037 A 
ENDBRANCH  25  26
ENDBRANCH  22  25
ENDBRANCH   2  19
TORSDOF 6
ENDMDL
MODEL 2
REMARK VINA RESULT:      -8.7      1.786      3.623
REMARK  6 active torsions:
REMARK  status: ('A' for Active; 'I' for Inactive)
REMARK    1  A    between atoms: C_2  and  N_3 
REMARK    2  A    between atoms: C_2  and  C_15 
REMARK    3  A    between atoms: C_5  and  C_6 
REMARK       I    between atoms: C_15  and  N_16 
REMARK    4  A    between atoms: N_16  and  C_17 
REMARK    5  A    between atoms: C_20  and  O_21 
REMARK    6  A    between atoms: O_21  and  C_22 
ROOT
HETATM    1  C   UNL     1      -2.195   4.861 -31.293  1.00  0.00     0.253 C 
HETATM    2  N   UNL     1      -3.529   4.656 -30.995  1.00  0.00    -0.325 N 
HETATM    3  O   UNL     1      -1.492   4.098 -31.955  1.00  0.00    -0.271 OA
HETATM    4  H   UNL     1      -3.997   5.283 -30.352  1.00  0.00     0.169 HD
ENDROOT
BRANCH   1   5
HETATM    5  C   UNL     1      -1.592   6.235 -30.892  1.00  0.00     0.276 C 
HETATM    6  C   UNL     1      -0.373   6.706 -31.680  1.00  0.00     0.050 C 
BRANCH   5   7
HETATM    7  N   UNL     1      -1.278   6.334 -29.384  1.00  0.00    -0.049 N 
HETATM    8  H   UNL     1      -1.963   5.737 -28.908  1.00  0.00     0.281 HD
HETATM    9  C   UNL     1      -1.403   7.720 -28.773  1.00  0.00     0.238 C 
HETATM   10  C   UNL     1       0.038   8.170 -28.583  1.00  0.00     0.041 C 
HETATM   11  C   UNL     1       0.774   6.902 -28.208  1.00  0.00     0.030 C 
HETATM   12  C   UNL     1       0.105   5.806 -29.016  1.00  0.00     0.237 C 
BRANCH   9  13
HETATM   13  C   UNL     1      -2.170   7.674 -27.481  1.00  0.00     0.042 A 
HETATM   14  N   UNL     1      -3.536   7.456 -27.421  1.00  0.00    -0.363 N 
HETATM   15  C   UNL     1      -4.445   7.279 -28.537  1.00  0.00     0.155 C 
HETATM   16  C   UNL     1      -3.951   7.474 -26.115  1.00  0.00     0.090 A 
HETATM   17  C   UNL     1      -2.863   7.726 -25.317  1.00  0.00     0.019 A 
HETATM   18  C   UNL     1      -1.746   7.861 -26.169  1.00  0.00     0.028 A 
ENDBRANCH   9  13
ENDBRANCH   5   7
ENDBRANCH   1   5
BRANCH   2  19
HETATM   19  C   UNL     1      -4.338   3.581 -31.440  1.00  0.00     0.035 A 
HETATM   20  C   UNL     1      -4.839   3.460 -32.739  1.00  0.00     0.032 A 
HETATM   21  C   UNL     1      -5.663   2.385 -33.085  1.00  0.00     0.039 A 
HETATM   22  C   UNL     1      -5.991   1.414 -32.144  1.00  0.00     0.076 A 
HETATM   23  C   UNL     1      -5.507   1.528 -30.842  1.00  0.00     0.039 A 
HETATM   24  C   UNL     1      -4.677   2.601 -30.495  1.00  0.00     0.032 A 
BRANCH  22  25
HETATM   25  O   UNL     1      -6.861   0.436 -32.565  1.00  0.00    -0.311 OA
BRANCH  25  26
HETATM   26  C   UNL     1      -6.348  -0.672 -33.194  1.00  0.00     0.076 A 
HETATM   27  C   UNL     1      -7.214  -1.390 -34.020  1.00  0.00     0.037 A 
HETATM   28  C   UNL     1      -6.742  -2.496 -34.727  1.00  0.00     0.003 A 
HETATM   29  C   UNL     1      -5.403  -2.870 -34.621  1.00  0.00     0.000 A 
HETATM   30  C   UNL     1      -4.531  -2.136 -33.814  1.00  0.00     0.003 A 
HETATM   31  C   UNL     1      -5.000  -1.029 -33.106  1.00  0.00     0.037 A 
ENDBRANCH  25  26
ENDBRANCH  22  25
ENDBRANCH   2  19
TORSDOF 6
ENDMDL
MODEL 3
REMARK VINA RESULT:      -8.5      2.235      9.035
REMARK  6 active torsions:
REMARK  status: ('A' for Active; 'I' for Inactive)
REMARK    1  A    between atoms: C_2  and  N_3 
REMARK    2  A    between atoms: C_2  and  C_15 
REMARK    3  A    between atoms: C_5  and  C_6 
REMARK       I    between atoms: C_15  and  N_16 
REMARK    4  A    between atoms: N_16  and  C_17 
REMARK    5  A    between atoms: C_20  and  O_21 
REMARK    6  A    between atoms: O_21  and  C_22 
ROOT
HETATM    1  C   UNL     1      -5.758   2.783 -31.781  1.00  0.00     0.253 C 
HETATM    2  N   UNL     1      -5.181   3.652 -32.687  1.00  0.00    -0.325 N 
HETATM    3  O   UNL     1      -5.274   2.469 -30.694  1.00  0.00    -0.271 OA
HETATM    4  H   UNL     1      -5.598   3.765 -33.603  1.00  0.00     0.169 HD
ENDROOT
BRANCH   1   5
HETATM    5  C   UNL     1      -7.199   2.296 -32.099  1.00  0.00     0.276 C 
HETATM    6  C   UNL     1      -8.178   2.239 -30.930  1.00  0.00     0.050 C 
BRANCH   5   7
HETATM    7  N   UNL     1      -7.223   0.940 -32.835  1.00  0.00    -0.049 N 
HETATM    8  H   UNL     1      -7.006   0.226 -32.131  1.00  0.00     0.281 HD
HETATM    9  C   UNL     1      -6.208   0.778 -33.954  1.00  0.00     0.238 C 
HETATM   10  C   UNL     1      -7.037   0.905 -35.224  1.00  0.00     0.041 C 
HETATM   11  C   UNL     1      -8.353   0.243 -34.874  1.00  0.00     0.030 C 
HETATM   12  C   UNL     1      -8.590   0.589 -33.416  1.00  0.00     0.237 C 
BRANCH   9  13
HETATM   13  C   UNL     1      -5.501  -0.545 -33.855  1.00  0.00     0.042 A 
HETATM   14  N   UNL     1      -4.275  -0.700 -33.231  1.00  0.00    -0.363 N 
HETATM   15  C   UNL     1      -3.465   0.335 -32.619  1.00  0.00     0.155 C 
HETATM   16  C   UNL     1      -3.880  -2.011 -33.305  1.00  0.00     0.090 A 
HETATM   17  C   UNL     1      -4.835  -2.713 -33.997  1.00  0.00     0.019 A 
HETATM   18  C   UNL     1      -5.848  -1.797 -34.352  1.00  0.00     0.028 A 
ENDBRANCH   9  13
ENDBRANCH   5   7
ENDBRANCH   1   5
BRANCH   2  19
HETATM   19  C   UNL     1      -3.977   4.379 -32.511  1.00  0.00     0.035 A 
HETATM   20  C   UNL     1      -2.760   4.037 -33.105  1.00  0.00     0.032 A 
HETATM   21  C   UNL     1      -1.607   4.787 -32.847  1.00  0.00     0.039 A 
HETATM   22  C   UNL     1      -1.658   5.891 -32.002  1.00  0.00     0.076 A 
HETATM   23  C   UNL     1      -2.863   6.236 -31.394  1.00  0.00     0.039 A 
HETATM   24  C   UNL     1      -4.019   5.489 -31.656  1.00  0.00     0.032 A 
BRANCH  22  25
HETATM   25  O   UNL     1      -0.459   6.520 -31.761  1.00  0.00    -0.311 OA
BRANCH  25  26
HETATM   26  C   UNL     1       0.022   6.544 -30.475  1.00  0.00     0.076 A 
HETATM   27  C   UNL     1       0.080   7.787 -29.844  1.00  0.00     0.037 A 
HETATM   28  C   UNL     1       0.510   7.874 -28.520  1.00  0.00     0.003 A 
HETATM   29  C   UNL     1       0.864   6.718 -27.825  1.00  0.00     0.000 A 
HETATM   30  C   UNL     1       0.781   5.472 -28.449  1.00  0.00     0.003 A 
HETATM   31  C   UNL     1       0.350   5.381 -29.774  1.00  0.00     0.037 A 
ENDBRANCH  25  26
ENDBRANCH  22  25
ENDBRANCH   2  19
TORSDOF 6
ENDMDL
MODEL 4
REMARK VINA RESULT:      -8.5      6.673      9.027
REMARK  6 active torsions:
REMARK  status: ('A' for Active; 'I' for Inactive)
REMARK    1  A    between atoms: C_2  and  N_3 
REMARK    2  A    between atoms: C_2  and  C_15 
REMARK    3  A    between atoms: C_5  and  C_6 
REMARK       I    between atoms: C_15  and  N_16 
REMARK    4  A    between atoms: N_16  and  C_17 
REMARK    5  A    between atoms: C_20  and  O_21 
REMARK    6  A    between atoms: O_21  and  C_22 
ROOT
HETATM    1  C   UNL     1     -12.109   1.367 -34.004  1.00  0.00     0.253 C 
HETATM    2  N   UNL     1     -11.077   1.114 -33.119  1.00  0.00    -0.325 N 
HETATM    3  O   UNL     1     -12.013   1.337 -35.230  1.00  0.00    -0.271 OA
HETATM    4  H   UNL     1     -11.222   1.269 -32.129  1.00  0.00     0.169 HD
ENDROOT
BRANCH   1   5
HETATM    5  C   UNL     1     -13.527   1.542 -33.393  1.00  0.00     0.276 C 
HETATM    6  C   UNL     1     -14.654   0.734 -34.028  1.00  0.00     0.050 C 
BRANCH   5   7
HETATM    7  N   UNL     1     -13.962   3.021 -33.308  1.00  0.00    -0.049 N 
HETATM    8  H   UNL     1     -14.371   3.254 -34.220  1.00  0.00     0.281 HD
HETATM    9  C   UNL     1     -12.848   4.024 -33.056  1.00  0.00     0.238 C 
HETATM   10  C   UNL     1     -13.030   4.416 -31.596  1.00  0.00     0.041 C 
HETATM   11  C   UNL     1     -14.531   4.417 -31.399  1.00  0.00     0.030 C 
HETATM   12  C   UNL     1     -15.041   3.277 -32.260  1.00  0.00     0.237 C 
BRANCH   9  13
HETATM   13  C   UNL     1     -12.957   5.198 -33.988  1.00  0.00     0.042 A 
HETATM   14  N   UNL     1     -12.042   5.447 -34.997  1.00  0.00    -0.363 N 
HETATM   15  C   UNL     1     -10.848   4.685 -35.306  1.00  0.00     0.155 C 
HETATM   16  C   UNL     1     -12.398   6.585 -35.674  1.00  0.00     0.090 A 
HETATM   17  C   UNL     1     -13.533   7.097 -35.096  1.00  0.00     0.019 A 
HETATM   18  C   UNL     1     -13.881   6.236 -34.033  1.00  0.00     0.028 A 
ENDBRANCH   9  13
ENDBRANCH   5   7
ENDBRANCH   1   5
BRANCH   2  19
HETATM   19  C   UNL     1      -9.757   0.721 -33.452  1.00  0.00     0.035 A 
HETATM   20  C   UNL     1      -9.166   0.933 -34.701  1.00  0.00     0.032 A 
HETATM   21  C   UNL     1      -7.869   0.478 -34.959  1.00  0.00     0.039 A 
HETATM   22  C   UNL     1      -7.143  -0.185 -33.975  1.00  0.00     0.076 A 
HETATM   23  C   UNL     1      -7.725  -0.414 -32.729  1.00  0.00     0.039 A 
HETATM   24  C   UNL     1      -9.022   0.047 -32.467  1.00  0.00     0.032 A 
BRANCH  22  25
HETATM   25  O   UNL     1      -5.905  -0.651 -34.350  1.00  0.00    -0.311 OA
BRANCH  25  26
HETATM   26  C   UNL     1      -5.724  -2.006 -34.472  1.00  0.00     0.076 A 
HETATM   27  C   UNL     1      -4.476  -2.514 -34.108  1.00  0.00     0.037 A 
HETATM   28  C   UNL     1      -4.244  -3.888 -34.159  1.00  0.00     0.003 A 
HETATM   29  C   UNL     1      -5.263  -4.752 -34.559  1.00  0.00     0.000 A 
HETATM   30  C   UNL     1      -6.519  -4.245 -34.899  1.00  0.00     0.003 A 
HETATM   31  C   UNL     1      -6.755  -2.871 -34.847  1.00  0.00     0.037 A 
ENDBRANCH  25  26
ENDBRANCH  22  25
ENDBRANCH   2  19
TORSDOF 6
ENDMDL
MODEL 5
REMARK VINA RESULT:      -8.5      2.366      9.193
REMARK  6 active torsions:
REMARK  status: ('A' for Active; 'I' for Inactive)
REMARK    1  A    between atoms: C_2  and  N_3 
REMARK    2  A    between atoms: C_2  and  C_15 
REMARK    3  A    between atoms: C_5  and  C_6 
REMARK       I    between atoms: C_15  and  N_16 
REMARK    4  A    between atoms: N_16  and  C_17 
REMARK    5  A    between atoms: C_20  and  O_21 
REMARK    6  A    between atoms: O_21  and  C_22 
ROOT
HETATM    1  C   UNL     1      -5.772   3.986 -33.727  1.00  0.00     0.253 C 
HETATM    2  N   UNL     1      -4.901   3.802 -32.670  1.00  0.00    -0.325 N 
HETATM    3  O   UNL     1      -5.643   4.831 -34.612  1.00  0.00    -0.271 OA
HETATM    4  H   UNL     1      -5.147   3.155 -31.930  1.00  0.00     0.169 HD
ENDROOT
BRANCH   1   5
HETATM    5  C   UNL     1      -6.908   2.937 -33.889  1.00  0.00     0.276 C 
HETATM    6  C   UNL     1      -8.338   3.446 -33.739  1.00  0.00     0.050 C 
BRANCH   5   7
HETATM    7  N   UNL     1      -6.719   1.706 -32.977  1.00  0.00    -0.049 N 
HETATM    8  H   UNL     1      -5.826   1.842 -32.490  1.00  0.00     0.281 HD
HETATM    9  C   UNL     1      -6.633   0.366 -33.688  1.00  0.00     0.238 C 
HETATM   10  C   UNL     1      -7.986  -0.280 -33.420  1.00  0.00     0.041 C 
HETATM   11  C   UNL     1      -8.334   0.162 -32.015  1.00  0.00     0.030 C 
HETATM   12  C   UNL     1      -7.795   1.576 -31.903  1.00  0.00     0.237 C 
BRANCH   9  13
HETATM   13  C   UNL     1      -5.488  -0.453 -33.160  1.00  0.00     0.042 A 
HETATM   14  N   UNL     1      -5.106  -1.662 -33.717  1.00  0.00    -0.363 N 
HETATM   15  C   UNL     1      -5.728  -2.350 -34.831  1.00  0.00     0.155 C 
HETATM   16  C   UNL     1      -4.041  -2.176 -33.022  1.00  0.00     0.090 A 
HETATM   17  C   UNL     1      -3.738  -1.316 -31.996  1.00  0.00     0.019 A 
HETATM   18  C   UNL     1      -4.648  -0.241 -32.072  1.00  0.00     0.028 A 
ENDBRANCH   9  13
ENDBRANCH   5   7
ENDBRANCH   1   5
BRANCH   2  19
HETATM   19  C   UNL     1      -3.688   4.498 -32.444  1.00  0.00     0.035 A 
HETATM   20  C   UNL     1      -2.487   4.215 -33.100  1.00  0.00     0.032 A 
HETATM   21  C   UNL     1      -1.323   4.926 -32.790  1.00  0.00     0.039 A 
HETATM   22  C   UNL     1      -1.345   5.933 -31.830  1.00  0.00     0.076 A 
HETATM   23  C   UNL     1      -2.534   6.217 -31.160  1.00  0.00     0.039 A 
HETATM   24  C   UNL     1      -3.701   5.510 -31.474  1.00  0.00     0.032 A 
BRANCH  22  25
HETATM   25  O   UNL     1      -0.136   6.525 -31.551  1.00  0.00    -0.311 OA
BRANCH  25  26
HETATM   26  C   UNL     1       0.271   6.599 -30.241  1.00  0.00     0.076 A 
HETATM   27  C   UNL     1       0.419   7.875 -29.695  1.00  0.00     0.037 A 
HETATM   28  C   UNL     1       0.780   8.019 -28.356  1.00  0.00     0.003 A 
HETATM   29  C   UNL     1       0.975   6.888 -27.562  1.00  0.00     0.000 A 
HETATM   30  C   UNL     1       0.801   5.613 -28.102  1.00  0.00     0.003 A 
HETATM   31  C   UNL     1       0.439   5.466 -29.442  1.00  0.00     0.037 A 
ENDBRANCH  25  26
ENDBRANCH  22  25
ENDBRANCH   2  19
TORSDOF 6
ENDMDL
MODEL 6
REMARK VINA RESULT:      -8.1      1.713      2.826
REMARK  6 active torsions:
REMARK  status: ('A' for Active; 'I' for Inactive)
REMARK    1  A    between atoms: C_2  and  N_3 
REMARK    2  A    between atoms: C_2  and  C_15 
REMARK    3  A    between atoms: C_5  and  C_6 
REMARK       I    between atoms: C_15  and  N_16 
REMARK    4  A    between atoms: N_16  and  C_17 
REMARK    5  A    between atoms: C_20  and  O_21 
REMARK    6  A    between atoms: O_21  and  C_22 
ROOT
HETATM    1  C   UNL     1      -6.287   3.711 -30.794  1.00  0.00     0.253 C 
HETATM    2  N   UNL     1      -5.720   3.340 -32.000  1.00  0.00    -0.325 N 
HETATM    3  O   UNL     1      -7.166   3.085 -30.204  1.00  0.00    -0.271 OA
HETATM    4  H   UNL     1      -5.082   3.974 -32.465  1.00  0.00     0.169 HD
ENDROOT
BRANCH   1   5
HETATM    5  C   UNL     1      -5.644   4.921 -30.063  1.00  0.00     0.276 C 
HETATM    6  C   UNL     1      -6.567   5.763 -29.187  1.00  0.00     0.050 C 
BRANCH   5   7
HETATM    7  N   UNL     1      -4.875   5.858 -31.019  1.00  0.00    -0.049 N 
HETATM    8  H   UNL     1      -5.162   5.599 -31.969  1.00  0.00     0.281 HD
HETATM    9  C   UNL     1      -3.360   5.749 -30.971  1.00  0.00     0.238 C 
HETATM   10  C   UNL     1      -2.925   6.998 -30.217  1.00  0.00     0.041 C 
HETATM   11  C   UNL     1      -3.904   8.061 -30.667  1.00  0.00     0.030 C 
HETATM   12  C   UNL     1      -5.224   7.332 -30.836  1.00  0.00     0.237 C 
BRANCH   9  13
HETATM   13  C   UNL     1      -2.780   5.680 -32.357  1.00  0.00     0.042 A 
HETATM   14  N   UNL     1      -1.443   5.415 -32.602  1.00  0.00    -0.363 N 
HETATM   15  C   UNL     1      -0.396   5.203 -31.621  1.00  0.00     0.155 C 
HETATM   16  C   UNL     1      -1.210   5.421 -33.953  1.00  0.00     0.090 A 
HETATM   17  C   UNL     1      -2.387   5.713 -34.595  1.00  0.00     0.019 A 
HETATM   18  C   UNL     1      -3.371   5.885 -33.598  1.00  0.00     0.028 A 
ENDBRANCH   9  13
ENDBRANCH   5   7
ENDBRANCH   1   5
BRANCH   2  19
HETATM   19  C   UNL     1      -5.998   2.162 -32.737  1.00  0.00     0.035 A 
HETATM   20  C   UNL     1      -6.507   2.152 -34.038  1.00  0.00     0.032 A 
HETATM   21  C   UNL     1      -6.790   0.942 -34.680  1.00  0.00     0.039 A 
HETATM   22  C   UNL     1      -6.561  -0.270 -34.037  1.00  0.00     0.076 A 
HETATM   23  C   UNL     1      -6.066  -0.274 -32.734  1.00  0.00     0.039 A 
HETATM   24  C   UNL     1      -5.776   0.937 -32.092  1.00  0.00     0.032 A 
BRANCH  22  25
HETATM   25  O   UNL     1      -6.935  -1.399 -34.728  1.00  0.00    -0.311 OA
BRANCH  25  26
HETATM   26  C   UNL     1      -6.166  -2.530 -34.602  1.00  0.00     0.076 A 
HETATM   27  C   UNL     1      -6.754  -3.740 -34.972  1.00  0.00     0.037 A 
HETATM   28  C   UNL     1      -6.011  -4.919 -34.917  1.00  0.00     0.003 A 
HETATM   29  C   UNL     1      -4.678  -4.882 -34.507  1.00  0.00     0.000 A 
HETATM   30  C   UNL     1      -4.083  -3.667 -34.162  1.00  0.00     0.003 A 
HETATM   31  C   UNL     1      -4.824  -2.486 -34.217  1.00  0.00     0.037 A 
ENDBRANCH  25  26
ENDBRANCH  22  25
ENDBRANCH   2  19
TORSDOF 6
ENDMDL
MODEL 7
REMARK VINA RESULT:      -8.1      3.104      9.815
REMARK  6 active torsions:
REMARK  status: ('A' for Active; 'I' for Inactive)
REMARK    1  A    between atoms: C_2  and  N_3 
REMARK    2  A    between atoms: C_2  and  C_15 
REMARK    3  A    between atoms: C_5  and  C_6 
REMARK       I    between atoms: C_15  and  N_16 
REMARK    4  A    between atoms: N_16  and  C_17 
REMARK    5  A    between atoms: C_20  and  O_21 
REMARK    6  A    between atoms: O_21  and  C_22 
ROOT
HETATM    1  C   UNL     1      -6.172   2.538 -33.449  1.00  0.00     0.253 C 
HETATM    2  N   UNL     1      -5.266   2.545 -32.405  1.00  0.00    -0.325 N 
HETATM    3  O   UNL     1      -6.285   3.426 -34.294  1.00  0.00    -0.271 OA
HETATM    4  H   UNL     1      -5.319   1.824 -31.696  1.00  0.00     0.169 HD
ENDROOT
BRANCH   1   5
HETATM    5  C   UNL     1      -6.991   1.235 -33.656  1.00  0.00     0.276 C 
HETATM    6  C   UNL     1      -7.072   0.692 -35.079  1.00  0.00     0.050 C 
BRANCH   5   7
HETATM    7  N   UNL     1      -8.420   1.329 -33.078  1.00  0.00    -0.049 N 
HETATM    8  H   UNL     1      -8.890   0.452 -33.328  1.00  0.00     0.281 HD
HETATM    9  C   UNL     1      -9.278   2.460 -33.622  1.00  0.00     0.238 C 
HETATM   10  C   UNL     1      -9.302   3.479 -32.492  1.00  0.00     0.041 C 
HETATM   11  C   UNL     1      -9.320   2.637 -31.235  1.00  0.00     0.030 C 
HETATM   12  C   UNL     1      -8.454   1.434 -31.556  1.00  0.00     0.237 C 
BRANCH   9  13
HETATM   13  C   UNL     1     -10.651   1.968 -33.986  1.00  0.00     0.042 A 
HETATM   14  N   UNL     1     -11.488   2.644 -34.859  1.00  0.00    -0.363 N 
HETATM   15  C   UNL     1     -11.227   3.906 -35.523  1.00  0.00     0.155 C 
HETATM   16  C   UNL     1     -12.669   1.961 -34.990  1.00  0.00     0.090 A 
HETATM   17  C   UNL     1     -12.619   0.849 -34.187  1.00  0.00     0.019 A 
HETATM   18  C   UNL     1     -11.361   0.855 -33.548  1.00  0.00     0.028 A 
ENDBRANCH   9  13
ENDBRANCH   5   7
ENDBRANCH   1   5
BRANCH   2  19
HETATM   19  C   UNL     1      -4.276   3.528 -32.152  1.00  0.00     0.035 A 
HETATM   20  C   UNL     1      -4.443   4.600 -31.272  1.00  0.00     0.032 A 
HETATM   21  C   UNL     1      -3.428   5.550 -31.110  1.00  0.00     0.039 A 
HETATM   22  C   UNL     1      -2.234   5.436 -31.814  1.00  0.00     0.076 A 
HETATM   23  C   UNL     1      -2.060   4.377 -32.705  1.00  0.00     0.039 A 
HETATM   24  C   UNL     1      -3.073   3.423 -32.864  1.00  0.00     0.032 A 
BRANCH  22  25
HETATM   25  O   UNL     1      -1.329   6.455 -31.635  1.00  0.00    -0.311 OA
BRANCH  25  26
HETATM   26  C   UNL     1      -0.596   6.485 -30.474  1.00  0.00     0.076 A 
HETATM   27  C   UNL     1      -0.651   7.658 -29.720  1.00  0.00     0.037 A 
HETATM   28  C   UNL     1       0.029   7.735 -28.505  1.00  0.00     0.003 A 
HETATM   29  C   UNL     1       0.747   6.634 -28.038  1.00  0.00     0.000 A 
HETATM   30  C   UNL     1       0.780   5.453 -28.781  1.00  0.00     0.003 A 
HETATM   31  C   UNL     1       0.100   5.372 -29.997  1.00  0.00     0.037 A 
ENDBRANCH  25  26
ENDBRANCH  22  25
ENDBRANCH   2  19
TORSDOF 6
ENDMDL
MODEL 8
REMARK VINA RESULT:      -8.1      2.065      3.224
REMARK  6 active torsions:
REMARK  status: ('A' for Active; 'I' for Inactive)
REMARK    1  A    between atoms: C_2  and  N_3 
REMARK    2  A    between atoms: C_2  and  C_15 
REMARK    3  A    between atoms: C_5  and  C_6 
REMARK       I    between atoms: C_15  and  N_16 
REMARK    4  A    between atoms: N_16  and  C_17 
REMARK    5  A    between atoms: C_20  and  O_21 
REMARK    6  A    between atoms: O_21  and  C_22 
ROOT
HETATM    1  C   UNL     1      -5.509   5.422 -29.661  1.00  0.00     0.253 C 
HETATM    2  N   UNL     1      -4.900   4.243 -30.051  1.00  0.00    -0.325 N 
HETATM    3  O   UNL     1      -6.692   5.702 -29.846  1.00  0.00    -0.271 OA
HETATM    4  H   UNL     1      -3.897   4.147 -29.955  1.00  0.00     0.169 HD
ENDROOT
BRANCH   1   5
HETATM    5  C   UNL     1      -4.665   6.389 -28.786  1.00  0.00     0.276 C 
HETATM    6  C   UNL     1      -5.426   7.243 -27.776  1.00  0.00     0.050 C 
BRANCH   5   7
HETATM    7  N   UNL     1      -3.748   7.307 -29.623  1.00  0.00    -0.049 N 
HETATM    8  H   UNL     1      -4.199   7.406 -30.539  1.00  0.00     0.281 HD
HETATM    9  C   UNL     1      -2.344   6.784 -29.877  1.00  0.00     0.238 C 
HETATM   10  C   UNL     1      -1.469   7.612 -28.946  1.00  0.00     0.041 C 
HETATM   11  C   UNL     1      -2.115   8.981 -28.953  1.00  0.00     0.030 C 
HETATM   12  C   UNL     1      -3.605   8.712 -29.044  1.00  0.00     0.237 C 
BRANCH   9  13
HETATM   13  C   UNL     1      -1.962   6.943 -31.322  1.00  0.00     0.042 A 
HETATM   14  N   UNL     1      -0.897   6.271 -31.899  1.00  0.00    -0.363 N 
HETATM   15  C   UNL     1       0.026   5.365 -31.244  1.00  0.00     0.155 C 
HETATM   16  C   UNL     1      -0.790   6.620 -33.220  1.00  0.00     0.090 A 
HETATM   17  C   UNL     1      -1.770   7.537 -33.507  1.00  0.00     0.019 A 
HETATM   18  C   UNL     1      -2.501   7.750 -32.319  1.00  0.00     0.028 A 
ENDBRANCH   9  13
ENDBRANCH   5   7
ENDBRANCH   1   5
BRANCH   2  19
HETATM   19  C   UNL     1      -5.528   3.133 -30.668  1.00  0.00     0.035 A 
HETATM   20  C   UNL     1      -6.088   2.060 -29.970  1.00  0.00     0.032 A 
HETATM   21  C   UNL     1      -6.655   0.983 -30.659  1.00  0.00     0.039 A 
HETATM   22  C   UNL     1      -6.679   0.967 -32.050  1.00  0.00     0.076 A 
HETATM   23  C   UNL     1      -6.113   2.026 -32.759  1.00  0.00     0.039 A 
HETATM   24  C   UNL     1      -5.550   3.108 -32.070  1.00  0.00     0.032 A 
BRANCH  22  25
HETATM   25  O   UNL     1      -7.197  -0.166 -32.631  1.00  0.00    -0.311 OA
BRANCH  25  26
HETATM   26  C   UNL     1      -6.329  -1.074 -33.186  1.00  0.00     0.076 A 
HETATM   27  C   UNL     1      -6.784  -1.790 -34.294  1.00  0.00     0.037 A 
HETATM   28  C   UNL     1      -5.934  -2.690 -34.936  1.00  0.00     0.003 A 
HETATM   29  C   UNL     1      -4.627  -2.861 -34.478  1.00  0.00     0.000 A 
HETATM   30  C   UNL     1      -4.165  -2.125 -33.386  1.00  0.00     0.003 A 
HETATM   31  C   UNL     1      -5.013  -1.223 -32.742  1.00  0.00     0.037 A 
ENDBRANCH  25  26
ENDBRANCH  22  25
ENDBRANCH   2  19
TORSDOF 6
ENDMDL
MODEL 9
REMARK VINA RESULT:      -8.0      2.343     10.116
REMARK  6 active torsions:
REMARK  status: ('A' for Active; 'I' for Inactive)
REMARK    1  A    between atoms: C_2  and  N_3 
REMARK    2  A    between atoms: C_2  and  C_15 
REMARK    3  A    between atoms: C_5  and  C_6 
REMARK       I    between atoms: C_15  and  N_16 
REMARK    4  A    between atoms: N_16  and  C_17 
REMARK    5  A    between atoms: C_20  and  O_21 
REMARK    6  A    between atoms: O_21  and  C_22 
ROOT
HETATM    1  C   UNL     1      -3.664   3.860 -31.891  1.00  0.00     0.253 C 
HETATM    2  N   UNL     1      -2.383   4.185 -32.299  1.00  0.00    -0.325 N 
HETATM    3  O   UNL     1      -4.196   4.249 -30.853  1.00  0.00    -0.271 OA
HETATM    4  H   UNL     1      -1.990   3.729 -33.114  1.00  0.00     0.169 HD
ENDROOT
BRANCH   1   5
HETATM    5  C   UNL     1      -4.543   3.076 -32.905  1.00  0.00     0.276 C 
HETATM    6  C   UNL     1      -6.009   3.485 -33.002  1.00  0.00     0.050 C 
BRANCH   5   7
HETATM    7  N   UNL     1      -4.465   1.547 -32.707  1.00  0.00    -0.049 N 
HETATM    8  H   UNL     1      -4.129   1.159 -33.595  1.00  0.00     0.281 HD
HETATM    9  C   UNL     1      -5.780   0.854 -32.393  1.00  0.00     0.238 C 
HETATM   10  C   UNL     1      -5.685   0.540 -30.907  1.00  0.00     0.041 C 
HETATM   11  C   UNL     1      -4.225   0.202 -30.694  1.00  0.00     0.030 C 
HETATM   12  C   UNL     1      -3.468   1.125 -31.631  1.00  0.00     0.237 C 
BRANCH   9  13
HETATM   13  C   UNL     1      -5.956  -0.379 -33.235  1.00  0.00     0.042 A 
HETATM   14  N   UNL     1      -7.195  -0.850 -33.633  1.00  0.00    -0.363 N 
HETATM   15  C   UNL     1      -8.493  -0.294 -33.301  1.00  0.00     0.155 C 
HETATM   16  C   UNL     1      -7.040  -1.988 -34.382  1.00  0.00     0.090 A 
HETATM   17  C   UNL     1      -5.700  -2.278 -34.456  1.00  0.00     0.019 A 
HETATM   18  C   UNL     1      -5.018  -1.278 -33.731  1.00  0.00     0.028 A 
ENDBRANCH   9  13
ENDBRANCH   5   7
ENDBRANCH   1   5
BRANCH   2  19
HETATM   19  C   UNL     1      -1.483   5.059 -31.640  1.00  0.00     0.035 A 
HETATM   20  C   UNL     1      -0.592   4.659 -30.640  1.00  0.00     0.032 A 
HETATM   21  C   UNL     1       0.236   5.595 -30.012  1.00  0.00     0.039 A 
HETATM   22  C   UNL     1       0.193   6.936 -30.379  1.00  0.00     0.076 A 
HETATM   23  C   UNL     1      -0.701   7.350 -31.366  1.00  0.00     0.039 A 
HETATM   24  C   UNL     1      -1.526   6.413 -32.000  1.00  0.00     0.032 A 
BRANCH  22  25
HETATM   25  O   UNL     1       0.997   7.785 -29.656  1.00  0.00    -0.311 OA
BRANCH  25  26
HETATM   26  C   UNL     1       0.648   8.073 -28.359  1.00  0.00     0.076 A 
HETATM   27  C   UNL     1      -0.563   8.738 -28.162  1.00  0.00     0.037 A 
HETATM   28  C   UNL     1      -1.000   9.014 -26.866  1.00  0.00     0.003 A 
HETATM   29  C   UNL     1      -0.234   8.611 -25.772  1.00  0.00     0.000 A 
HETATM   30  C   UNL     1       0.965   7.924 -25.971  1.00  0.00     0.003 A 
HETATM   31  C   UNL     1       1.404   7.644 -27.266  1.00  0.00     0.037 A 
ENDBRANCH  25  26
ENDBRANCH  22  25
ENDBRANCH   2  19
TORSDOF 6
ENDMDL
MODEL 10
REMARK VINA RESULT:      -7.9      2.233      3.295
REMARK  6 active torsions:
REMARK  status: ('A' for Active; 'I' for Inactive)
REMARK    1  A    between atoms: C_2  and  N_3 
REMARK    2  A    between atoms: C_2  and  C_15 
REMARK    3  A    between atoms: C_5  and  C_6 
REMARK       I    between atoms: C_15  and  N_16 
REMARK    4  A    between atoms: N_16  and  C_17 
REMARK    5  A    between atoms: C_20  and  O_21 
REMARK    6  A    between atoms: O_21  and  C_22 
ROOT
HETATM    1  C   UNL     1      -5.579   3.701 -31.377  1.00  0.00     0.253 C 
HETATM    2  N   UNL     1      -4.895   2.658 -30.780  1.00  0.00    -0.325 N 
HETATM    3  O   UNL     1      -5.916   3.740 -32.560  1.00  0.00    -0.271 OA
HETATM    4  H   UNL     1      -4.564   2.762 -29.829  1.00  0.00     0.169 HD
ENDROOT
BRANCH   1   5
HETATM    5  C   UNL     1      -6.094   4.828 -30.440  1.00  0.00     0.276 C 
HETATM    6  C   UNL     1      -7.598   5.083 -30.434  1.00  0.00     0.050 C 
BRANCH   5   7
HETATM    7  N   UNL     1      -5.363   6.170 -30.661  1.00  0.00    -0.049 N 
HETATM    8  H   UNL     1      -5.237   6.265 -31.675  1.00  0.00     0.281 HD
HETATM    9  C   UNL     1      -3.984   6.282 -30.034  1.00  0.00     0.238 C 
HETATM   10  C   UNL     1      -4.201   7.183 -28.826  1.00  0.00     0.041 C 
HETATM   11  C   UNL     1      -5.246   8.176 -29.290  1.00  0.00     0.030 C 
HETATM   12  C   UNL     1      -6.166   7.382 -30.198  1.00  0.00     0.237 C 
BRANCH   9  13
HETATM   13  C   UNL     1      -2.991   6.851 -31.009  1.00  0.00     0.042 A 
HETATM   14  N   UNL     1      -2.080   6.070 -31.700  1.00  0.00    -0.363 N 
HETATM   15  C   UNL     1      -1.895   4.636 -31.593  1.00  0.00     0.155 C 
HETATM   16  C   UNL     1      -1.307   6.865 -32.506  1.00  0.00     0.090 A 
HETATM   17  C   UNL     1      -1.693   8.170 -32.328  1.00  0.00     0.019 A 
HETATM   18  C   UNL     1      -2.741   8.167 -31.383  1.00  0.00     0.028 A 
ENDBRANCH   9  13
ENDBRANCH   5   7
ENDBRANCH   1   5
BRANCH   2  19
HETATM   19  C   UNL     1      -4.517   1.437 -31.391  1.00  0.00     0.035 A 
HETATM   20  C   UNL     1      -3.411   1.290 -32.232  1.00  0.00     0.032 A 
HETATM   21  C   UNL     1      -3.129   0.056 -32.826  1.00  0.00     0.039 A 
HETATM   22  C   UNL     1      -3.940  -1.048 -32.581  1.00  0.00     0.076 A 
HETATM   23  C   UNL     1      -5.054  -0.912 -31.754  1.00  0.00     0.039 A 
HETATM   24  C   UNL     1      -5.333   0.322 -31.153  1.00  0.00     0.032 A 
BRANCH  22  25
HETATM   25  O   UNL     1      -3.618  -2.196 -33.265  1.00  0.00    -0.311 OA
BRANCH  25  26
HETATM   26  C   UNL     1      -4.618  -2.872 -33.921  1.00  0.00     0.076 A 
HETATM   27  C   UNL     1      -4.423  -4.236 -34.139  1.00  0.00     0.037 A 
HETATM   28  C   UNL     1      -5.422  -4.991 -34.753  1.00  0.00     0.003 A 
HETATM   29  C   UNL     1      -6.619  -4.383 -35.133  1.00  0.00     0.000 A 
HETATM   30  C   UNL     1      -6.823  -3.024 -34.891  1.00  0.00     0.003 A 
HETATM   31  C   UNL     1      -5.826  -2.266 -34.275  1.00  0.00     0.037 A 
ENDBRANCH  25  26
ENDBRANCH  22  25
ENDBRANCH   2  19
TORSDOF 6
ENDMDL
