MODEL 1
REMARK VINA RESULT:     -10.2      0.000      0.000
REMARK  7 active torsions:
REMARK  status: ('A' for Active; 'I' for Inactive)
REMARK    1  A    between atoms: C_5  and  O_6 
REMARK    2  A    between atoms: O_6  and  C_7 
REMARK    3  A    between atoms: C_7  and  C_8 
REMARK    4  A    between atoms: C_9  and  C_10 
REMARK    5  A    between atoms: C_10  and  N_11 
REMARK       I    between atoms: N_11  and  C_12 
REMARK    6  A    between atoms: C_12  and  C_13 
REMARK    7  A    between atoms: C_17  and  C_18 
ROOT
HETATM    1  N   UNL     1      -2.274   4.522 -31.197  1.00  0.00    -0.345 N 
HETATM    2  C   UNL     1      -1.170   5.308 -31.412  1.00  0.00     0.270 C 
HETATM    3  O   UNL     1      -0.756   5.584 -32.533  1.00  0.00    -0.266 OA
HETATM    4  H   UNL     1      -2.489   4.206 -30.264  1.00  0.00     0.163 HD
ENDROOT
BRANCH   1   5
HETATM    5  C   UNL     1      -3.034   3.964 -32.288  1.00  0.00     0.217 C 
BRANCH   5   6
HETATM    6  C   UNL     1      -3.288   2.538 -32.065  1.00  0.00    -0.085 C 
HETATM    7  C   UNL     1      -3.514   1.381 -31.832  1.00  0.00    -0.078 C 
BRANCH   7   8
HETATM    8  C   UNL     1      -3.813  -0.020 -31.503  1.00  0.00     0.269 C 
BRANCH   8   9
HETATM    9  O   UNL     1      -3.582  -0.819 -32.661  1.00  0.00    -0.339 OA
BRANCH   9  10
HETATM   10  C   UNL     1      -4.664  -1.169 -33.434  1.00  0.00     0.081 A 
HETATM   11  C   UNL     1      -4.741  -2.534 -33.813  1.00  0.00     0.007 A 
HETATM   12  C   UNL     1      -5.827  -2.970 -34.611  1.00  0.00    -0.023 A 
HETATM   13  C   UNL     1      -3.778  -3.494 -33.429  1.00  0.00     0.015 A 
HETATM   14  C   UNL     1      -5.918  -4.318 -34.995  1.00  0.00     0.012 A 
HETATM   15  C   UNL     1      -6.804  -2.049 -35.012  1.00  0.00     0.012 A 
HETATM   16  C   UNL     1      -4.951  -5.243 -34.601  1.00  0.00     0.001 A 
HETATM   17  C   UNL     1      -3.880  -4.832 -33.817  1.00  0.00     0.001 A 
HETATM   18  C   UNL     1      -6.718  -0.710 -34.636  1.00  0.00     0.004 A 
HETATM   19  C   UNL     1      -5.652  -0.271 -33.851  1.00  0.00     0.038 A 
ENDBRANCH   9  10
ENDBRANCH   8   9
ENDBRANCH   7   8
ENDBRANCH   5   6
ENDBRANCH   1   5
BRANCH   2  20
HETATM   20  C   UNL     1      -0.523   5.799 -30.225  1.00  0.00     0.120 A 
HETATM   21  N   UNL     1       0.220   4.974 -29.428  1.00  0.00    -0.272 N 
HETATM   22  H   UNL     1       0.383   3.981 -29.568  1.00  0.00     0.189 HD
HETATM   23  N   UNL     1       0.771   5.581 -28.368  1.00  0.00    -0.174 NA
HETATM   24  C   UNL     1       0.409   6.867 -28.485  1.00  0.00     0.089 A 
HETATM   25  C   UNL     1      -0.424   7.041 -29.629  1.00  0.00     0.071 A 
BRANCH  24  26
HETATM   26  C   UNL     1       0.864   7.882 -27.526  1.00  0.00    -0.005 A 
HETATM   27  C   UNL     1       0.513   9.233 -27.675  1.00  0.00     0.017 A 
HETATM   28  C   UNL     1       0.965  10.191 -26.760  1.00  0.00     0.043 A 
HETATM   29  C   UNL     1       1.768   9.800 -25.697  1.00  0.00     0.116 A 
HETATM   30  F   UNL     1       2.201  10.720 -24.825  1.00  0.00    -0.206 F 
HETATM   31  C   UNL     1       2.131   8.471 -25.528  1.00  0.00     0.043 A 
HETATM   32  C   UNL     1       1.681   7.515 -26.442  1.00  0.00     0.017 A 
ENDBRANCH  24  26
ENDBRANCH   2  20
TORSDOF 7
ENDMDL
MODEL 2
REMARK VINA RESULT:     -10.0      2.089      3.085
REMARK  7 active torsions:
REMARK  status: ('A' for Active; 'I' for Inactive)
REMARK    1  A    between atoms: C_5  and  O_6 
REMARK    2  A    between atoms: O_6  and  C_7 
REMARK    3  A    between atoms: C_7  and  C_8 
REMARK    4  A    between atoms: C_9  and  C_10 
REMARK    5  A    between atoms: C_10  and  N_11 
REMARK       I    between atoms: N_11  and  C_12 
REMARK    6  A    between atoms: C_12  and  C_13 
REMARK    7  A    between atoms: C_17  and  C_18 
ROOT
HETATM    1  N   UNL     1      -2.548   5.469 -33.635  1.00  0.00    -0.345 N 
HETATM    2  C   UNL     1      -1.768   6.564 -33.358  1.00  0.00     0.270 C 
HETATM    3  O   UNL     1      -1.702   7.541 -34.098  1.00  0.00    -0.266 OA
HETATM    4  H   UNL     1      -2.459   4.637 -33.074  1.00  0.00     0.163 HD
ENDROOT
BRANCH   1   5
HETATM    5  C   UNL     1      -3.355   5.393 -34.828  1.00  0.00     0.217 C 
BRANCH   5   6
HETATM    6  C   UNL     1      -4.680   4.847 -34.521  1.00  0.00    -0.085 C 
HETATM    7  C   UNL     1      -5.750   4.391 -34.219  1.00  0.00    -0.078 C 
BRANCH   7   8
HETATM    8  C   UNL     1      -7.044   3.834 -33.799  1.00  0.00     0.269 C 
BRANCH   8   9
HETATM    9  O   UNL     1      -6.805   2.660 -33.028  1.00  0.00    -0.339 OA
BRANCH   9  10
HETATM   10  C   UNL     1      -6.777   1.450 -33.681  1.00  0.00     0.081 A 
HETATM   11  C   UNL     1      -5.717   0.576 -33.323  1.00  0.00     0.007 A 
HETATM   12  C   UNL     1      -5.621  -0.689 -33.955  1.00  0.00    -0.023 A 
HETATM   13  C   UNL     1      -4.741   0.906 -32.356  1.00  0.00     0.015 A 
HETATM   14  C   UNL     1      -4.578  -1.566 -33.612  1.00  0.00     0.012 A 
HETATM   15  C   UNL     1      -6.570  -1.054 -34.919  1.00  0.00     0.012 A 
HETATM   16  C   UNL     1      -3.629  -1.211 -32.655  1.00  0.00     0.001 A 
HETATM   17  C   UNL     1      -3.710   0.025 -32.025  1.00  0.00     0.001 A 
HETATM   18  C   UNL     1      -7.606  -0.188 -35.263  1.00  0.00     0.004 A 
HETATM   19  C   UNL     1      -7.708   1.060 -34.648  1.00  0.00     0.038 A 
ENDBRANCH   9  10
ENDBRANCH   8   9
ENDBRANCH   7   8
ENDBRANCH   5   6
ENDBRANCH   1   5
BRANCH   2  20
HETATM   20  C   UNL     1      -1.028   6.497 -32.126  1.00  0.00     0.120 A 
HETATM   21  N   UNL     1      -0.037   5.575 -31.944  1.00  0.00    -0.272 N 
HETATM   22  H   UNL     1       0.267   4.871 -32.609  1.00  0.00     0.189 HD
HETATM   23  N   UNL     1       0.570   5.648 -30.750  1.00  0.00    -0.174 NA
HETATM   24  C   UNL     1      -0.018   6.682 -30.131  1.00  0.00     0.089 A 
HETATM   25  C   UNL     1      -1.045   7.229 -30.955  1.00  0.00     0.071 A 
BRANCH  24  26
HETATM   26  C   UNL     1       0.409   7.120 -28.796  1.00  0.00    -0.005 A 
HETATM   27  C   UNL     1       1.245   8.236 -28.629  1.00  0.00     0.017 A 
HETATM   28  C   UNL     1       1.656   8.633 -27.352  1.00  0.00     0.043 A 
HETATM   29  C   UNL     1       1.230   7.917 -26.241  1.00  0.00     0.116 A 
HETATM   30  F   UNL     1       1.627   8.299 -25.019  1.00  0.00    -0.206 F 
HETATM   31  C   UNL     1       0.405   6.810 -26.378  1.00  0.00     0.043 A 
HETATM   32  C   UNL     1      -0.003   6.412 -27.654  1.00  0.00     0.017 A 
ENDBRANCH  24  26
ENDBRANCH   2  20
TORSDOF 7
ENDMDL
MODEL 3
REMARK VINA RESULT:      -9.8      5.029     12.075
REMARK  7 active torsions:
REMARK  status: ('A' for Active; 'I' for Inactive)
REMARK    1  A    between atoms: C_5  and  O_6 
REMARK    2  A    between atoms: O_6  and  C_7 
REMARK    3  A    between atoms: C_7  and  C_8 
REMARK    4  A    between atoms: C_9  and  C_10 
REMARK    5  A    between atoms: C_10  and  N_11 
REMARK       I    between atoms: N_11  and  C_12 
REMARK    6  A    between atoms: C_12  and  C_13 
REMARK    7  A    between atoms: C_17  and  C_18 
ROOT
HETATM    1  N   UNL     1      -5.609   3.632 -34.186  1.00  0.00    -0.345 N 
HETATM    2  C   UNL     1      -6.814   3.009 -33.975  1.00  0.00     0.270 C 
HETATM    3  O   UNL     1      -7.817   3.606 -33.598  1.00  0.00    -0.266 OA
HETATM    4  H   UNL     1      -4.784   3.080 -34.355  1.00  0.00     0.163 HD
ENDROOT
BRANCH   1   5
HETATM    5  C   UNL     1      -5.440   5.049 -33.980  1.00  0.00     0.217 C 
BRANCH   5   6
HETATM    6  C   UNL     1      -4.048   5.443 -34.215  1.00  0.00    -0.085 C 
HETATM    7  C   UNL     1      -2.892   5.732 -34.367  1.00  0.00    -0.078 C 
BRANCH   7   8
HETATM    8  C   UNL     1      -1.464   6.048 -34.521  1.00  0.00     0.269 C 
BRANCH   8   9
HETATM    9  O   UNL     1      -1.137   7.120 -33.641  1.00  0.00    -0.339 OA
BRANCH   9  10
HETATM   10  C   UNL     1      -0.785   6.812 -32.348  1.00  0.00     0.081 A 
HETATM   11  C   UNL     1      -1.245   7.710 -31.348  1.00  0.00     0.007 A 
HETATM   12  C   UNL     1      -0.921   7.459 -29.992  1.00  0.00    -0.023 A 
HETATM   13  C   UNL     1      -2.021   8.854 -31.641  1.00  0.00     0.015 A 
HETATM   14  C   UNL     1      -1.368   8.338 -28.991  1.00  0.00     0.012 A 
HETATM   15  C   UNL     1      -0.154   6.334 -29.661  1.00  0.00     0.012 A 
HETATM   16  C   UNL     1      -2.131   9.460 -29.310  1.00  0.00     0.001 A 
HETATM   17  C   UNL     1      -2.459   9.719 -30.636  1.00  0.00     0.001 A 
HETATM   18  C   UNL     1       0.294   5.461 -30.650  1.00  0.00     0.004 A 
HETATM   19  C   UNL     1      -0.019   5.699 -31.988  1.00  0.00     0.038 A 
ENDBRANCH   9  10
ENDBRANCH   8   9
ENDBRANCH   7   8
ENDBRANCH   5   6
ENDBRANCH   1   5
BRANCH   2  20
HETATM   20  C   UNL     1      -6.828   1.594 -34.233  1.00  0.00     0.120 A 
HETATM   21  N   UNL     1      -7.787   1.027 -35.024  1.00  0.00    -0.272 N 
HETATM   22  H   UNL     1      -8.556   1.506 -35.484  1.00  0.00     0.189 HD
HETATM   23  N   UNL     1      -7.659  -0.298 -35.182  1.00  0.00    -0.174 NA
HETATM   24  C   UNL     1      -6.550  -0.617 -34.498  1.00  0.00     0.089 A 
HETATM   25  C   UNL     1      -6.010   0.543 -33.868  1.00  0.00     0.071 A 
BRANCH  24  26
HETATM   26  C   UNL     1      -6.037  -1.992 -34.468  1.00  0.00    -0.005 A 
HETATM   27  C   UNL     1      -4.717  -2.269 -34.075  1.00  0.00     0.017 A 
HETATM   28  C   UNL     1      -4.239  -3.583 -34.064  1.00  0.00     0.043 A 
HETATM   29  C   UNL     1      -5.077  -4.623 -34.445  1.00  0.00     0.116 A 
HETATM   30  F   UNL     1      -4.615  -5.880 -34.436  1.00  0.00    -0.206 F 
HETATM   31  C   UNL     1      -6.385  -4.377 -34.839  1.00  0.00     0.043 A 
HETATM   32  C   UNL     1      -6.862  -3.064 -34.852  1.00  0.00     0.017 A 
ENDBRANCH  24  26
ENDBRANCH   2  20
TORSDOF 7
ENDMDL
MODEL 4
REMARK VINA RESULT:      -9.6      1.285      1.776
REMARK  7 active torsions:
REMARK  status: ('A' for Active; 'I' for Inactive)
REMARK    1  A    between atoms: C_5  and  O_6 
REMARK    2  A    between atoms: O_6  and  C_7 
REMARK    3  A    between atoms: C_7  and  C_8 
REMARK    4  A    between atoms: C_9  and  C_10 
REMARK    5  A    between atoms: C_10  and  N_11 
REMARK       I    between atoms: N_11  and  C_12 
REMARK    6  A    between atoms: C_12  and  C_13 
REMARK    7  A    between atoms: C_17  and  C_18 
ROOT
HETATM    1  N   UNL     1      -1.169   5.241 -30.751  1.00  0.00    -0.345 N 
HETATM    2  C   UNL     1      -0.310   6.293 -30.558  1.00  0.00     0.270 C 
HETATM    3  O   UNL     1       0.230   6.893 -31.482  1.00  0.00    -0.266 OA
HETATM    4  H   UNL     1      -1.473   4.692 -29.962  1.00  0.00     0.163 HD
ENDROOT
BRANCH   1   5
HETATM    5  C   UNL     1      -1.503   4.764 -32.070  1.00  0.00     0.217 C 
BRANCH   5   6
HETATM    6  C   UNL     1      -2.625   3.823 -32.012  1.00  0.00    -0.085 C 
HETATM    7  C   UNL     1      -3.538   3.049 -31.910  1.00  0.00    -0.078 C 
BRANCH   7   8
HETATM    8  C   UNL     1      -4.654   2.107 -31.734  1.00  0.00     0.269 C 
BRANCH   8   9
HETATM    9  O   UNL     1      -4.425   0.972 -32.565  1.00  0.00    -0.339 OA
BRANCH   9  10
HETATM   10  C   UNL     1      -5.448   0.550 -33.381  1.00  0.00     0.081 A 
HETATM   11  C   UNL     1      -5.390  -0.806 -33.799  1.00  0.00     0.007 A 
HETATM   12  C   UNL     1      -6.409  -1.313 -34.642  1.00  0.00    -0.023 A 
HETATM   13  C   UNL     1      -4.356  -1.686 -33.411  1.00  0.00     0.015 A 
HETATM   14  C   UNL     1      -6.366  -2.652 -35.065  1.00  0.00     0.012 A 
HETATM   15  C   UNL     1      -7.453  -0.471 -35.049  1.00  0.00     0.012 A 
HETATM   16  C   UNL     1      -5.332  -3.497 -34.667  1.00  0.00     0.001 A 
HETATM   17  C   UNL     1      -4.326  -3.015 -33.838  1.00  0.00     0.001 A 
HETATM   18  C   UNL     1      -7.499   0.858 -34.634  1.00  0.00     0.004 A 
HETATM   19  C   UNL     1      -6.501   1.367 -33.805  1.00  0.00     0.038 A 
ENDBRANCH   9  10
ENDBRANCH   8   9
ENDBRANCH   7   8
ENDBRANCH   5   6
ENDBRANCH   1   5
BRANCH   2  20
HETATM   20  C   UNL     1      -0.084   6.659 -29.185  1.00  0.00     0.120 A 
HETATM   21  N   UNL     1      -0.362   5.794 -28.165  1.00  0.00    -0.272 N 
HETATM   22  H   UNL     1      -0.745   4.857 -28.251  1.00  0.00     0.189 HD
HETATM   23  N   UNL     1      -0.084   6.274 -26.944  1.00  0.00    -0.174 NA
HETATM   24  C   UNL     1       0.432   7.492 -27.166  1.00  0.00     0.089 A 
HETATM   25  C   UNL     1       0.429   7.780 -28.562  1.00  0.00     0.071 A 
BRANCH  24  26
HETATM   26  C   UNL     1       0.915   8.332 -26.063  1.00  0.00    -0.005 A 
HETATM   27  C   UNL     1       0.032   9.125 -25.312  1.00  0.00     0.017 A 
HETATM   28  C   UNL     1       0.508   9.931 -24.272  1.00  0.00     0.043 A 
HETATM   29  C   UNL     1       1.865   9.945 -23.980  1.00  0.00     0.116 A 
HETATM   30  F   UNL     1       2.318  10.720 -22.986  1.00  0.00    -0.206 F 
HETATM   31  C   UNL     1       2.760   9.172 -24.708  1.00  0.00     0.043 A 
HETATM   32  C   UNL     1       2.285   8.369 -25.748  1.00  0.00     0.017 A 
ENDBRANCH  24  26
ENDBRANCH   2  20
TORSDOF 7
ENDMDL
MODEL 5
REMARK VINA RESULT:      -9.5      4.626     11.335
REMARK  7 active torsions:
REMARK  status: ('A' for Active; 'I' for Inactive)
REMARK    1  A    between atoms: C_5  and  O_6 
REMARK    2  A    between atoms: O_6  and  C_7 
REMARK    3  A    between atoms: C_7  and  C_8 
REMARK    4  A    between atoms: C_9  and  C_10 
REMARK    5  A    between atoms: C_10  and  N_11 
REMARK       I    between atoms: N_11  and  C_12 
REMARK    6  A    between atoms: C_12  and  C_13 
REMARK    7  A    between atoms: C_17  and  C_18 
ROOT
HETATM    1  N   UNL     1      -4.547   3.306 -31.698  1.00  0.00    -0.345 N 
HETATM    2  C   UNL     1      -3.442   2.497 -31.604  1.00  0.00     0.270 C 
HETATM    3  O   UNL     1      -2.354   2.897 -31.203  1.00  0.00    -0.266 OA
HETATM    4  H   UNL     1      -5.374   2.970 -32.165  1.00  0.00     0.163 HD
ENDROOT
BRANCH   1   5
HETATM    5  C   UNL     1      -4.504   4.698 -31.324  1.00  0.00     0.217 C 
BRANCH   5   6
HETATM    6  C   UNL     1      -3.720   5.469 -32.292  1.00  0.00    -0.085 C 
HETATM    7  C   UNL     1      -3.072   6.141 -33.049  1.00  0.00    -0.078 C 
BRANCH   7   8
HETATM    8  C   UNL     1      -2.269   6.995 -33.935  1.00  0.00     0.269 C 
BRANCH   8   9
HETATM    9  O   UNL     1      -1.101   7.410 -33.232  1.00  0.00    -0.339 OA
BRANCH   9  10
HETATM   10  C   UNL     1      -1.238   7.795 -31.919  1.00  0.00     0.081 A 
HETATM   11  C   UNL     1      -0.575   6.983 -30.961  1.00  0.00     0.007 A 
HETATM   12  C   UNL     1      -0.671   7.316 -29.587  1.00  0.00    -0.023 A 
HETATM   13  C   UNL     1       0.187   5.846 -31.313  1.00  0.00     0.015 A 
HETATM   14  C   UNL     1      -0.022   6.523 -28.627  1.00  0.00     0.012 A 
HETATM   15  C   UNL     1      -1.417   8.437 -29.198  1.00  0.00     0.012 A 
HETATM   16  C   UNL     1       0.723   5.405 -29.004  1.00  0.00     0.001 A 
HETATM   17  C   UNL     1       0.828   5.066 -30.348  1.00  0.00     0.001 A 
HETATM   18  C   UNL     1      -2.065   9.226 -30.146  1.00  0.00     0.004 A 
HETATM   19  C   UNL     1      -1.977   8.906 -31.501  1.00  0.00     0.038 A 
ENDBRANCH   9  10
ENDBRANCH   8   9
ENDBRANCH   7   8
ENDBRANCH   5   6
ENDBRANCH   1   5
BRANCH   2  20
HETATM   20  C   UNL     1      -3.644   1.130 -32.004  1.00  0.00     0.120 A 
HETATM   21  N   UNL     1      -2.993   0.104 -31.379  1.00  0.00    -0.272 N 
HETATM   22  H   UNL     1      -2.327   0.184 -30.616  1.00  0.00     0.189 HD
HETATM   23  N   UNL     1      -3.297  -1.112 -31.854  1.00  0.00    -0.174 NA
HETATM   24  C   UNL     1      -4.213  -0.886 -32.808  1.00  0.00     0.089 A 
HETATM   25  C   UNL     1      -4.442   0.514 -32.947  1.00  0.00     0.071 A 
BRANCH  24  26
HETATM   26  C   UNL     1      -4.841  -1.991 -33.544  1.00  0.00    -0.005 A 
HETATM   27  C   UNL     1      -6.143  -1.877 -34.056  1.00  0.00     0.017 A 
HETATM   28  C   UNL     1      -6.733  -2.943 -34.744  1.00  0.00     0.043 A 
HETATM   29  C   UNL     1      -6.023  -4.123 -34.921  1.00  0.00     0.116 A 
HETATM   30  F   UNL     1      -6.592  -5.143 -35.578  1.00  0.00    -0.206 F 
HETATM   31  C   UNL     1      -4.735  -4.263 -34.424  1.00  0.00     0.043 A 
HETATM   32  C   UNL     1      -4.146  -3.199 -33.735  1.00  0.00     0.017 A 
ENDBRANCH  24  26
ENDBRANCH   2  20
TORSDOF 7
ENDMDL
MODEL 6
REMARK VINA RESULT:      -9.4      2.405      3.524
REMARK  7 active torsions:
REMARK  status: ('A' for Active; 'I' for Inactive)
REMARK    1  A    between atoms: C_5  and  O_6 
REMARK    2  A    between atoms: O_6  and  C_7 
REMARK    3  A    between atoms: C_7  and  C_8 
REMARK    4  A    between atoms: C_9  and  C_10 
REMARK    5  A    between atoms: C_10  and  N_11 
REMARK       I    between atoms: N_11  and  C_12 
REMARK    6  A    between atoms: C_12  and  C_13 
REMARK    7  A    between atoms: C_17  and  C_18 
ROOT
HETATM    1  N   UNL     1      -4.935   5.044 -33.446  1.00  0.00    -0.345 N 
HETATM    2  C   UNL     1      -3.814   5.561 -34.045  1.00  0.00     0.270 C 
HETATM    3  O   UNL     1      -3.656   5.581 -35.262  1.00  0.00    -0.266 OA
HETATM    4  H   UNL     1      -4.955   4.920 -32.446  1.00  0.00     0.163 HD
ENDROOT
BRANCH   1   5
HETATM    5  C   UNL     1      -6.018   4.484 -34.215  1.00  0.00     0.217 C 
BRANCH   5   6
HETATM    6  C   UNL     1      -6.470   3.220 -33.628  1.00  0.00    -0.085 C 
HETATM    7  C   UNL     1      -6.793   2.179 -33.121  1.00  0.00    -0.078 C 
BRANCH   7   8
HETATM    8  C   UNL     1      -7.145   0.908 -32.471  1.00  0.00     0.269 C 
BRANCH   8   9
HETATM    9  O   UNL     1      -6.862  -0.158 -33.374  1.00  0.00    -0.339 OA
BRANCH   9  10
HETATM   10  C   UNL     1      -5.729  -0.907 -33.157  1.00  0.00     0.081 A 
HETATM   11  C   UNL     1      -5.700  -2.183 -33.779  1.00  0.00     0.007 A 
HETATM   12  C   UNL     1      -4.566  -3.012 -33.600  1.00  0.00    -0.023 A 
HETATM   13  C   UNL     1      -6.757  -2.672 -34.579  1.00  0.00     0.015 A 
HETATM   14  C   UNL     1      -4.521  -4.278 -34.209  1.00  0.00     0.012 A 
HETATM   15  C   UNL     1      -3.496  -2.562 -32.815  1.00  0.00     0.012 A 
HETATM   16  C   UNL     1      -5.580  -4.735 -34.992  1.00  0.00     0.001 A 
HETATM   17  C   UNL     1      -6.699  -3.932 -35.178  1.00  0.00     0.001 A 
HETATM   18  C   UNL     1      -3.536  -1.309 -32.208  1.00  0.00     0.004 A 
HETATM   19  C   UNL     1      -4.648  -0.485 -32.376  1.00  0.00     0.038 A 
ENDBRANCH   9  10
ENDBRANCH   8   9
ENDBRANCH   7   8
ENDBRANCH   5   6
ENDBRANCH   1   5
BRANCH   2  20
HETATM   20  C   UNL     1      -2.825   6.093 -33.146  1.00  0.00     0.120 A 
HETATM   21  N   UNL     1      -2.201   7.281 -33.400  1.00  0.00    -0.272 N 
HETATM   22  H   UNL     1      -2.346   7.883 -34.205  1.00  0.00     0.189 HD
HETATM   23  N   UNL     1      -1.316   7.650 -32.463  1.00  0.00    -0.174 NA
HETATM   24  C   UNL     1      -1.382   6.686 -31.533  1.00  0.00     0.089 A 
HETATM   25  C   UNL     1      -2.304   5.676 -31.937  1.00  0.00     0.071 A 
BRANCH  24  26
HETATM   26  C   UNL     1      -0.584   6.752 -30.301  1.00  0.00    -0.005 A 
HETATM   27  C   UNL     1      -0.001   5.601 -29.748  1.00  0.00     0.017 A 
HETATM   28  C   UNL     1       0.745   5.679 -28.567  1.00  0.00     0.043 A 
HETATM   29  C   UNL     1       0.909   6.905 -27.938  1.00  0.00     0.116 A 
HETATM   30  F   UNL     1       1.622   6.975 -26.806  1.00  0.00    -0.206 F 
HETATM   31  C   UNL     1       0.342   8.058 -28.463  1.00  0.00     0.043 A 
HETATM   32  C   UNL     1      -0.405   7.981 -29.641  1.00  0.00     0.017 A 
ENDBRANCH  24  26
ENDBRANCH   2  20
TORSDOF 7
ENDMDL
MODEL 7
REMARK VINA RESULT:      -9.4      1.402      2.592
REMARK  7 active torsions:
REMARK  status: ('A' for Active; 'I' for Inactive)
REMARK    1  A    between atoms: C_5  and  O_6 
REMARK    2  A    between atoms: O_6  and  C_7 
REMARK    3  A    between atoms: C_7  and  C_8 
REMARK    4  A    between atoms: C_9  and  C_10 
REMARK    5  A    between atoms: C_10  and  N_11 
REMARK       I    between atoms: N_11  and  C_12 
REMARK    6  A    between atoms: C_12  and  C_13 
REMARK    7  A    between atoms: C_17  and  C_18 
ROOT
HETATM    1  N   UNL     1      -2.787   4.768 -31.266  1.00  0.00    -0.345 N 
HETATM    2  C   UNL     1      -1.489   5.165 -31.062  1.00  0.00     0.270 C 
HETATM    3  O   UNL     1      -0.559   4.798 -31.773  1.00  0.00    -0.266 OA
HETATM    4  H   UNL     1      -3.488   4.979 -30.575  1.00  0.00     0.163 HD
ENDROOT
BRANCH   1   5
HETATM    5  C   UNL     1      -3.150   3.884 -32.346  1.00  0.00     0.217 C 
BRANCH   5   6
HETATM    6  C   UNL     1      -3.287   2.508 -31.863  1.00  0.00    -0.085 C 
HETATM    7  C   UNL     1      -3.346   1.373 -31.473  1.00  0.00    -0.078 C 
BRANCH   7   8
HETATM    8  C   UNL     1      -3.365  -0.017 -30.994  1.00  0.00     0.269 C 
BRANCH   8   9
HETATM    9  O   UNL     1      -4.670  -0.552 -31.204  1.00  0.00    -0.339 OA
BRANCH   9  10
HETATM   10  C   UNL     1      -4.959  -1.089 -32.436  1.00  0.00     0.081 A 
HETATM   11  C   UNL     1      -6.079  -0.533 -33.109  1.00  0.00     0.007 A 
HETATM   12  C   UNL     1      -6.439  -1.035 -34.383  1.00  0.00    -0.023 A 
HETATM   13  C   UNL     1      -6.861   0.511 -32.566  1.00  0.00     0.015 A 
HETATM   14  C   UNL     1      -7.545  -0.496 -35.062  1.00  0.00     0.012 A 
HETATM   15  C   UNL     1      -5.688  -2.070 -34.957  1.00  0.00     0.012 A 
HETATM   16  C   UNL     1      -8.299   0.534 -34.500  1.00  0.00     0.001 A 
HETATM   17  C   UNL     1      -7.957   1.038 -33.251  1.00  0.00     0.001 A 
HETATM   18  C   UNL     1      -4.592  -2.610 -34.287  1.00  0.00     0.004 A 
HETATM   19  C   UNL     1      -4.229  -2.123 -33.032  1.00  0.00     0.038 A 
ENDBRANCH   9  10
ENDBRANCH   8   9
ENDBRANCH   7   8
ENDBRANCH   5   6
ENDBRANCH   1   5
BRANCH   2  20
HETATM   20  C   UNL     1      -1.285   6.056 -29.951  1.00  0.00     0.120 A 
HETATM   21  N   UNL     1      -2.340   6.616 -29.288  1.00  0.00    -0.272 N 
HETATM   22  H   UNL     1      -3.326   6.484 -29.495  1.00  0.00     0.189 HD
HETATM   23  N   UNL     1      -1.990   7.411 -28.267  1.00  0.00    -0.174 NA
HETATM   24  C   UNL     1      -0.651   7.348 -28.229  1.00  0.00     0.089 A 
HETATM   25  C   UNL     1      -0.168   6.523 -29.287  1.00  0.00     0.071 A 
BRANCH  24  26
HETATM   26  C   UNL     1       0.121   8.057 -27.200  1.00  0.00    -0.005 A 
HETATM   27  C   UNL     1      -0.401   9.184 -26.546  1.00  0.00     0.017 A 
HETATM   28  C   UNL     1       0.352   9.857 -25.578  1.00  0.00     0.043 A 
HETATM   29  C   UNL     1       1.626   9.403 -25.261  1.00  0.00     0.116 A 
HETATM   30  F   UNL     1       2.345  10.051 -24.334  1.00  0.00    -0.206 F 
HETATM   31  C   UNL     1       2.166   8.292 -25.893  1.00  0.00     0.043 A 
HETATM   32  C   UNL     1       1.415   7.622 -26.862  1.00  0.00     0.017 A 
ENDBRANCH  24  26
ENDBRANCH   2  20
TORSDOF 7
ENDMDL
MODEL 8
REMARK VINA RESULT:      -9.2      2.662      4.028
REMARK  7 active torsions:
REMARK  status: ('A' for Active; 'I' for Inactive)
REMARK    1  A    between atoms: C_5  and  O_6 
REMARK    2  A    between atoms: O_6  and  C_7 
REMARK    3  A    between atoms: C_7  and  C_8 
REMARK    4  A    between atoms: C_9  and  C_10 
REMARK    5  A    between atoms: C_10  and  N_11 
REMARK       I    between atoms: N_11  and  C_12 
REMARK    6  A    between atoms: C_12  and  C_13 
REMARK    7  A    between atoms: C_17  and  C_18 
ROOT
HETATM    1  N   UNL     1      -5.373   5.128 -33.248  1.00  0.00    -0.345 N 
HETATM    2  C   UNL     1      -4.233   5.471 -33.930  1.00  0.00     0.270 C 
HETATM    3  O   UNL     1      -4.131   5.379 -35.149  1.00  0.00    -0.266 OA
HETATM    4  H   UNL     1      -5.359   5.085 -32.241  1.00  0.00     0.163 HD
ENDROOT
BRANCH   1   5
HETATM    5  C   UNL     1      -6.546   4.634 -33.927  1.00  0.00     0.217 C 
BRANCH   5   6
HETATM    6  C   UNL     1      -7.320   3.754 -33.047  1.00  0.00    -0.085 C 
HETATM    7  C   UNL     1      -7.910   3.001 -32.320  1.00  0.00    -0.078 C 
BRANCH   7   8
HETATM    8  C   UNL     1      -8.588   2.057 -31.420  1.00  0.00     0.269 C 
BRANCH   8   9
HETATM    9  O   UNL     1      -8.254   0.730 -31.817  1.00  0.00    -0.339 OA
BRANCH   9  10
HETATM   10  C   UNL     1      -6.945   0.326 -31.690  1.00  0.00     0.081 A 
HETATM   11  C   UNL     1      -6.474  -0.574 -32.682  1.00  0.00     0.007 A 
HETATM   12  C   UNL     1      -5.136  -1.035 -32.617  1.00  0.00    -0.023 A 
HETATM   13  C   UNL     1      -7.280  -1.036 -33.746  1.00  0.00     0.015 A 
HETATM   14  C   UNL     1      -4.654  -1.925 -33.591  1.00  0.00     0.012 A 
HETATM   15  C   UNL     1      -4.303  -0.599 -31.578  1.00  0.00     0.012 A 
HETATM   16  C   UNL     1      -5.474  -2.365 -34.629  1.00  0.00     0.001 A 
HETATM   17  C   UNL     1      -6.788  -1.921 -34.708  1.00  0.00     0.001 A 
HETATM   18  C   UNL     1      -4.778   0.283 -30.608  1.00  0.00     0.004 A 
HETATM   19  C   UNL     1      -6.093   0.742 -30.662  1.00  0.00     0.038 A 
ENDBRANCH   9  10
ENDBRANCH   8   9
ENDBRANCH   7   8
ENDBRANCH   5   6
ENDBRANCH   1   5
BRANCH   2  20
HETATM   20  C   UNL     1      -3.151   5.957 -33.116  1.00  0.00     0.120 A 
HETATM   21  N   UNL     1      -2.332   6.961 -33.550  1.00  0.00    -0.272 N 
HETATM   22  H   UNL     1      -2.383   7.442 -34.444  1.00  0.00     0.189 HD
HETATM   23  N   UNL     1      -1.381   7.314 -32.674  1.00  0.00    -0.174 NA
HETATM   24  C   UNL     1      -1.600   6.538 -31.602  1.00  0.00     0.089 A 
HETATM   25  C   UNL     1      -2.692   5.655 -31.849  1.00  0.00     0.071 A 
BRANCH  24  26
HETATM   26  C   UNL     1      -0.784   6.661 -30.387  1.00  0.00    -0.005 A 
HETATM   27  C   UNL     1      -0.657   7.888 -29.716  1.00  0.00     0.017 A 
HETATM   28  C   UNL     1       0.135   7.992 -28.568  1.00  0.00     0.043 A 
HETATM   29  C   UNL     1       0.800   6.872 -28.088  1.00  0.00     0.116 A 
HETATM   30  F   UNL     1       1.560   6.976 -26.990  1.00  0.00    -0.206 F 
HETATM   31  C   UNL     1       0.693   5.647 -28.733  1.00  0.00     0.043 A 
HETATM   32  C   UNL     1      -0.097   5.544 -29.881  1.00  0.00     0.017 A 
ENDBRANCH  24  26
ENDBRANCH   2  20
TORSDOF 7
ENDMDL
MODEL 9
REMARK VINA RESULT:      -9.2      5.036     11.672
REMARK  7 active torsions:
REMARK  status: ('A' for Active; 'I' for Inactive)
REMARK    1  A    between atoms: C_5  and  O_6 
REMARK    2  A    between atoms: O_6  and  C_7 
REMARK    3  A    between atoms: C_7  and  C_8 
REMARK    4  A    between atoms: C_9  and  C_10 
REMARK    5  A    between atoms: C_10  and  N_11 
REMARK       I    between atoms: N_11  and  C_12 
REMARK    6  A    between atoms: C_12  and  C_13 
REMARK    7  A    between atoms: C_17  and  C_18 
ROOT
HETATM    1  N   UNL     1      -5.626   3.792 -34.145  1.00  0.00    -0.345 N 
HETATM    2  C   UNL     1      -6.559   3.164 -33.358  1.00  0.00     0.270 C 
HETATM    3  O   UNL     1      -7.229   3.755 -32.517  1.00  0.00    -0.266 OA
HETATM    4  H   UNL     1      -5.003   3.243 -34.715  1.00  0.00     0.163 HD
ENDROOT
BRANCH   1   5
HETATM    5  C   UNL     1      -5.369   5.206 -34.038  1.00  0.00     0.217 C 
BRANCH   5   6
HETATM    6  C   UNL     1      -3.928   5.471 -34.022  1.00  0.00    -0.085 C 
HETATM    7  C   UNL     1      -2.738   5.639 -34.032  1.00  0.00    -0.078 C 
BRANCH   7   8
HETATM    8  C   UNL     1      -1.278   5.803 -34.073  1.00  0.00     0.269 C 
BRANCH   8   9
HETATM    9  O   UNL     1      -0.958   7.136 -33.683  1.00  0.00    -0.339 OA
BRANCH   9  10
HETATM   10  C   UNL     1      -1.242   7.519 -32.393  1.00  0.00     0.081 A 
HETATM   11  C   UNL     1      -0.583   6.789 -31.369  1.00  0.00     0.007 A 
HETATM   12  C   UNL     1      -0.826   7.126 -30.015  1.00  0.00    -0.023 A 
HETATM   13  C   UNL     1       0.316   5.732 -31.635  1.00  0.00     0.015 A 
HETATM   14  C   UNL     1      -0.182   6.413 -28.989  1.00  0.00     0.012 A 
HETATM   15  C   UNL     1      -1.711   8.169 -29.709  1.00  0.00     0.012 A 
HETATM   16  C   UNL     1       0.699   5.373 -29.283  1.00  0.00     0.001 A 
HETATM   17  C   UNL     1       0.950   5.032 -30.607  1.00  0.00     0.001 A 
HETATM   18  C   UNL     1      -2.354   8.877 -30.722  1.00  0.00     0.004 A 
HETATM   19  C   UNL     1      -2.122   8.554 -32.058  1.00  0.00     0.038 A 
ENDBRANCH   9  10
ENDBRANCH   8   9
ENDBRANCH   7   8
ENDBRANCH   5   6
ENDBRANCH   1   5
BRANCH   2  20
HETATM   20  C   UNL     1      -6.708   1.752 -33.588  1.00  0.00     0.120 A 
HETATM   21  N   UNL     1      -7.937   1.193 -33.797  1.00  0.00    -0.272 N 
HETATM   22  H   UNL     1      -8.830   1.677 -33.805  1.00  0.00     0.189 HD
HETATM   23  N   UNL     1      -7.912  -0.130 -34.012  1.00  0.00    -0.174 NA
HETATM   24  C   UNL     1      -6.611  -0.456 -33.979  1.00  0.00     0.089 A 
HETATM   25  C   UNL     1      -5.823   0.697 -33.692  1.00  0.00     0.071 A 
BRANCH  24  26
HETATM   26  C   UNL     1      -6.160  -1.832 -34.224  1.00  0.00    -0.005 A 
HETATM   27  C   UNL     1      -7.054  -2.826 -34.652  1.00  0.00     0.017 A 
HETATM   28  C   UNL     1      -6.612  -4.135 -34.869  1.00  0.00     0.043 A 
HETATM   29  C   UNL     1      -5.276  -4.453 -34.659  1.00  0.00     0.116 A 
HETATM   30  F   UNL     1      -4.857  -5.708 -34.864  1.00  0.00    -0.206 F 
HETATM   31  C   UNL     1      -4.372  -3.489 -34.234  1.00  0.00     0.043 A 
HETATM   32  C   UNL     1      -4.814  -2.182 -34.015  1.00  0.00     0.017 A 
ENDBRANCH  24  26
ENDBRANCH   2  20
TORSDOF 7
ENDMDL
MODEL 10
REMARK VINA RESULT:      -9.2      4.611     11.641
REMARK  7 active torsions:
REMARK  status: ('A' for Active; 'I' for Inactive)
REMARK    1  A    between atoms: C_5  and  O_6 
REMARK    2  A    between atoms: O_6  and  C_7 
REMARK    3  A    between atoms: C_7  and  C_8 
REMARK    4  A    between atoms: C_9  and  C_10 
REMARK    5  A    between atoms: C_10  and  N_11 
REMARK       I    between atoms: N_11  and  C_12 
REMARK    6  A    between atoms: C_12  and  C_13 
REMARK    7  A    between atoms: C_17  and  C_18 
ROOT
HETATM    1  N   UNL     1      -4.899   4.058 -32.460  1.00  0.00    -0.345 N 
HETATM    2  C   UNL     1      -4.875   2.996 -31.591  1.00  0.00     0.270 C 
HETATM    3  O   UNL     1      -4.993   3.124 -30.377  1.00  0.00    -0.266 OA
HETATM    4  H   UNL     1      -4.655   3.917 -33.428  1.00  0.00     0.163 HD
ENDROOT
BRANCH   1   5
HETATM    5  C   UNL     1      -5.070   5.413 -31.999  1.00  0.00     0.217 C 
BRANCH   5   6
HETATM    6  C   UNL     1      -3.873   6.210 -32.282  1.00  0.00    -0.085 C 
HETATM    7  C   UNL     1      -2.901   6.856 -32.567  1.00  0.00    -0.078 C 
BRANCH   7   8
HETATM    8  C   UNL     1      -1.726   7.645 -32.966  1.00  0.00     0.269 C 
BRANCH   8   9
HETATM    9  O   UNL     1      -1.021   8.037 -31.790  1.00  0.00    -0.339 OA
BRANCH   9  10
HETATM   10  C   UNL     1      -0.424   7.055 -31.035  1.00  0.00     0.081 A 
HETATM   11  C   UNL     1      -0.501   7.220 -29.627  1.00  0.00     0.007 A 
HETATM   12  C   UNL     1       0.093   6.249 -28.784  1.00  0.00    -0.023 A 
HETATM   13  C   UNL     1      -1.149   8.317 -29.017  1.00  0.00     0.015 A 
HETATM   14  C   UNL     1       0.026   6.398 -27.389  1.00  0.00     0.012 A 
HETATM   15  C   UNL     1       0.744   5.146 -29.351  1.00  0.00     0.012 A 
HETATM   16  C   UNL     1      -0.621   7.492 -26.814  1.00  0.00     0.001 A 
HETATM   17  C   UNL     1      -1.209   8.452 -27.628  1.00  0.00     0.001 A 
HETATM   18  C   UNL     1       0.816   4.995 -30.735  1.00  0.00     0.004 A 
HETATM   19  C   UNL     1       0.236   5.945 -31.574  1.00  0.00     0.038 A 
ENDBRANCH   9  10
ENDBRANCH   8   9
ENDBRANCH   7   8
ENDBRANCH   5   6
ENDBRANCH   1   5
BRANCH   2  20
HETATM   20  C   UNL     1      -4.707   1.704 -32.202  1.00  0.00     0.120 A 
HETATM   21  N   UNL     1      -3.477   1.118 -32.294  1.00  0.00    -0.272 N 
HETATM   22  H   UNL     1      -2.594   1.504 -31.972  1.00  0.00     0.189 HD
HETATM   23  N   UNL     1      -3.484  -0.091 -32.875  1.00  0.00    -0.174 NA
HETATM   24  C   UNL     1      -4.776  -0.331 -33.146  1.00  0.00     0.089 A 
HETATM   25  C   UNL     1      -5.575   0.785 -32.758  1.00  0.00     0.071 A 
BRANCH  24  26
HETATM   26  C   UNL     1      -5.210  -1.596 -33.751  1.00  0.00    -0.005 A 
HETATM   27  C   UNL     1      -4.301  -2.641 -33.985  1.00  0.00     0.017 A 
HETATM   28  C   UNL     1      -4.727  -3.836 -34.574  1.00  0.00     0.043 A 
HETATM   29  C   UNL     1      -6.061  -3.990 -34.928  1.00  0.00     0.116 A 
HETATM   30  F   UNL     1      -6.465  -5.135 -35.495  1.00  0.00    -0.206 F 
HETATM   31  C   UNL     1      -6.980  -2.973 -34.709  1.00  0.00     0.043 A 
HETATM   32  C   UNL     1      -6.554  -1.778 -34.123  1.00  0.00     0.017 A 
ENDBRANCH  24  26
ENDBRANCH   2  20
TORSDOF 7
ENDMDL
