MODEL 1
REMARK VINA RESULT:      -7.7      0.000      0.000
REMARK  2 active torsions:
REMARK  status: ('A' for Active; 'I' for Inactive)
REMARK    1  A    between atoms: S_2  and  N_3 
REMARK    2  A    between atoms: C_10  and  N_11 
ROOT
HETATM    1  N   UNL     1      -7.775   1.623 -32.284  1.00  0.00    -0.311 N 
HETATM    2  C   UNL     1      -6.893   2.016 -33.406  1.00  0.00     0.138 C 
HETATM    3  C   UNL     1      -5.423   1.769 -33.069  1.00  0.00     0.059 C 
HETATM    4  C   UNL     1      -5.146   0.341 -32.548  1.00  0.00     0.073 C 
HETATM    5  O   UNL     1      -5.284  -0.533 -33.684  1.00  0.00    -0.339 OA
HETATM    6  C   UNL     1      -4.732  -1.780 -33.589  1.00  0.00     0.078 A 
HETATM    7  C   UNL     1      -3.786  -2.145 -32.623  1.00  0.00     0.005 A 
HETATM    8  C   UNL     1      -3.310  -1.128 -31.626  1.00  0.00     0.222 C 
HETATM    9  C   UNL     1      -3.695   0.288 -32.044  1.00  0.00     0.076 C 
HETATM   10  C   UNL     1      -5.169  -2.701 -34.541  1.00  0.00     0.037 A 
HETATM   11  C   UNL     1      -4.700  -4.011 -34.515  1.00  0.00     0.003 A 
HETATM   12  C   UNL     1      -3.798  -4.403 -33.531  1.00  0.00     0.001 A 
HETATM   13  C   UNL     1      -3.346  -3.480 -32.585  1.00  0.00     0.012 A 
HETATM   14  C   UNL     1      -6.169  -0.044 -31.456  1.00  0.00     0.059 C 
HETATM   15  C   UNL     1      -7.602   0.201 -31.919  1.00  0.00     0.138 C 
ENDROOT
BRANCH   8  16
HETATM   16  N   UNL     1      -1.828  -1.148 -31.450  1.00  0.00    -0.071 N 
HETATM   17  H   UNL     1      -1.551  -1.750 -30.668  1.00  0.00     0.275 HD
HETATM   18  H   UNL     1      -1.371  -1.513 -32.296  1.00  0.00     0.275 HD
HETATM   19  H   UNL     1      -1.453  -0.210 -31.263  1.00  0.00     0.275 HD
ENDBRANCH   8  16
BRANCH   1  20
HETATM   20  S   UNL     1      -8.004   2.715 -31.002  1.00  0.00     0.224 S 
HETATM   21  C   UNL     1      -7.831   4.291 -31.814  1.00  0.00     0.186 C 
HETATM   22  O   UNL     1      -6.910   2.527 -30.073  1.00  0.00    -0.206 OA
HETATM   23  O   UNL     1      -9.375   2.589 -30.558  1.00  0.00    -0.206 OA
ENDBRANCH   1  20
TORSDOF 2
ENDMDL
MODEL 2
REMARK VINA RESULT:      -7.0      2.576      3.838
REMARK  2 active torsions:
REMARK  status: ('A' for Active; 'I' for Inactive)
REMARK    1  A    between atoms: S_2  and  N_3 
REMARK    2  A    between atoms: C_10  and  N_11 
ROOT
HETATM    1  N   UNL     1      -8.908   3.329 -32.808  1.00  0.00    -0.311 N 
HETATM    2  C   UNL     1      -9.347   2.277 -31.864  1.00  0.00     0.138 C 
HETATM    3  C   UNL     1      -9.144   0.882 -32.452  1.00  0.00     0.059 C 
HETATM    4  C   UNL     1      -7.719   0.651 -33.002  1.00  0.00     0.073 C 
HETATM    5  O   UNL     1      -6.857   0.555 -31.853  1.00  0.00    -0.339 OA
HETATM    6  C   UNL     1      -5.628  -0.015 -32.033  1.00  0.00     0.078 A 
HETATM    7  C   UNL     1      -5.281  -0.788 -33.148  1.00  0.00     0.005 A 
HETATM    8  C   UNL     1      -6.298  -1.044 -34.222  1.00  0.00     0.222 C 
HETATM    9  C   UNL     1      -7.707  -0.690 -33.755  1.00  0.00     0.076 C 
HETATM   10  C   UNL     1      -4.707   0.214 -31.011  1.00  0.00     0.037 A 
HETATM   11  C   UNL     1      -3.413  -0.289 -31.108  1.00  0.00     0.003 A 
HETATM   12  C   UNL     1      -3.037  -1.017 -32.233  1.00  0.00     0.001 A 
HETATM   13  C   UNL     1      -3.961  -1.262 -33.252  1.00  0.00     0.012 A 
HETATM   14  C   UNL     1      -7.284   1.837 -33.893  1.00  0.00     0.059 C 
HETATM   15  C   UNL     1      -7.487   3.172 -33.186  1.00  0.00     0.138 C 
ENDROOT
BRANCH   8  16
HETATM   16  N   UNL     1      -6.326  -2.472 -34.657  1.00  0.00    -0.071 N 
HETATM   17  H   UNL     1      -6.647  -2.563 -35.627  1.00  0.00     0.275 HD
HETATM   18  H   UNL     1      -5.383  -2.882 -34.605  1.00  0.00     0.275 HD
HETATM   19  H   UNL     1      -6.953  -3.038 -34.072  1.00  0.00     0.275 HD
ENDBRANCH   8  16
BRANCH   1  20
HETATM   20  S   UNL     1      -9.973   3.819 -34.039  1.00  0.00     0.224 S 
HETATM   21  C   UNL     1     -11.297   4.571 -33.114  1.00  0.00     0.186 C 
HETATM   22  O   UNL     1     -10.459   2.623 -34.692  1.00  0.00    -0.206 OA
HETATM   23  O   UNL     1      -9.315   4.857 -34.801  1.00  0.00    -0.206 OA
ENDBRANCH   1  20
TORSDOF 2
ENDMDL
MODEL 3
REMARK VINA RESULT:      -6.9      4.812      6.860
REMARK  2 active torsions:
REMARK  status: ('A' for Active; 'I' for Inactive)
REMARK    1  A    between atoms: S_2  and  N_3 
REMARK    2  A    between atoms: C_10  and  N_11 
ROOT
HETATM    1  N   UNL     1      -5.341   2.685 -30.694  1.00  0.00    -0.311 N 
HETATM    2  C   UNL     1      -4.225   1.765 -31.012  1.00  0.00     0.138 C 
HETATM    3  C   UNL     1      -3.470   2.218 -32.261  1.00  0.00     0.059 C 
HETATM    4  C   UNL     1      -3.041   3.702 -32.212  1.00  0.00     0.073 C 
HETATM    5  O   UNL     1      -1.977   3.779 -31.245  1.00  0.00    -0.339 OA
HETATM    6  C   UNL     1      -1.173   4.884 -31.280  1.00  0.00     0.078 A 
HETATM    7  C   UNL     1      -1.106   5.768 -32.364  1.00  0.00     0.005 A 
HETATM    8  C   UNL     1      -1.937   5.509 -33.588  1.00  0.00     0.222 C 
HETATM    9  C   UNL     1      -2.495   4.089 -33.596  1.00  0.00     0.076 C 
HETATM   10  C   UNL     1      -0.392   5.090 -30.143  1.00  0.00     0.037 A 
HETATM   11  C   UNL     1       0.436   6.206 -30.056  1.00  0.00     0.003 A 
HETATM   12  C   UNL     1       0.477   7.120 -31.103  1.00  0.00     0.001 A 
HETATM   13  C   UNL     1      -0.293   6.909 -32.250  1.00  0.00     0.012 A 
HETATM   14  C   UNL     1      -4.224   4.592 -31.769  1.00  0.00     0.059 C 
HETATM   15  C   UNL     1      -4.870   4.071 -30.490  1.00  0.00     0.138 C 
ENDROOT
BRANCH   8  16
HETATM   16  N   UNL     1      -1.163   5.685 -34.853  1.00  0.00    -0.071 N 
HETATM   17  H   UNL     1      -0.578   6.527 -34.820  1.00  0.00     0.275 HD
HETATM   18  H   UNL     1      -0.539   4.882 -35.007  1.00  0.00     0.275 HD
HETATM   19  H   UNL     1      -1.781   5.771 -35.669  1.00  0.00     0.275 HD
ENDBRANCH   8  16
BRANCH   1  20
HETATM   20  S   UNL     1      -6.817   2.495 -31.515  1.00  0.00     0.224 S 
HETATM   21  C   UNL     1      -7.117   0.747 -31.353  1.00  0.00     0.186 C 
HETATM   22  O   UNL     1      -6.582   2.818 -32.906  1.00  0.00    -0.206 OA
HETATM   23  O   UNL     1      -7.832   3.196 -30.760  1.00  0.00    -0.206 OA
ENDBRANCH   1  20
TORSDOF 2
ENDMDL
MODEL 4
REMARK VINA RESULT:      -6.8      2.977      4.372
REMARK  2 active torsions:
REMARK  status: ('A' for Active; 'I' for Inactive)
REMARK    1  A    between atoms: S_2  and  N_3 
REMARK    2  A    between atoms: C_10  and  N_11 
ROOT
HETATM    1  N   UNL     1      -3.937   4.504 -32.351  1.00  0.00    -0.311 N 
HETATM    2  C   UNL     1      -3.618   3.603 -31.220  1.00  0.00     0.138 C 
HETATM    3  C   UNL     1      -4.881   2.956 -30.652  1.00  0.00     0.059 C 
HETATM    4  C   UNL     1      -5.765   2.290 -31.731  1.00  0.00     0.073 C 
HETATM    5  O   UNL     1      -5.059   1.110 -32.155  1.00  0.00    -0.339 OA
HETATM    6  C   UNL     1      -5.775   0.150 -32.815  1.00  0.00     0.078 A 
HETATM    7  C   UNL     1      -7.174   0.085 -32.820  1.00  0.00     0.005 A 
HETATM    8  C   UNL     1      -7.969   1.100 -32.051  1.00  0.00     0.222 C 
HETATM    9  C   UNL     1      -7.092   1.876 -31.074  1.00  0.00     0.076 C 
HETATM   10  C   UNL     1      -5.014  -0.797 -33.500  1.00  0.00     0.037 A 
HETATM   11  C   UNL     1      -5.641  -1.798 -34.236  1.00  0.00     0.003 A 
HETATM   12  C   UNL     1      -7.031  -1.848 -34.293  1.00  0.00     0.001 A 
HETATM   13  C   UNL     1      -7.796  -0.910 -33.595  1.00  0.00     0.012 A 
HETATM   14  C   UNL     1      -5.968   3.246 -32.928  1.00  0.00     0.059 C 
HETATM   15  C   UNL     1      -4.639   3.793 -33.440  1.00  0.00     0.138 C 
ENDROOT
BRANCH   8  16
HETATM   16  N   UNL     1      -9.073   0.482 -31.258  1.00  0.00    -0.071 N 
HETATM   17  H   UNL     1      -9.174  -0.516 -31.470  1.00  0.00     0.275 HD
HETATM   18  H   UNL     1      -8.880   0.564 -30.251  1.00  0.00     0.275 HD
HETATM   19  H   UNL     1      -9.977   0.930 -31.448  1.00  0.00     0.275 HD
ENDBRANCH   8  16
BRANCH   1  20
HETATM   20  S   UNL     1      -4.458   6.086 -32.014  1.00  0.00     0.224 S 
HETATM   21  C   UNL     1      -2.929   7.000 -32.038  1.00  0.00     0.186 C 
HETATM   22  O   UNL     1      -5.000   6.086 -30.672  1.00  0.00    -0.206 OA
HETATM   23  O   UNL     1      -5.262   6.530 -33.131  1.00  0.00    -0.206 OA
ENDBRANCH   1  20
TORSDOF 2
ENDMDL
MODEL 5
REMARK VINA RESULT:      -6.8      2.644      4.051
REMARK  2 active torsions:
REMARK  status: ('A' for Active; 'I' for Inactive)
REMARK    1  A    between atoms: S_2  and  N_3 
REMARK    2  A    between atoms: C_10  and  N_11 
ROOT
HETATM    1  N   UNL     1      -4.606   4.234 -31.862  1.00  0.00    -0.311 N 
HETATM    2  C   UNL     1      -4.765   3.369 -30.671  1.00  0.00     0.138 C 
HETATM    3  C   UNL     1      -6.098   2.623 -30.699  1.00  0.00     0.059 C 
HETATM    4  C   UNL     1      -6.355   1.881 -32.030  1.00  0.00     0.073 C 
HETATM    5  O   UNL     1      -5.451   0.761 -32.045  1.00  0.00    -0.339 OA
HETATM    6  C   UNL     1      -5.726  -0.259 -32.913  1.00  0.00     0.078 A 
HETATM    7  C   UNL     1      -6.965  -0.440 -33.539  1.00  0.00     0.005 A 
HETATM    8  C   UNL     1      -8.091   0.511 -33.250  1.00  0.00     0.222 C 
HETATM    9  C   UNL     1      -7.802   1.362 -32.017  1.00  0.00     0.076 C 
HETATM   10  C   UNL     1      -4.673  -1.144 -33.147  1.00  0.00     0.037 A 
HETATM   11  C   UNL     1      -4.831  -2.197 -34.043  1.00  0.00     0.003 A 
HETATM   12  C   UNL     1      -6.040  -2.362 -34.711  1.00  0.00     0.001 A 
HETATM   13  C   UNL     1      -7.102  -1.487 -34.468  1.00  0.00     0.012 A 
HETATM   14  C   UNL     1      -6.067   2.809 -33.231  1.00  0.00     0.059 C 
HETATM   15  C   UNL     1      -4.693   3.461 -33.119  1.00  0.00     0.138 C 
ENDROOT
BRANCH   8  16
HETATM   16  N   UNL     1      -9.386  -0.192 -33.006  1.00  0.00    -0.071 N 
HETATM   17  H   UNL     1      -9.847  -0.444 -33.887  1.00  0.00     0.275 HD
HETATM   18  H   UNL     1      -9.229  -1.062 -32.481  1.00  0.00     0.275 HD
HETATM   19  H   UNL     1     -10.042   0.391 -32.472  1.00  0.00     0.275 HD
ENDBRANCH   8  16
BRANCH   1  20
HETATM   20  S   UNL     1      -5.334   5.770 -31.860  1.00  0.00     0.224 S 
HETATM   21  C   UNL     1      -4.195   6.727 -30.880  1.00  0.00     0.186 C 
HETATM   22  O   UNL     1      -6.594   5.650 -31.157  1.00  0.00    -0.206 OA
HETATM   23  O   UNL     1      -5.294   6.276 -33.214  1.00  0.00    -0.206 OA
ENDBRANCH   1  20
TORSDOF 2
ENDMDL
MODEL 6
REMARK VINA RESULT:      -6.7      3.468      4.650
REMARK  2 active torsions:
REMARK  status: ('A' for Active; 'I' for Inactive)
REMARK    1  A    between atoms: S_2  and  N_3 
REMARK    2  A    between atoms: C_10  and  N_11 
ROOT
HETATM    1  N   UNL     1     -11.831   2.641 -34.204  1.00  0.00    -0.311 N 
HETATM    2  C   UNL     1     -10.790   3.403 -34.930  1.00  0.00     0.138 C 
HETATM    3  C   UNL     1      -9.551   3.618 -34.060  1.00  0.00     0.059 C 
HETATM    4  C   UNL     1      -9.019   2.315 -33.422  1.00  0.00     0.073 C 
HETATM    5  O   UNL     1      -8.432   1.555 -34.494  1.00  0.00    -0.339 OA
HETATM    6  C   UNL     1      -7.567   0.552 -34.155  1.00  0.00     0.078 A 
HETATM    7  C   UNL     1      -6.972   0.426 -32.894  1.00  0.00     0.005 A 
HETATM    8  C   UNL     1      -7.263   1.444 -31.829  1.00  0.00     0.222 C 
HETATM    9  C   UNL     1      -7.923   2.691 -32.411  1.00  0.00     0.076 C 
HETATM   10  C   UNL     1      -7.291  -0.366 -35.168  1.00  0.00     0.037 A 
HETATM   11  C   UNL     1      -6.452  -1.449 -34.921  1.00  0.00     0.003 A 
HETATM   12  C   UNL     1      -5.892  -1.617 -33.658  1.00  0.00     0.001 A 
HETATM   13  C   UNL     1      -6.154  -0.690 -32.646  1.00  0.00     0.012 A 
HETATM   14  C   UNL     1     -10.174   1.518 -32.777  1.00  0.00     0.059 C 
HETATM   15  C   UNL     1     -11.333   1.325 -33.750  1.00  0.00     0.138 C 
ENDROOT
BRANCH   8  16
HETATM   16  N   UNL     1      -6.032   1.892 -31.112  1.00  0.00    -0.071 N 
HETATM   17  H   UNL     1      -5.411   1.102 -30.905  1.00  0.00     0.275 HD
HETATM   18  H   UNL     1      -5.502   2.557 -31.690  1.00  0.00     0.275 HD
HETATM   19  H   UNL     1      -6.255   2.350 -30.220  1.00  0.00     0.275 HD
ENDBRANCH   8  16
BRANCH   1  20
HETATM   20  S   UNL     1     -12.863   3.473 -33.141  1.00  0.00     0.224 S 
HETATM   21  C   UNL     1     -14.155   2.279 -32.858  1.00  0.00     0.186 C 
HETATM   22  O   UNL     1     -13.402   4.607 -33.861  1.00  0.00    -0.206 OA
HETATM   23  O   UNL     1     -12.150   3.664 -31.897  1.00  0.00    -0.206 OA
ENDBRANCH   1  20
TORSDOF 2
ENDMDL
MODEL 7
REMARK VINA RESULT:      -6.7      2.973      4.603
REMARK  2 active torsions:
REMARK  status: ('A' for Active; 'I' for Inactive)
REMARK    1  A    between atoms: S_2  and  N_3 
REMARK    2  A    between atoms: C_10  and  N_11 
ROOT
HETATM    1  N   UNL     1      -4.252   4.303 -31.454  1.00  0.00    -0.311 N 
HETATM    2  C   UNL     1      -5.114   3.630 -30.456  1.00  0.00     0.138 C 
HETATM    3  C   UNL     1      -6.488   3.302 -31.040  1.00  0.00     0.059 C 
HETATM    4  C   UNL     1      -6.416   2.552 -32.389  1.00  0.00     0.073 C 
HETATM    5  O   UNL     1      -5.961   1.221 -32.083  1.00  0.00    -0.339 OA
HETATM    6  C   UNL     1      -6.167   0.253 -33.025  1.00  0.00     0.078 A 
HETATM    7  C   UNL     1      -7.057   0.384 -34.099  1.00  0.00     0.005 A 
HETATM    8  C   UNL     1      -7.864   1.641 -34.248  1.00  0.00     0.222 C 
HETATM    9  C   UNL     1      -7.837   2.478 -32.972  1.00  0.00     0.076 C 
HETATM   10  C   UNL     1      -5.426  -0.916 -32.852  1.00  0.00     0.037 A 
HETATM   11  C   UNL     1      -5.531  -1.954 -33.774  1.00  0.00     0.003 A 
HETATM   12  C   UNL     1      -6.373  -1.820 -34.875  1.00  0.00     0.001 A 
HETATM   13  C   UNL     1      -7.128  -0.656 -35.042  1.00  0.00     0.012 A 
HETATM   14  C   UNL     1      -5.418   3.248 -33.342  1.00  0.00     0.059 C 
HETATM   15  C   UNL     1      -4.070   3.481 -32.669  1.00  0.00     0.138 C 
ENDROOT
BRANCH   8  16
HETATM   16  N   UNL     1      -9.297   1.368 -34.565  1.00  0.00    -0.071 N 
HETATM   17  H   UNL     1      -9.795   0.987 -33.753  1.00  0.00     0.275 HD
HETATM   18  H   UNL     1      -9.776   2.236 -34.840  1.00  0.00     0.275 HD
HETATM   19  H   UNL     1      -9.396   0.691 -35.332  1.00  0.00     0.275 HD
ENDBRANCH   8  16
BRANCH   1  20
HETATM   20  S   UNL     1      -4.424   5.978 -31.687  1.00  0.00     0.224 S 
HETATM   21  C   UNL     1      -3.510   6.646 -30.311  1.00  0.00     0.186 C 
HETATM   22  O   UNL     1      -5.829   6.293 -31.532  1.00  0.00    -0.206 OA
HETATM   23  O   UNL     1      -3.722   6.326 -32.902  1.00  0.00    -0.206 OA
ENDBRANCH   1  20
TORSDOF 2
ENDMDL
MODEL 8
REMARK VINA RESULT:      -6.6     14.246     15.495
REMARK  2 active torsions:
REMARK  status: ('A' for Active; 'I' for Inactive)
REMARK    1  A    between atoms: S_2  and  N_3 
REMARK    2  A    between atoms: C_10  and  N_11 
ROOT
HETATM    1  N   UNL     1      -8.833 -13.894 -40.725  1.00  0.00    -0.311 N 
HETATM    2  C   UNL     1      -8.872 -12.502 -40.222  1.00  0.00     0.138 C 
HETATM    3  C   UNL     1      -8.630 -12.449 -38.714  1.00  0.00     0.059 C 
HETATM    4  C   UNL     1      -7.369 -13.222 -38.269  1.00  0.00     0.073 C 
HETATM    5  O   UNL     1      -6.243 -12.447 -38.721  1.00  0.00    -0.339 OA
HETATM    6  C   UNL     1      -5.031 -12.700 -38.143  1.00  0.00     0.078 A 
HETATM    7  C   UNL     1      -4.868 -13.410 -36.946  1.00  0.00     0.005 A 
HETATM    8  C   UNL     1      -6.076 -13.922 -36.215  1.00  0.00     0.222 C 
HETATM    9  C   UNL     1      -7.359 -13.279 -36.732  1.00  0.00     0.076 C 
HETATM   10  C   UNL     1      -3.926 -12.193 -38.826  1.00  0.00     0.037 A 
HETATM   11  C   UNL     1      -2.640 -12.424 -38.346  1.00  0.00     0.003 A 
HETATM   12  C   UNL     1      -2.458 -13.170 -37.185  1.00  0.00     0.001 A 
HETATM   13  C   UNL     1      -3.564 -13.667 -36.490  1.00  0.00     0.012 A 
HETATM   14  C   UNL     1      -7.339 -14.626 -38.915  1.00  0.00     0.059 C 
HETATM   15  C   UNL     1      -7.544 -14.551 -40.425  1.00  0.00     0.138 C 
ENDROOT
BRANCH   8  16
HETATM   16  N   UNL     1      -6.011 -13.658 -34.747  1.00  0.00    -0.071 N 
HETATM   17  H   UNL     1      -5.831 -14.519 -34.219  1.00  0.00     0.275 HD
HETATM   18  H   UNL     1      -5.250 -13.001 -34.534  1.00  0.00     0.275 HD
HETATM   19  H   UNL     1      -6.889 -13.259 -34.392  1.00  0.00     0.275 HD
ENDBRANCH   8  16
BRANCH   1  20
HETATM   20  S   UNL     1     -10.229 -14.854 -40.583  1.00  0.00     0.224 S 
HETATM   21  C   UNL     1     -10.193 -15.795 -42.096  1.00  0.00     0.186 C 
HETATM   22  O   UNL     1     -11.369 -13.962 -40.596  1.00  0.00    -0.206 OA
HETATM   23  O   UNL     1     -10.022 -15.768 -39.482  1.00  0.00    -0.206 OA
ENDBRANCH   1  20
TORSDOF 2
ENDMDL
MODEL 9
REMARK VINA RESULT:      -6.5      2.385      3.089
REMARK  2 active torsions:
REMARK  status: ('A' for Active; 'I' for Inactive)
REMARK    1  A    between atoms: S_2  and  N_3 
REMARK    2  A    between atoms: C_10  and  N_11 
ROOT
HETATM    1  N   UNL     1      -6.844   4.789 -31.332  1.00  0.00    -0.311 N 
HETATM    2  C   UNL     1      -6.039   5.022 -32.552  1.00  0.00     0.138 C 
HETATM    3  C   UNL     1      -4.862   4.050 -32.635  1.00  0.00     0.059 C 
HETATM    4  C   UNL     1      -5.276   2.572 -32.450  1.00  0.00     0.073 C 
HETATM    5  O   UNL     1      -5.981   2.201 -33.649  1.00  0.00    -0.339 OA
HETATM    6  C   UNL     1      -6.124   0.866 -33.908  1.00  0.00     0.078 A 
HETATM    7  C   UNL     1      -5.373  -0.136 -33.282  1.00  0.00     0.005 A 
HETATM    8  C   UNL     1      -4.325   0.239 -32.274  1.00  0.00     0.222 C 
HETATM    9  C   UNL     1      -3.996   1.728 -32.335  1.00  0.00     0.076 C 
HETATM   10  C   UNL     1      -7.084   0.543 -34.866  1.00  0.00     0.037 A 
HETATM   11  C   UNL     1      -7.338  -0.789 -35.181  1.00  0.00     0.003 A 
HETATM   12  C   UNL     1      -6.636  -1.800 -34.531  1.00  0.00     0.001 A 
HETATM   13  C   UNL     1      -5.662  -1.479 -33.582  1.00  0.00     0.012 A 
HETATM   14  C   UNL     1      -6.201   2.419 -31.222  1.00  0.00     0.059 C 
HETATM   15  C   UNL     1      -7.363   3.406 -31.270  1.00  0.00     0.138 C 
ENDROOT
BRANCH   8  16
HETATM   16  N   UNL     1      -3.045  -0.503 -32.474  1.00  0.00    -0.071 N 
HETATM   17  H   UNL     1      -3.215  -1.489 -32.702  1.00  0.00     0.275 HD
HETATM   18  H   UNL     1      -2.511  -0.095 -33.253  1.00  0.00     0.275 HD
HETATM   19  H   UNL     1      -2.454  -0.479 -31.634  1.00  0.00     0.275 HD
ENDBRANCH   8  16
BRANCH   1  20
HETATM   20  S   UNL     1      -6.324   5.473 -29.866  1.00  0.00     0.224 S 
HETATM   21  C   UNL     1      -6.857   7.166 -30.029  1.00  0.00     0.186 C 
HETATM   22  O   UNL     1      -4.878   5.422 -29.854  1.00  0.00    -0.206 OA
HETATM   23  O   UNL     1      -7.090   4.864 -28.801  1.00  0.00    -0.206 OA
ENDBRANCH   1  20
TORSDOF 2
ENDMDL
MODEL 10
REMARK VINA RESULT:      -6.4      3.341      6.590
REMARK  2 active torsions:
REMARK  status: ('A' for Active; 'I' for Inactive)
REMARK    1  A    between atoms: S_2  and  N_3 
REMARK    2  A    between atoms: C_10  and  N_11 
ROOT
HETATM    1  N   UNL     1      -6.175  -0.554 -32.419  1.00  0.00    -0.311 N 
HETATM    2  C   UNL     1      -6.831   0.055 -31.239  1.00  0.00     0.138 C 
HETATM    3  C   UNL     1      -7.374   1.446 -31.563  1.00  0.00     0.059 C 
HETATM    4  C   UNL     1      -8.253   1.480 -32.834  1.00  0.00     0.073 C 
HETATM    5  O   UNL     1      -9.482   0.814 -32.488  1.00  0.00    -0.339 OA
HETATM    6  C   UNL     1     -10.564   1.032 -33.295  1.00  0.00     0.078 A 
HETATM    7  C   UNL     1     -10.652   2.080 -34.219  1.00  0.00     0.005 A 
HETATM    8  C   UNL     1      -9.519   3.057 -34.346  1.00  0.00     0.222 C 
HETATM    9  C   UNL     1      -8.552   2.949 -33.171  1.00  0.00     0.076 C 
HETATM   10  C   UNL     1     -11.615   0.128 -33.140  1.00  0.00     0.037 A 
HETATM   11  C   UNL     1     -12.751   0.233 -33.938  1.00  0.00     0.003 A 
HETATM   12  C   UNL     1     -12.834   1.239 -34.895  1.00  0.00     0.001 A 
HETATM   13  C   UNL     1     -11.789   2.156 -35.042  1.00  0.00     0.012 A 
HETATM   14  C   UNL     1      -7.555   0.734 -33.993  1.00  0.00     0.059 C 
HETATM   15  C   UNL     1      -7.097  -0.658 -33.569  1.00  0.00     0.138 C 
ENDROOT
BRANCH   8  16
HETATM   16  N   UNL     1      -9.987   4.474 -34.403  1.00  0.00    -0.071 N 
HETATM   17  H   UNL     1      -9.583   5.032 -33.643  1.00  0.00     0.275 HD
HETATM   18  H   UNL     1      -9.703   4.910 -35.290  1.00  0.00     0.275 HD
HETATM   19  H   UNL     1     -11.009   4.542 -34.324  1.00  0.00     0.275 HD
ENDBRANCH   8  16
BRANCH   1  20
HETATM   20  S   UNL     1      -4.566  -0.133 -32.769  1.00  0.00     0.224 S 
HETATM   21  C   UNL     1      -3.715  -0.630 -31.285  1.00  0.00     0.186 C 
HETATM   22  O   UNL     1      -4.514   1.308 -32.895  1.00  0.00    -0.206 OA
HETATM   23  O   UNL     1      -4.115  -0.981 -33.849  1.00  0.00    -0.206 OA
ENDBRANCH   1  20
TORSDOF 2
ENDMDL
