MODEL 1
REMARK VINA RESULT:      -8.2      0.000      0.000
REMARK  6 active torsions:
REMARK  status: ('A' for Active; 'I' for Inactive)
REMARK    1  A    between atoms: C_2  and  C_3 
REMARK    2  A    between atoms: C_3  and  N_4 
REMARK       I    between atoms: N_4  and  C_5 
REMARK    3  A    between atoms: C_5  and  C_6 
REMARK    4  A    between atoms: C_11  and  C_12 
REMARK    5  A    between atoms: C_15  and  O_16 
REMARK    6  A    between atoms: C_21  and  C_22 
ROOT
HETATM    1  C   UNL     1     -11.268   2.269 -33.673  1.00  0.00     0.170 A 
HETATM    2  N   UNL     1     -10.196   3.080 -33.862  1.00  0.00    -0.163 NA
HETATM    3  N   UNL     1      -9.146   2.265 -33.669  1.00  0.00    -0.238 N 
HETATM    4  C   UNL     1      -9.481   0.963 -33.422  1.00  0.00     0.145 A 
HETATM    5  N   UNL     1      -8.525   0.011 -33.279  1.00  0.00    -0.365 N 
HETATM    6  C   UNL     1      -7.113   0.368 -33.177  1.00  0.00     0.118 C 
HETATM    7  C   UNL     1      -6.827   1.588 -34.073  1.00  0.00     0.066 C 
HETATM    8  C   UNL     1      -7.781   2.752 -33.754  1.00  0.00     0.221 C 
HETATM    9  C   UNL     1     -10.857   0.934 -33.397  1.00  0.00     0.115 A 
HETATM   10 CL   UNL     1     -11.836  -0.423 -33.114  1.00  0.00    -0.077 Cl
HETATM   11  H   UNL     1      -8.773  -0.910 -32.912  1.00  0.00     0.162 HD
ENDROOT
BRANCH   6  12
HETATM   12  C   UNL     1      -6.231  -0.800 -33.578  1.00  0.00    -0.035 A 
HETATM   13  C   UNL     1      -4.961  -0.996 -33.019  1.00  0.00     0.012 A 
HETATM   14  C   UNL     1      -4.191  -2.106 -33.376  1.00  0.00     0.037 A 
HETATM   15  C   UNL     1      -4.675  -3.047 -34.286  1.00  0.00     0.068 A 
HETATM   16  C   UNL     1      -5.937  -2.862 -34.849  1.00  0.00     0.037 A 
HETATM   17  C   UNL     1      -6.709  -1.749 -34.495  1.00  0.00     0.012 A 
BRANCH  15  18
HETATM   18  O   UNL     1      -3.826  -4.090 -34.538  1.00  0.00    -0.356 OA
HETATM   19  C   UNL     1      -3.680  -5.063 -33.511  1.00  0.00     0.210 C 
ENDBRANCH  15  18
ENDBRANCH   6  12
BRANCH   8  20
HETATM   20  C   UNL     1      -7.409   3.463 -32.472  1.00  0.00     0.409 C 
HETATM   21  F   UNL     1      -8.034   2.958 -31.387  1.00  0.00    -0.169 F 
HETATM   22  F   UNL     1      -6.076   3.339 -32.244  1.00  0.00    -0.169 F 
HETATM   23  F   UNL     1      -7.668   4.788 -32.517  1.00  0.00    -0.169 F 
ENDBRANCH   8  20
BRANCH   1  24
HETATM   24  C   UNL     1     -12.637   2.803 -33.765  1.00  0.00     0.273 C 
HETATM   25  N   UNL     1     -13.252   2.919 -32.536  1.00  0.00    -0.356 N 
HETATM   26  H   UNL     1     -12.716   2.572 -31.744  1.00  0.00     0.162 HD
HETATM   27  O   UNL     1     -13.185   3.105 -34.820  1.00  0.00    -0.266 OA
BRANCH  25  28
HETATM   28  C   UNL     1     -14.626   3.328 -32.373  1.00  0.00     0.122 C 
BRANCH  28  29
HETATM   29  C   UNL     1     -15.531   2.140 -32.061  1.00  0.00     0.015 C 
HETATM   30  C   UNL     1     -17.000   2.525 -32.128  1.00  0.00     0.006 C 
ENDBRANCH  28  29
ENDBRANCH  25  28
ENDBRANCH   1  24
TORSDOF 6
ENDMDL
MODEL 2
REMARK VINA RESULT:      -8.1      4.797      7.395
REMARK  6 active torsions:
REMARK  status: ('A' for Active; 'I' for Inactive)
REMARK    1  A    between atoms: C_2  and  C_3 
REMARK    2  A    between atoms: C_3  and  N_4 
REMARK       I    between atoms: N_4  and  C_5 
REMARK    3  A    between atoms: C_5  and  C_6 
REMARK    4  A    between atoms: C_11  and  C_12 
REMARK    5  A    between atoms: C_15  and  O_16 
REMARK    6  A    between atoms: C_21  and  C_22 
ROOT
HETATM    1  C   UNL     1      -4.120   4.646 -31.091  1.00  0.00     0.170 A 
HETATM    2  N   UNL     1      -5.053   4.067 -30.292  1.00  0.00    -0.163 NA
HETATM    3  N   UNL     1      -5.478   3.018 -31.013  1.00  0.00    -0.238 N 
HETATM    4  C   UNL     1      -4.833   2.855 -32.207  1.00  0.00     0.145 A 
HETATM    5  N   UNL     1      -5.106   1.795 -33.010  1.00  0.00    -0.365 N 
HETATM    6  C   UNL     1      -6.233   0.909 -32.733  1.00  0.00     0.118 C 
HETATM    7  C   UNL     1      -6.406   0.759 -31.211  1.00  0.00     0.066 C 
HETATM    8  C   UNL     1      -6.516   2.130 -30.522  1.00  0.00     0.221 C 
HETATM    9  C   UNL     1      -3.955   3.911 -32.300  1.00  0.00     0.115 A 
HETATM   10 CL   UNL     1      -2.896   4.237 -33.584  1.00  0.00    -0.077 Cl
HETATM   11  H   UNL     1      -4.762   1.782 -33.972  1.00  0.00     0.162 HD
ENDROOT
BRANCH   6  12
HETATM   12  C   UNL     1      -6.022  -0.448 -33.378  1.00  0.00    -0.035 A 
HETATM   13  C   UNL     1      -4.770  -1.079 -33.385  1.00  0.00     0.012 A 
HETATM   14  C   UNL     1      -4.618  -2.349 -33.948  1.00  0.00     0.037 A 
HETATM   15  C   UNL     1      -5.709  -3.020 -34.502  1.00  0.00     0.068 A 
HETATM   16  C   UNL     1      -6.958  -2.402 -34.499  1.00  0.00     0.037 A 
HETATM   17  C   UNL     1      -7.113  -1.129 -33.940  1.00  0.00     0.012 A 
BRANCH  15  18
HETATM   18  O   UNL     1      -5.423  -4.259 -35.006  1.00  0.00    -0.356 OA
HETATM   19  C   UNL     1      -4.556  -5.082 -34.237  1.00  0.00     0.210 C 
ENDBRANCH  15  18
ENDBRANCH   6  12
BRANCH   8  20
HETATM   20  C   UNL     1      -7.874   2.766 -30.728  1.00  0.00     0.409 C 
HETATM   21  F   UNL     1      -7.909   3.606 -31.784  1.00  0.00    -0.169 F 
HETATM   22  F   UNL     1      -8.804   1.805 -30.964  1.00  0.00    -0.169 F 
HETATM   23  F   UNL     1      -8.299   3.451 -29.644  1.00  0.00    -0.169 F 
ENDBRANCH   8  20
BRANCH   1  24
HETATM   24  C   UNL     1      -3.427   5.873 -30.667  1.00  0.00     0.273 C 
HETATM   25  N   UNL     1      -2.072   5.688 -30.480  1.00  0.00    -0.356 N 
HETATM   26  H   UNL     1      -1.741   4.733 -30.598  1.00  0.00     0.162 HD
HETATM   27  O   UNL     1      -3.987   6.949 -30.486  1.00  0.00    -0.266 OA
BRANCH  25  28
HETATM   28  C   UNL     1      -1.195   6.715 -29.974  1.00  0.00     0.122 C 
BRANCH  28  29
HETATM   29  C   UNL     1       0.129   6.744 -30.732  1.00  0.00     0.015 C 
HETATM   30  C   UNL     1       0.712   5.349 -30.889  1.00  0.00     0.006 C 
ENDBRANCH  28  29
ENDBRANCH  25  28
ENDBRANCH   1  24
TORSDOF 6
ENDMDL
MODEL 3
REMARK VINA RESULT:      -8.1      7.504     10.059
REMARK  6 active torsions:
REMARK  status: ('A' for Active; 'I' for Inactive)
REMARK    1  A    between atoms: C_2  and  C_3 
REMARK    2  A    between atoms: C_3  and  N_4 
REMARK       I    between atoms: N_4  and  C_5 
REMARK    3  A    between atoms: C_5  and  C_6 
REMARK    4  A    between atoms: C_11  and  C_12 
REMARK    5  A    between atoms: C_15  and  O_16 
REMARK    6  A    between atoms: C_21  and  C_22 
ROOT
HETATM    1  C   UNL     1      -4.190   3.106 -32.146  1.00  0.00     0.170 A 
HETATM    2  N   UNL     1      -3.069   3.333 -32.879  1.00  0.00    -0.163 NA
HETATM    3  N   UNL     1      -2.521   4.409 -32.292  1.00  0.00    -0.238 N 
HETATM    4  C   UNL     1      -3.195   4.855 -31.190  1.00  0.00     0.145 A 
HETATM    5  N   UNL     1      -2.719   5.891 -30.452  1.00  0.00    -0.365 N 
HETATM    6  C   UNL     1      -1.592   6.694 -30.918  1.00  0.00     0.118 C 
HETATM    7  C   UNL     1      -0.597   5.794 -31.673  1.00  0.00     0.066 C 
HETATM    8  C   UNL     1      -1.296   5.005 -32.794  1.00  0.00     0.221 C 
HETATM    9  C   UNL     1      -4.300   4.042 -31.078  1.00  0.00     0.115 A 
HETATM   10 CL   UNL     1      -5.512   4.140 -29.895  1.00  0.00    -0.077 Cl
HETATM   11  H   UNL     1      -3.316   6.333 -29.751  1.00  0.00     0.162 HD
ENDROOT
BRANCH   6  12
HETATM   12  C   UNL     1      -0.904   7.381 -29.753  1.00  0.00    -0.035 A 
HETATM   13  C   UNL     1       0.472   7.245 -29.520  1.00  0.00     0.012 A 
HETATM   14  C   UNL     1       1.084   7.927 -28.465  1.00  0.00     0.037 A 
HETATM   15  C   UNL     1       0.343   8.765 -27.631  1.00  0.00     0.068 A 
HETATM   16  C   UNL     1      -1.025   8.908 -27.853  1.00  0.00     0.037 A 
HETATM   17  C   UNL     1      -1.642   8.224 -28.907  1.00  0.00     0.012 A 
BRANCH  15  18
HETATM   18  O   UNL     1       1.068   9.380 -26.647  1.00  0.00    -0.356 OA
HETATM   19  C   UNL     1       2.049   8.593 -25.984  1.00  0.00     0.210 C 
ENDBRANCH  15  18
ENDBRANCH   6  12
BRANCH   8  20
HETATM   20  C   UNL     1      -1.602   5.870 -33.997  1.00  0.00     0.409 C 
HETATM   21  F   UNL     1      -2.841   6.406 -33.961  1.00  0.00    -0.169 F 
HETATM   22  F   UNL     1      -0.731   6.911 -34.052  1.00  0.00    -0.169 F 
HETATM   23  F   UNL     1      -1.476   5.203 -35.165  1.00  0.00    -0.169 F 
ENDBRANCH   8  20
BRANCH   1  24
HETATM   24  C   UNL     1      -5.105   2.009 -32.496  1.00  0.00     0.273 C 
HETATM   25  N   UNL     1      -4.685   0.785 -32.016  1.00  0.00    -0.356 N 
HETATM   26  H   UNL     1      -3.785   0.787 -31.542  1.00  0.00     0.162 HD
HETATM   27  O   UNL     1      -6.130   2.154 -33.154  1.00  0.00    -0.266 OA
BRANCH  25  28
HETATM   28  C   UNL     1      -5.362  -0.455 -32.309  1.00  0.00     0.122 C 
BRANCH  28  29
HETATM   29  C   UNL     1      -4.908  -1.040 -33.643  1.00  0.00     0.015 C 
HETATM   30  C   UNL     1      -6.092  -1.412 -34.520  1.00  0.00     0.006 C 
ENDBRANCH  28  29
ENDBRANCH  25  28
ENDBRANCH   1  24
TORSDOF 6
ENDMDL
MODEL 4
REMARK VINA RESULT:      -8.0      3.619      4.904
REMARK  6 active torsions:
REMARK  status: ('A' for Active; 'I' for Inactive)
REMARK    1  A    between atoms: C_2  and  C_3 
REMARK    2  A    between atoms: C_3  and  N_4 
REMARK       I    between atoms: N_4  and  C_5 
REMARK    3  A    between atoms: C_5  and  C_6 
REMARK    4  A    between atoms: C_11  and  C_12 
REMARK    5  A    between atoms: C_15  and  O_16 
REMARK    6  A    between atoms: C_21  and  C_22 
ROOT
HETATM    1  C   UNL     1     -10.707   1.590 -34.108  1.00  0.00     0.170 A 
HETATM    2  N   UNL     1     -10.033   0.514 -33.626  1.00  0.00    -0.163 NA
HETATM    3  N   UNL     1      -8.764   0.944 -33.554  1.00  0.00    -0.238 N 
HETATM    4  C   UNL     1      -8.589   2.252 -33.909  1.00  0.00     0.145 A 
HETATM    5  N   UNL     1      -7.372   2.845 -33.816  1.00  0.00    -0.365 N 
HETATM    6  C   UNL     1      -6.171   2.064 -33.535  1.00  0.00     0.118 C 
HETATM    7  C   UNL     1      -6.520   0.917 -32.569  1.00  0.00     0.066 C 
HETATM    8  C   UNL     1      -7.693   0.074 -33.102  1.00  0.00     0.221 C 
HETATM    9  C   UNL     1      -9.833   2.699 -34.296  1.00  0.00     0.115 A 
HETATM   10 CL   UNL     1     -10.221   4.252 -34.856  1.00  0.00    -0.077 Cl
HETATM   11  H   UNL     1      -7.214   3.754 -34.256  1.00  0.00     0.162 HD
ENDROOT
BRANCH   6  12
HETATM   12  C   UNL     1      -5.085   2.941 -32.942  1.00  0.00    -0.035 A 
HETATM   13  C   UNL     1      -5.130   4.340 -33.031  1.00  0.00     0.012 A 
HETATM   14  C   UNL     1      -4.136   5.122 -32.436  1.00  0.00     0.037 A 
HETATM   15  C   UNL     1      -3.087   4.529 -31.733  1.00  0.00     0.068 A 
HETATM   16  C   UNL     1      -3.032   3.140 -31.638  1.00  0.00     0.037 A 
HETATM   17  C   UNL     1      -4.024   2.353 -32.236  1.00  0.00     0.012 A 
BRANCH  15  18
HETATM   18  O   UNL     1      -2.191   5.410 -31.190  1.00  0.00    -0.356 OA
HETATM   19  C   UNL     1      -0.823   5.224 -31.528  1.00  0.00     0.210 C 
ENDBRANCH  15  18
ENDBRANCH   6  12
BRANCH   8  20
HETATM   20  C   UNL     1      -7.272  -0.848 -34.226  1.00  0.00     0.409 C 
HETATM   21  F   UNL     1      -5.934  -0.881 -34.408  1.00  0.00    -0.169 F 
HETATM   22  F   UNL     1      -7.657  -2.120 -33.948  1.00  0.00    -0.169 F 
HETATM   23  F   UNL     1      -7.841  -0.524 -35.406  1.00  0.00    -0.169 F 
ENDBRANCH   8  20
BRANCH   1  24
HETATM   24  C   UNL     1     -12.154   1.514 -34.367  1.00  0.00     0.273 C 
HETATM   25  N   UNL     1     -12.910   1.561 -33.213  1.00  0.00    -0.356 N 
HETATM   26  H   UNL     1     -12.380   1.581 -32.344  1.00  0.00     0.162 HD
HETATM   27  O   UNL     1     -12.646   1.409 -35.486  1.00  0.00    -0.266 OA
BRANCH  25  28
HETATM   28  C   UNL     1     -14.344   1.407 -33.200  1.00  0.00     0.122 C 
BRANCH  28  29
HETATM   29  C   UNL     1     -14.986   2.239 -32.093  1.00  0.00     0.015 C 
HETATM   30  C   UNL     1     -16.485   2.381 -32.301  1.00  0.00     0.006 C 
ENDBRANCH  28  29
ENDBRANCH  25  28
ENDBRANCH   1  24
TORSDOF 6
ENDMDL
MODEL 5
REMARK VINA RESULT:      -7.7      5.025      8.695
REMARK  6 active torsions:
REMARK  status: ('A' for Active; 'I' for Inactive)
REMARK    1  A    between atoms: C_2  and  C_3 
REMARK    2  A    between atoms: C_3  and  N_4 
REMARK       I    between atoms: N_4  and  C_5 
REMARK    3  A    between atoms: C_5  and  C_6 
REMARK    4  A    between atoms: C_11  and  C_12 
REMARK    5  A    between atoms: C_15  and  O_16 
REMARK    6  A    between atoms: C_21  and  C_22 
ROOT
HETATM    1  C   UNL     1      -3.060   3.880 -32.018  1.00  0.00     0.170 A 
HETATM    2  N   UNL     1      -2.927   2.576 -32.373  1.00  0.00    -0.163 NA
HETATM    3  N   UNL     1      -4.189   2.117 -32.363  1.00  0.00    -0.238 N 
HETATM    4  C   UNL     1      -5.132   3.064 -32.077  1.00  0.00     0.145 A 
HETATM    5  N   UNL     1      -6.455   2.763 -32.102  1.00  0.00    -0.365 N 
HETATM    6  C   UNL     1      -6.912   1.382 -32.231  1.00  0.00     0.118 C 
HETATM    7  C   UNL     1      -5.950   0.607 -33.149  1.00  0.00     0.066 C 
HETATM    8  C   UNL     1      -4.494   0.731 -32.667  1.00  0.00     0.221 C 
HETATM    9  C   UNL     1      -4.429   4.221 -31.826  1.00  0.00     0.115 A 
HETATM   10 CL   UNL     1      -5.080   5.728 -31.399  1.00  0.00    -0.077 Cl
HETATM   11  H   UNL     1      -7.134   3.417 -31.708  1.00  0.00     0.162 HD
ENDROOT
BRANCH   6  12
HETATM   12  C   UNL     1      -8.324   1.332 -32.782  1.00  0.00    -0.035 A 
HETATM   13  C   UNL     1      -8.808   2.302 -33.672  1.00  0.00     0.012 A 
HETATM   14  C   UNL     1     -10.099   2.203 -34.197  1.00  0.00     0.037 A 
HETATM   15  C   UNL     1     -10.929   1.134 -33.857  1.00  0.00     0.068 A 
HETATM   16  C   UNL     1     -10.458   0.164 -32.974  1.00  0.00     0.037 A 
HETATM   17  C   UNL     1      -9.166   0.261 -32.443  1.00  0.00     0.012 A 
BRANCH  15  18
HETATM   18  O   UNL     1     -12.161   1.153 -34.451  1.00  0.00    -0.356 OA
HETATM   19  C   UNL     1     -13.179   0.367 -33.844  1.00  0.00     0.210 C 
ENDBRANCH  15  18
ENDBRANCH   6  12
BRANCH   8  20
HETATM   20  C   UNL     1      -4.216  -0.133 -31.457  1.00  0.00     0.409 C 
HETATM   21  F   UNL     1      -4.536   0.470 -30.292  1.00  0.00    -0.169 F 
HETATM   22  F   UNL     1      -4.957  -1.271 -31.521  1.00  0.00    -0.169 F 
HETATM   23  F   UNL     1      -2.925  -0.521 -31.379  1.00  0.00    -0.169 F 
ENDBRANCH   8  20
BRANCH   1  24
HETATM   24  C   UNL     1      -1.875   4.743 -31.879  1.00  0.00     0.273 C 
HETATM   25  N   UNL     1      -1.700   5.211 -30.592  1.00  0.00    -0.356 N 
HETATM   26  H   UNL     1      -2.429   4.954 -29.930  1.00  0.00     0.162 HD
HETATM   27  O   UNL     1      -1.124   5.031 -32.805  1.00  0.00    -0.266 OA
BRANCH  25  28
HETATM   28  C   UNL     1      -0.667   6.148 -30.225  1.00  0.00     0.122 C 
BRANCH  28  29
HETATM   29  C   UNL     1       0.395   5.496 -29.344  1.00  0.00     0.015 C 
HETATM   30  C   UNL     1       0.440   6.129 -27.963  1.00  0.00     0.006 C 
ENDBRANCH  28  29
ENDBRANCH  25  28
ENDBRANCH   1  24
TORSDOF 6
ENDMDL
MODEL 6
REMARK VINA RESULT:      -7.7      4.030      8.118
REMARK  6 active torsions:
REMARK  status: ('A' for Active; 'I' for Inactive)
REMARK    1  A    between atoms: C_2  and  C_3 
REMARK    2  A    between atoms: C_3  and  N_4 
REMARK       I    between atoms: N_4  and  C_5 
REMARK    3  A    between atoms: C_5  and  C_6 
REMARK    4  A    between atoms: C_11  and  C_12 
REMARK    5  A    between atoms: C_15  and  O_16 
REMARK    6  A    between atoms: C_21  and  C_22 
ROOT
HETATM    1  C   UNL     1      -5.035   3.425 -32.110  1.00  0.00     0.170 A 
HETATM    2  N   UNL     1      -4.868   2.328 -32.892  1.00  0.00    -0.163 NA
HETATM    3  N   UNL     1      -6.107   1.819 -32.989  1.00  0.00    -0.238 N 
HETATM    4  C   UNL     1      -7.071   2.555 -32.360  1.00  0.00     0.145 A 
HETATM    5  N   UNL     1      -8.379   2.202 -32.433  1.00  0.00    -0.365 N 
HETATM    6  C   UNL     1      -8.784   0.921 -33.005  1.00  0.00     0.118 C 
HETATM    7  C   UNL     1      -7.845   0.561 -34.171  1.00  0.00     0.066 C 
HETATM    8  C   UNL     1      -6.370   0.601 -33.735  1.00  0.00     0.221 C 
HETATM    9  C   UNL     1      -6.404   3.599 -31.758  1.00  0.00     0.115 A 
HETATM   10 CL   UNL     1      -7.093   4.831 -30.817  1.00  0.00    -0.077 Cl
HETATM   11  H   UNL     1      -9.061   2.642 -31.813  1.00  0.00     0.162 HD
ENDROOT
BRANCH   6  12
HETATM   12  C   UNL     1     -10.223   0.976 -33.484  1.00  0.00    -0.035 A 
HETATM   13  C   UNL     1     -10.680   1.985 -34.343  1.00  0.00     0.012 A 
HETATM   14  C   UNL     1     -12.000   1.983 -34.802  1.00  0.00     0.037 A 
HETATM   15  C   UNL     1     -12.886   0.973 -34.424  1.00  0.00     0.068 A 
HETATM   16  C   UNL     1     -12.442  -0.035 -33.570  1.00  0.00     0.037 A 
HETATM   17  C   UNL     1     -11.121  -0.034 -33.106  1.00  0.00     0.012 A 
BRANCH  15  18
HETATM   18  O   UNL     1     -14.142   1.084 -34.953  1.00  0.00    -0.356 OA
HETATM   19  C   UNL     1     -15.232   1.008 -34.043  1.00  0.00     0.210 C 
ENDBRANCH  15  18
ENDBRANCH   6  12
BRANCH   8  20
HETATM   20  C   UNL     1      -5.986  -0.603 -32.903  1.00  0.00     0.409 C 
HETATM   21  F   UNL     1      -4.680  -0.927 -33.015  1.00  0.00    -0.169 F 
HETATM   22  F   UNL     1      -6.211  -0.348 -31.588  1.00  0.00    -0.169 F 
HETATM   23  F   UNL     1      -6.711  -1.701 -33.209  1.00  0.00    -0.169 F 
ENDBRANCH   8  20
BRANCH   1  24
HETATM   24  C   UNL     1      -3.883   4.259 -31.733  1.00  0.00     0.273 C 
HETATM   25  N   UNL     1      -2.853   4.199 -32.649  1.00  0.00    -0.356 N 
HETATM   26  H   UNL     1      -2.993   3.553 -33.423  1.00  0.00     0.162 HD
HETATM   27  O   UNL     1      -3.829   4.932 -30.708  1.00  0.00    -0.266 OA
BRANCH  25  28
HETATM   28  C   UNL     1      -1.581   4.852 -32.456  1.00  0.00     0.122 C 
BRANCH  28  29
HETATM   29  C   UNL     1      -1.210   5.720 -33.655  1.00  0.00     0.015 C 
HETATM   30  C   UNL     1      -1.795   5.168 -34.945  1.00  0.00     0.006 C 
ENDBRANCH  28  29
ENDBRANCH  25  28
ENDBRANCH   1  24
TORSDOF 6
ENDMDL
MODEL 7
REMARK VINA RESULT:      -7.6      4.591      7.963
REMARK  6 active torsions:
REMARK  status: ('A' for Active; 'I' for Inactive)
REMARK    1  A    between atoms: C_2  and  C_3 
REMARK    2  A    between atoms: C_3  and  N_4 
REMARK       I    between atoms: N_4  and  C_5 
REMARK    3  A    between atoms: C_5  and  C_6 
REMARK    4  A    between atoms: C_11  and  C_12 
REMARK    5  A    between atoms: C_15  and  O_16 
REMARK    6  A    between atoms: C_21  and  C_22 
ROOT
HETATM    1  C   UNL     1      -5.934  -0.559 -33.773  1.00  0.00     0.170 A 
HETATM    2  N   UNL     1      -6.562   0.507 -34.333  1.00  0.00    -0.163 NA
HETATM    3  N   UNL     1      -5.975   1.563 -33.747  1.00  0.00    -0.238 N 
HETATM    4  C   UNL     1      -4.967   1.240 -32.882  1.00  0.00     0.145 A 
HETATM    5  N   UNL     1      -4.235   2.205 -32.270  1.00  0.00    -0.365 N 
HETATM    6  C   UNL     1      -4.624   3.610 -32.348  1.00  0.00     0.118 C 
HETATM    7  C   UNL     1      -5.234   3.898 -33.732  1.00  0.00     0.066 C 
HETATM    8  C   UNL     1      -6.381   2.923 -34.052  1.00  0.00     0.221 C 
HETATM    9  C   UNL     1      -4.927  -0.136 -32.859  1.00  0.00     0.115 A 
HETATM   10 CL   UNL     1      -3.876  -1.103 -31.942  1.00  0.00    -0.077 Cl
HETATM   11  H   UNL     1      -3.619   1.961 -31.493  1.00  0.00     0.162 HD
ENDROOT
BRANCH   6  12
HETATM   12  C   UNL     1      -3.431   4.514 -32.099  1.00  0.00    -0.035 A 
HETATM   13  C   UNL     1      -3.410   5.441 -31.048  1.00  0.00     0.012 A 
HETATM   14  C   UNL     1      -2.278   6.228 -30.817  1.00  0.00     0.037 A 
HETATM   15  C   UNL     1      -1.143   6.099 -31.619  1.00  0.00     0.068 A 
HETATM   16  C   UNL     1      -1.153   5.180 -32.666  1.00  0.00     0.037 A 
HETATM   17  C   UNL     1      -2.287   4.393 -32.902  1.00  0.00     0.012 A 
BRANCH  15  18
HETATM   18  O   UNL     1      -0.104   6.919 -31.277  1.00  0.00    -0.356 OA
HETATM   19  C   UNL     1       0.303   6.908 -29.914  1.00  0.00     0.210 C 
ENDBRANCH  15  18
ENDBRANCH   6  12
BRANCH   8  20
HETATM   20  C   UNL     1      -7.648   3.262 -33.297  1.00  0.00     0.409 C 
HETATM   21  F   UNL     1      -7.745   4.573 -32.991  1.00  0.00    -0.169 F 
HETATM   22  F   UNL     1      -8.733   2.959 -34.056  1.00  0.00    -0.169 F 
HETATM   23  F   UNL     1      -7.775   2.561 -32.150  1.00  0.00    -0.169 F 
ENDBRANCH   8  20
BRANCH   1  24
HETATM   24  C   UNL     1      -6.321  -1.932 -34.135  1.00  0.00     0.273 C 
HETATM   25  N   UNL     1      -5.281  -2.659 -34.676  1.00  0.00    -0.356 N 
HETATM   26  H   UNL     1      -4.412  -2.146 -34.809  1.00  0.00     0.162 HD
HETATM   27  O   UNL     1      -7.450  -2.388 -33.985  1.00  0.00    -0.266 OA
BRANCH  25  28
HETATM   28  C   UNL     1      -5.435  -3.996 -35.195  1.00  0.00     0.122 C 
BRANCH  28  29
HETATM   29  C   UNL     1      -4.835  -5.035 -34.253  1.00  0.00     0.015 C 
HETATM   30  C   UNL     1      -3.587  -4.508 -33.563  1.00  0.00     0.006 C 
ENDBRANCH  28  29
ENDBRANCH  25  28
ENDBRANCH   1  24
TORSDOF 6
ENDMDL
MODEL 8
REMARK VINA RESULT:      -7.4      4.261      5.545
REMARK  6 active torsions:
REMARK  status: ('A' for Active; 'I' for Inactive)
REMARK    1  A    between atoms: C_2  and  C_3 
REMARK    2  A    between atoms: C_3  and  N_4 
REMARK       I    between atoms: N_4  and  C_5 
REMARK    3  A    between atoms: C_5  and  C_6 
REMARK    4  A    between atoms: C_11  and  C_12 
REMARK    5  A    between atoms: C_15  and  O_16 
REMARK    6  A    between atoms: C_21  and  C_22 
ROOT
HETATM    1  C   UNL     1      -9.378   2.488 -33.402  1.00  0.00     0.170 A 
HETATM    2  N   UNL     1      -8.691   1.406 -32.952  1.00  0.00    -0.163 NA
HETATM    3  N   UNL     1      -7.407   1.792 -33.034  1.00  0.00    -0.238 N 
HETATM    4  C   UNL     1      -7.231   3.079 -33.459  1.00  0.00     0.145 A 
HETATM    5  N   UNL     1      -5.992   3.631 -33.522  1.00  0.00    -0.365 N 
HETATM    6  C   UNL     1      -4.794   2.817 -33.340  1.00  0.00     0.118 C 
HETATM    7  C   UNL     1      -5.072   1.720 -32.296  1.00  0.00     0.066 C 
HETATM    8  C   UNL     1      -6.322   0.902 -32.664  1.00  0.00     0.221 C 
HETATM    9  C   UNL     1      -8.494   3.556 -33.728  1.00  0.00     0.115 A 
HETATM   10 CL   UNL     1      -8.891   5.100 -34.306  1.00  0.00    -0.077 Cl
HETATM   11  H   UNL     1      -5.853   4.516 -34.013  1.00  0.00     0.162 HD
ENDROOT
BRANCH   6  12
HETATM   12  C   UNL     1      -3.622   3.676 -32.904  1.00  0.00    -0.035 A 
HETATM   13  C   UNL     1      -3.159   3.683 -31.580  1.00  0.00     0.012 A 
HETATM   14  C   UNL     1      -2.049   4.451 -31.219  1.00  0.00     0.037 A 
HETATM   15  C   UNL     1      -1.372   5.217 -32.169  1.00  0.00     0.068 A 
HETATM   16  C   UNL     1      -1.823   5.217 -33.488  1.00  0.00     0.037 A 
HETATM   17  C   UNL     1      -2.936   4.452 -33.852  1.00  0.00     0.012 A 
BRANCH  15  18
HETATM   18  O   UNL     1      -0.296   5.910 -31.685  1.00  0.00    -0.356 OA
HETATM   19  C   UNL     1      -0.013   5.772 -30.298  1.00  0.00     0.210 C 
ENDBRANCH  15  18
ENDBRANCH   6  12
BRANCH   8  20
HETATM   20  C   UNL     1      -6.055  -0.076 -33.788  1.00  0.00     0.409 C 
HETATM   21  F   UNL     1      -4.766  -0.473 -33.848  1.00  0.00    -0.169 F 
HETATM   22  F   UNL     1      -6.799  -1.199 -33.610  1.00  0.00    -0.169 F 
HETATM   23  F   UNL     1      -6.391   0.417 -34.999  1.00  0.00    -0.169 F 
ENDBRANCH   8  20
BRANCH   1  24
HETATM   24  C   UNL     1     -10.846   2.454 -33.501  1.00  0.00     0.273 C 
HETATM   25  N   UNL     1     -11.294   1.754 -34.602  1.00  0.00    -0.356 N 
HETATM   26  H   UNL     1     -10.569   1.408 -35.226  1.00  0.00     0.162 HD
HETATM   27  O   UNL     1     -11.600   2.997 -32.700  1.00  0.00    -0.266 OA
BRANCH  25  28
HETATM   28  C   UNL     1     -12.687   1.661 -34.968  1.00  0.00     0.122 C 
BRANCH  28  29
HETATM   29  C   UNL     1     -13.384   0.519 -34.234  1.00  0.00     0.015 C 
HETATM   30  C   UNL     1     -14.892   0.705 -34.217  1.00  0.00     0.006 C 
ENDBRANCH  28  29
ENDBRANCH  25  28
ENDBRANCH   1  24
TORSDOF 6
ENDMDL
MODEL 9
REMARK VINA RESULT:      -7.4      3.979      6.033
REMARK  6 active torsions:
REMARK  status: ('A' for Active; 'I' for Inactive)
REMARK    1  A    between atoms: C_2  and  C_3 
REMARK    2  A    between atoms: C_3  and  N_4 
REMARK       I    between atoms: N_4  and  C_5 
REMARK    3  A    between atoms: C_5  and  C_6 
REMARK    4  A    between atoms: C_11  and  C_12 
REMARK    5  A    between atoms: C_15  and  O_16 
REMARK    6  A    between atoms: C_21  and  C_22 
ROOT
HETATM    1  C   UNL     1      -5.947   4.439 -31.190  1.00  0.00     0.170 A 
HETATM    2  N   UNL     1      -7.132   3.822 -30.946  1.00  0.00    -0.163 NA
HETATM    3  N   UNL     1      -7.078   2.721 -31.712  1.00  0.00    -0.238 N 
HETATM    4  C   UNL     1      -5.903   2.565 -32.393  1.00  0.00     0.145 A 
HETATM    5  N   UNL     1      -5.676   1.462 -33.151  1.00  0.00    -0.365 N 
HETATM    6  C   UNL     1      -6.743   0.507 -33.434  1.00  0.00     0.118 C 
HETATM    7  C   UNL     1      -7.670   0.396 -32.209  1.00  0.00     0.066 C 
HETATM    8  C   UNL     1      -8.180   1.778 -31.766  1.00  0.00     0.221 C 
HETATM    9  C   UNL     1      -5.151   3.678 -32.092  1.00  0.00     0.115 A 
HETATM   10 CL   UNL     1      -3.597   4.036 -32.670  1.00  0.00    -0.077 Cl
HETATM   11  H   UNL     1      -4.884   1.442 -33.797  1.00  0.00     0.162 HD
ENDROOT
BRANCH   6  12
HETATM   12  C   UNL     1      -6.170  -0.852 -33.788  1.00  0.00    -0.035 A 
HETATM   13  C   UNL     1      -4.846  -1.200 -33.487  1.00  0.00     0.012 A 
HETATM   14  C   UNL     1      -4.361  -2.476 -33.787  1.00  0.00     0.037 A 
HETATM   15  C   UNL     1      -5.186  -3.432 -34.380  1.00  0.00     0.068 A 
HETATM   16  C   UNL     1      -6.505  -3.097 -34.684  1.00  0.00     0.037 A 
HETATM   17  C   UNL     1      -6.992  -1.819 -34.388  1.00  0.00     0.012 A 
BRANCH  15  18
HETATM   18  O   UNL     1      -4.590  -4.642 -34.607  1.00  0.00    -0.356 OA
HETATM   19  C   UNL     1      -3.421  -4.935 -33.852  1.00  0.00     0.210 C 
ENDBRANCH  15  18
ENDBRANCH   6  12
BRANCH   8  20
HETATM   20  C   UNL     1      -9.264   2.308 -32.680  1.00  0.00     0.409 C 
HETATM   21  F   UNL     1      -8.782   3.064 -33.689  1.00  0.00    -0.169 F 
HETATM   22  F   UNL     1      -9.931   1.273 -33.255  1.00  0.00    -0.169 F 
HETATM   23  F   UNL     1     -10.189   3.040 -32.022  1.00  0.00    -0.169 F 
ENDBRANCH   8  20
BRANCH   1  24
HETATM   24  C   UNL     1      -5.628   5.726 -30.552  1.00  0.00     0.273 C 
HETATM   25  N   UNL     1      -4.663   5.615 -29.572  1.00  0.00    -0.356 N 
HETATM   26  H   UNL     1      -4.344   4.668 -29.377  1.00  0.00     0.162 HD
HETATM   27  O   UNL     1      -6.165   6.789 -30.845  1.00  0.00    -0.266 OA
BRANCH  25  28
HETATM   28  C   UNL     1      -4.248   6.718 -28.739  1.00  0.00     0.122 C 
BRANCH  28  29
HETATM   29  C   UNL     1      -5.029   6.755 -27.430  1.00  0.00     0.015 C 
HETATM   30  C   UNL     1      -4.223   7.407 -26.318  1.00  0.00     0.006 C 
ENDBRANCH  28  29
ENDBRANCH  25  28
ENDBRANCH   1  24
TORSDOF 6
ENDMDL
MODEL 10
REMARK VINA RESULT:      -7.3      5.342      8.697
REMARK  6 active torsions:
REMARK  status: ('A' for Active; 'I' for Inactive)
REMARK    1  A    between atoms: C_2  and  C_3 
REMARK    2  A    between atoms: C_3  and  N_4 
REMARK       I    between atoms: N_4  and  C_5 
REMARK    3  A    between atoms: C_5  and  C_6 
REMARK    4  A    between atoms: C_11  and  C_12 
REMARK    5  A    between atoms: C_15  and  O_16 
REMARK    6  A    between atoms: C_21  and  C_22 
ROOT
HETATM    1  C   UNL     1      -3.964  -1.580 -32.597  1.00  0.00     0.170 A 
HETATM    2  N   UNL     1      -5.127  -0.967 -32.937  1.00  0.00    -0.163 NA
HETATM    3  N   UNL     1      -4.932   0.308 -32.566  1.00  0.00    -0.238 N 
HETATM    4  C   UNL     1      -3.689   0.564 -32.058  1.00  0.00     0.145 A 
HETATM    5  N   UNL     1      -3.323   1.823 -31.708  1.00  0.00    -0.365 N 
HETATM    6  C   UNL     1      -4.299   2.909 -31.665  1.00  0.00     0.118 C 
HETATM    7  C   UNL     1      -5.331   2.715 -32.791  1.00  0.00     0.066 C 
HETATM    8  C   UNL     1      -5.965   1.314 -32.734  1.00  0.00     0.221 C 
HETATM    9  C   UNL     1      -3.039  -0.649 -32.044  1.00  0.00     0.115 A 
HETATM   10 CL   UNL     1      -1.460  -0.945 -31.497  1.00  0.00    -0.077 Cl
HETATM   11  H   UNL     1      -2.473   1.973 -31.161  1.00  0.00     0.162 HD
ENDROOT
BRANCH   6  12
HETATM   12  C   UNL     1      -3.613   4.255 -31.803  1.00  0.00    -0.035 A 
HETATM   13  C   UNL     1      -4.322   5.418 -32.137  1.00  0.00     0.012 A 
HETATM   14  C   UNL     1      -3.669   6.651 -32.213  1.00  0.00     0.037 A 
HETATM   15  C   UNL     1      -2.303   6.753 -31.947  1.00  0.00     0.068 A 
HETATM   16  C   UNL     1      -1.588   5.603 -31.614  1.00  0.00     0.037 A 
HETATM   17  C   UNL     1      -2.239   4.366 -31.541  1.00  0.00     0.012 A 
BRANCH  15  18
HETATM   18  O   UNL     1      -1.792   8.018 -32.045  1.00  0.00    -0.356 OA
HETATM   19  C   UNL     1      -2.282   8.982 -31.121  1.00  0.00     0.210 C 
ENDBRANCH  15  18
ENDBRANCH   6  12
BRANCH   8  20
HETATM   20  C   UNL     1      -6.985   1.192 -31.623  1.00  0.00     0.409 C 
HETATM   21  F   UNL     1      -6.452   0.758 -30.461  1.00  0.00    -0.169 F 
HETATM   22  F   UNL     1      -7.537   2.407 -31.367  1.00  0.00    -0.169 F 
HETATM   23  F   UNL     1      -8.006   0.368 -31.941  1.00  0.00    -0.169 F 
ENDBRANCH   8  20
BRANCH   1  24
HETATM   24  C   UNL     1      -3.786  -3.024 -32.816  1.00  0.00     0.273 C 
HETATM   25  N   UNL     1      -4.412  -3.475 -33.960  1.00  0.00    -0.356 N 
HETATM   26  H   UNL     1      -4.955  -2.779 -34.465  1.00  0.00     0.162 HD
HETATM   27  O   UNL     1      -3.159  -3.760 -32.060  1.00  0.00    -0.266 OA
BRANCH  25  28
HETATM   28  C   UNL     1      -4.462  -4.867 -34.339  1.00  0.00     0.122 C 
BRANCH  28  29
HETATM   29  C   UNL     1      -5.725  -5.186 -35.133  1.00  0.00     0.015 C 
HETATM   30  C   UNL     1      -6.749  -4.068 -35.023  1.00  0.00     0.006 C 
ENDBRANCH  28  29
ENDBRANCH  25  28
ENDBRANCH   1  24
TORSDOF 6
ENDMDL
