MODEL 1
REMARK VINA RESULT:      -9.9      0.000      0.000
REMARK  2 active torsions:
REMARK  status: ('A' for Active; 'I' for Inactive)
REMARK    1  A    between atoms: N_8  and  N_9 
REMARK       I    between atoms: N_9  and  C_10 
REMARK    2  A    between atoms: C_10  and  C_11 
ROOT
HETATM    1  N   UNL     1      -3.486   2.250 -32.332  1.00  0.00    -0.242 N 
HETATM    2  C   UNL     1      -3.487   0.936 -31.896  1.00  0.00     0.273 C 
HETATM    3  O   UNL     1      -2.741   0.486 -31.028  1.00  0.00    -0.266 OA
HETATM    4  H   UNL     1      -4.151   2.598 -33.021  1.00  0.00     0.192 HD
ENDROOT
BRANCH   1   5
HETATM    5  N   UNL     1      -2.638   3.142 -31.736  1.00  0.00    -0.166 NA
HETATM    6  C   UNL     1      -2.671   4.365 -32.155  1.00  0.00     0.157 A 
HETATM    7  C   UNL     1      -1.868   5.460 -31.626  1.00  0.00     0.027 A 
HETATM    8  C   UNL     1      -3.499   4.967 -33.291  1.00  0.00     0.277 A 
HETATM    9  C   UNL     1      -0.980   5.493 -30.569  1.00  0.00     0.023 A 
HETATM   10  C   UNL     1      -2.161   6.580 -32.399  1.00  0.00     0.048 A 
HETATM   11  C   UNL     1      -0.371   6.723 -30.281  1.00  0.00    -0.061 A 
HETATM   12  C   UNL     1       0.604   6.839 -29.143  1.00  0.00     0.048 C 
HETATM   13  C   UNL     1      -0.654   7.857 -31.084  1.00  0.00     0.009 A 
HETATM   14  C   UNL     1      -1.558   7.793 -32.152  1.00  0.00     0.031 A 
HETATM   15  N   UNL     1      -3.108   6.285 -33.378  1.00  0.00    -0.321 N 
HETATM   16  H   UNL     1      -3.490   6.937 -34.047  1.00  0.00     0.169 HD
HETATM   17  O   UNL     1      -4.326   4.361 -33.941  1.00  0.00    -0.266 OA
ENDBRANCH   1   5
BRANCH   2  18
HETATM   18  C   UNL     1      -4.507   0.031 -32.479  1.00  0.00     0.058 A 
HETATM   19  C   UNL     1      -5.888   0.204 -32.408  1.00  0.00     0.047 A 
HETATM   20  C   UNL     1      -6.550   1.371 -31.740  1.00  0.00     0.071 C 
HETATM   21  N   UNL     1      -6.759  -0.685 -32.969  1.00  0.00    -0.252 NA
HETATM   22  C   UNL     1      -6.281  -1.736 -33.662  1.00  0.00     0.067 A 
HETATM   23  C   UNL     1      -4.902  -1.960 -33.820  1.00  0.00    -0.006 A 
HETATM   24  C   UNL     1      -7.161  -2.630 -34.256  1.00  0.00     0.032 A 
HETATM   25  C   UNL     1      -4.022  -1.060 -33.213  1.00  0.00     0.033 A 
HETATM   26  C   UNL     1      -4.440  -3.056 -34.571  1.00  0.00     0.014 A 
HETATM   27  C   UNL     1      -5.345  -3.934 -35.163  1.00  0.00     0.001 A 
HETATM   28  C   UNL     1      -6.709  -3.723 -35.002  1.00  0.00     0.002 A 
ENDBRANCH   2  18
TORSDOF 2
ENDMDL
MODEL 2
REMARK VINA RESULT:      -9.9      1.866      8.647
REMARK  2 active torsions:
REMARK  status: ('A' for Active; 'I' for Inactive)
REMARK    1  A    between atoms: N_8  and  N_9 
REMARK       I    between atoms: N_9  and  C_10 
REMARK    2  A    between atoms: C_10  and  C_11 
ROOT
HETATM    1  N   UNL     1      -4.176   1.344 -32.753  1.00  0.00    -0.242 N 
HETATM    2  C   UNL     1      -3.434   1.919 -31.734  1.00  0.00     0.273 C 
HETATM    3  O   UNL     1      -2.731   1.293 -30.942  1.00  0.00    -0.266 OA
HETATM    4  H   UNL     1      -4.710   1.899 -33.420  1.00  0.00     0.192 HD
ENDROOT
BRANCH   1   5
HETATM    5  N   UNL     1      -4.100  -0.008 -32.943  1.00  0.00    -0.166 NA
HETATM    6  C   UNL     1      -5.058  -0.570 -33.605  1.00  0.00     0.157 A 
HETATM    7  C   UNL     1      -5.138  -1.988 -33.932  1.00  0.00     0.027 A 
HETATM    8  C   UNL     1      -6.330   0.061 -34.173  1.00  0.00     0.277 A 
HETATM    9  C   UNL     1      -4.244  -3.015 -33.702  1.00  0.00     0.023 A 
HETATM   10  C   UNL     1      -6.352  -2.179 -34.587  1.00  0.00     0.048 A 
HETATM   11  C   UNL     1      -4.597  -4.289 -34.168  1.00  0.00    -0.061 A 
HETATM   12  C   UNL     1      -3.674  -5.456 -33.958  1.00  0.00     0.048 C 
HETATM   13  C   UNL     1      -5.843  -4.486 -34.814  1.00  0.00     0.009 A 
HETATM   14  C   UNL     1      -6.733  -3.425 -35.032  1.00  0.00     0.031 A 
HETATM   15  N   UNL     1      -7.050  -0.979 -34.716  1.00  0.00    -0.321 N 
HETATM   16  H   UNL     1      -7.945  -0.862 -35.169  1.00  0.00     0.169 HD
HETATM   17  O   UNL     1      -6.591   1.245 -34.133  1.00  0.00    -0.266 OA
ENDBRANCH   1   5
BRANCH   2  18
HETATM   18  C   UNL     1      -3.444   3.399 -31.642  1.00  0.00     0.058 A 
HETATM   19  C   UNL     1      -4.378   4.167 -30.949  1.00  0.00     0.047 A 
HETATM   20  C   UNL     1      -5.512   3.589 -30.157  1.00  0.00     0.071 C 
HETATM   21  N   UNL     1      -4.316   5.530 -30.921  1.00  0.00    -0.252 NA
HETATM   22  C   UNL     1      -3.296   6.161 -31.534  1.00  0.00     0.067 A 
HETATM   23  C   UNL     1      -2.288   5.459 -32.219  1.00  0.00    -0.006 A 
HETATM   24  C   UNL     1      -3.214   7.546 -31.490  1.00  0.00     0.032 A 
HETATM   25  C   UNL     1      -2.382   4.066 -32.266  1.00  0.00     0.033 A 
HETATM   26  C   UNL     1      -1.225   6.152 -32.827  1.00  0.00     0.014 A 
HETATM   27  C   UNL     1      -1.163   7.542 -32.761  1.00  0.00     0.001 A 
HETATM   28  C   UNL     1      -2.162   8.242 -32.094  1.00  0.00     0.002 A 
ENDBRANCH   2  18
TORSDOF 2
ENDMDL
MODEL 3
REMARK VINA RESULT:      -9.6      4.814      7.333
REMARK  2 active torsions:
REMARK  status: ('A' for Active; 'I' for Inactive)
REMARK    1  A    between atoms: N_8  and  N_9 
REMARK       I    between atoms: N_9  and  C_10 
REMARK    2  A    between atoms: C_10  and  C_11 
ROOT
HETATM    1  N   UNL     1      -8.479   0.363 -34.045  1.00  0.00    -0.242 N 
HETATM    2  C   UNL     1      -7.322   0.273 -34.801  1.00  0.00     0.273 C 
HETATM    3  O   UNL     1      -7.074   0.966 -35.786  1.00  0.00    -0.266 OA
HETATM    4  H   UNL     1      -8.629  -0.197 -33.207  1.00  0.00     0.192 HD
ENDROOT
BRANCH   1   5
HETATM    5  N   UNL     1      -9.405   1.316 -34.367  1.00  0.00    -0.166 NA
HETATM    6  C   UNL     1      -9.847   2.064 -33.409  1.00  0.00     0.157 A 
HETATM    7  C   UNL     1     -10.811   3.147 -33.561  1.00  0.00     0.027 A 
HETATM    8  C   UNL     1      -9.522   2.001 -31.916  1.00  0.00     0.277 A 
HETATM    9  C   UNL     1     -11.405   3.668 -34.693  1.00  0.00     0.023 A 
HETATM   10  C   UNL     1     -11.059   3.641 -32.283  1.00  0.00     0.048 A 
HETATM   11  C   UNL     1     -12.285   4.746 -34.517  1.00  0.00    -0.061 A 
HETATM   12  C   UNL     1     -12.967   5.369 -35.701  1.00  0.00     0.048 C 
HETATM   13  C   UNL     1     -12.554   5.233 -33.213  1.00  0.00     0.009 A 
HETATM   14  C   UNL     1     -11.938   4.683 -32.082  1.00  0.00     0.031 A 
HETATM   15  N   UNL     1     -10.312   2.961 -31.323  1.00  0.00    -0.321 N 
HETATM   16  H   UNL     1     -10.310   3.151 -30.332  1.00  0.00     0.169 HD
HETATM   17  O   UNL     1      -8.716   1.245 -31.415  1.00  0.00    -0.266 OA
ENDBRANCH   1   5
BRANCH   2  18
HETATM   18  C   UNL     1      -6.288  -0.686 -34.343  1.00  0.00     0.058 A 
HETATM   19  C   UNL     1      -5.237  -0.401 -33.473  1.00  0.00     0.047 A 
HETATM   20  C   UNL     1      -5.017   0.941 -32.842  1.00  0.00     0.071 C 
HETATM   21  N   UNL     1      -4.323  -1.346 -33.108  1.00  0.00    -0.252 NA
HETATM   22  C   UNL     1      -4.460  -2.610 -33.552  1.00  0.00     0.067 A 
HETATM   23  C   UNL     1      -5.517  -2.993 -34.398  1.00  0.00    -0.006 A 
HETATM   24  C   UNL     1      -3.547  -3.581 -33.165  1.00  0.00     0.032 A 
HETATM   25  C   UNL     1      -6.427  -2.008 -34.789  1.00  0.00     0.033 A 
HETATM   26  C   UNL     1      -5.641  -4.328 -34.822  1.00  0.00     0.014 A 
HETATM   27  C   UNL     1      -4.715  -5.285 -34.412  1.00  0.00     0.001 A 
HETATM   28  C   UNL     1      -3.663  -4.910 -33.585  1.00  0.00     0.002 A 
ENDBRANCH   2  18
TORSDOF 2
ENDMDL
MODEL 4
REMARK VINA RESULT:      -9.6      1.968      8.807
REMARK  2 active torsions:
REMARK  status: ('A' for Active; 'I' for Inactive)
REMARK    1  A    between atoms: N_8  and  N_9 
REMARK       I    between atoms: N_9  and  C_10 
REMARK    2  A    between atoms: C_10  and  C_11 
ROOT
HETATM    1  N   UNL     1      -3.974   1.493 -32.491  1.00  0.00    -0.242 N 
HETATM    2  C   UNL     1      -4.664   2.674 -32.707  1.00  0.00     0.273 C 
HETATM    3  O   UNL     1      -5.634   2.791 -33.454  1.00  0.00    -0.266 OA
HETATM    4  H   UNL     1      -3.203   1.423 -31.828  1.00  0.00     0.192 HD
ENDROOT
BRANCH   1   5
HETATM    5  N   UNL     1      -4.412   0.351 -33.103  1.00  0.00    -0.166 NA
HETATM    6  C   UNL     1      -3.882  -0.767 -32.726  1.00  0.00     0.157 A 
HETATM    7  C   UNL     1      -4.239  -2.084 -33.238  1.00  0.00     0.027 A 
HETATM    8  C   UNL     1      -2.764  -1.003 -31.709  1.00  0.00     0.277 A 
HETATM    9  C   UNL     1      -5.212  -2.464 -34.140  1.00  0.00     0.023 A 
HETATM   10  C   UNL     1      -3.388  -2.996 -32.618  1.00  0.00     0.048 A 
HETATM   11  C   UNL     1      -5.332  -3.833 -34.416  1.00  0.00    -0.061 A 
HETATM   12  C   UNL     1      -6.371  -4.323 -35.384  1.00  0.00     0.048 C 
HETATM   13  C   UNL     1      -4.450  -4.757 -33.802  1.00  0.00     0.009 A 
HETATM   14  C   UNL     1      -3.469  -4.344 -32.892  1.00  0.00     0.031 A 
HETATM   15  N   UNL     1      -2.521  -2.358 -31.734  1.00  0.00    -0.321 N 
HETATM   16  H   UNL     1      -1.826  -2.811 -31.158  1.00  0.00     0.169 HD
HETATM   17  O   UNL     1      -2.244  -0.135 -31.040  1.00  0.00    -0.266 OA
ENDBRANCH   1   5
BRANCH   2  18
HETATM   18  C   UNL     1      -4.234   3.860 -31.927  1.00  0.00     0.058 A 
HETATM   19  C   UNL     1      -4.933   4.439 -30.870  1.00  0.00     0.047 A 
HETATM   20  C   UNL     1      -6.234   3.915 -30.342  1.00  0.00     0.071 C 
HETATM   21  N   UNL     1      -4.466   5.539 -30.209  1.00  0.00    -0.252 NA
HETATM   22  C   UNL     1      -3.268   6.056 -30.545  1.00  0.00     0.067 A 
HETATM   23  C   UNL     1      -2.479   5.506 -31.570  1.00  0.00    -0.006 A 
HETATM   24  C   UNL     1      -2.776   7.160 -29.861  1.00  0.00     0.032 A 
HETATM   25  C   UNL     1      -2.984   4.400 -32.260  1.00  0.00     0.033 A 
HETATM   26  C   UNL     1      -1.222   6.059 -31.876  1.00  0.00     0.014 A 
HETATM   27  C   UNL     1      -0.749   7.163 -31.169  1.00  0.00     0.001 A 
HETATM   28  C   UNL     1      -1.529   7.717 -30.161  1.00  0.00     0.002 A 
ENDBRANCH   2  18
TORSDOF 2
ENDMDL
MODEL 5
REMARK VINA RESULT:      -9.4      2.690      8.852
REMARK  2 active torsions:
REMARK  status: ('A' for Active; 'I' for Inactive)
REMARK    1  A    between atoms: N_8  and  N_9 
REMARK       I    between atoms: N_9  and  C_10 
REMARK    2  A    between atoms: C_10  and  C_11 
ROOT
HETATM    1  N   UNL     1      -4.403   1.433 -32.456  1.00  0.00    -0.242 N 
HETATM    2  C   UNL     1      -5.115   2.590 -32.725  1.00  0.00     0.273 C 
HETATM    3  O   UNL     1      -6.020   2.678 -33.553  1.00  0.00    -0.266 OA
HETATM    4  H   UNL     1      -3.690   1.387 -31.729  1.00  0.00     0.192 HD
ENDROOT
BRANCH   1   5
HETATM    5  N   UNL     1      -4.743   0.281 -33.109  1.00  0.00    -0.166 NA
HETATM    6  C   UNL     1      -4.132  -0.803 -32.761  1.00  0.00     0.157 A 
HETATM    7  C   UNL     1      -4.378  -2.127 -33.319  1.00  0.00     0.027 A 
HETATM    8  C   UNL     1      -3.009  -0.984 -31.739  1.00  0.00     0.277 A 
HETATM    9  C   UNL     1      -5.310  -2.552 -34.244  1.00  0.00     0.023 A 
HETATM   10  C   UNL     1      -3.465  -2.990 -32.718  1.00  0.00     0.048 A 
HETATM   11  C   UNL     1      -5.319  -3.917 -34.565  1.00  0.00    -0.061 A 
HETATM   12  C   UNL     1      -6.307  -4.456 -35.561  1.00  0.00     0.048 C 
HETATM   13  C   UNL     1      -4.374  -4.789 -33.969  1.00  0.00     0.009 A 
HETATM   14  C   UNL     1      -3.437  -4.330 -33.035  1.00  0.00     0.031 A 
HETATM   15  N   UNL     1      -2.659  -2.315 -31.802  1.00  0.00    -0.321 N 
HETATM   16  H   UNL     1      -1.937  -2.730 -31.233  1.00  0.00     0.169 HD
HETATM   17  O   UNL     1      -2.565  -0.100 -31.035  1.00  0.00    -0.266 OA
ENDBRANCH   1   5
BRANCH   2  18
HETATM   18  C   UNL     1      -4.799   3.785 -31.906  1.00  0.00     0.058 A 
HETATM   19  C   UNL     1      -3.860   4.766 -32.220  1.00  0.00     0.047 A 
HETATM   20  C   UNL     1      -3.039   4.764 -33.474  1.00  0.00     0.071 C 
HETATM   21  N   UNL     1      -3.627   5.834 -31.403  1.00  0.00    -0.252 NA
HETATM   22  C   UNL     1      -4.358   5.984 -30.282  1.00  0.00     0.067 A 
HETATM   23  C   UNL     1      -5.356   5.064 -29.913  1.00  0.00    -0.006 A 
HETATM   24  C   UNL     1      -4.143   7.080 -29.458  1.00  0.00     0.032 A 
HETATM   25  C   UNL     1      -5.562   3.958 -30.743  1.00  0.00     0.033 A 
HETATM   26  C   UNL     1      -6.116   5.267 -28.747  1.00  0.00     0.014 A 
HETATM   27  C   UNL     1      -5.885   6.380 -27.942  1.00  0.00     0.001 A 
HETATM   28  C   UNL     1      -4.893   7.288 -28.296  1.00  0.00     0.002 A 
ENDBRANCH   2  18
TORSDOF 2
ENDMDL
MODEL 6
REMARK VINA RESULT:      -9.3      1.648      8.853
REMARK  2 active torsions:
REMARK  status: ('A' for Active; 'I' for Inactive)
REMARK    1  A    between atoms: N_8  and  N_9 
REMARK       I    between atoms: N_9  and  C_10 
REMARK    2  A    between atoms: C_10  and  C_11 
ROOT
HETATM    1  N   UNL     1      -3.163   2.882 -31.269  1.00  0.00    -0.242 N 
HETATM    2  C   UNL     1      -2.574   3.910 -31.986  1.00  0.00     0.273 C 
HETATM    3  O   UNL     1      -2.344   3.878 -33.194  1.00  0.00    -0.266 OA
HETATM    4  H   UNL     1      -3.381   2.962 -30.277  1.00  0.00     0.192 HD
ENDROOT
BRANCH   1   5
HETATM    5  N   UNL     1      -3.571   1.760 -31.937  1.00  0.00    -0.166 NA
HETATM    6  C   UNL     1      -4.845   1.570 -32.058  1.00  0.00     0.157 A 
HETATM    7  C   UNL     1      -5.468   0.454 -32.758  1.00  0.00     0.027 A 
HETATM    8  C   UNL     1      -5.996   2.406 -31.497  1.00  0.00     0.277 A 
HETATM    9  C   UNL     1      -4.906  -0.578 -33.483  1.00  0.00     0.023 A 
HETATM   10  C   UNL     1      -6.843   0.595 -32.589  1.00  0.00     0.048 A 
HETATM   11  C   UNL     1      -5.782  -1.500 -34.072  1.00  0.00    -0.061 A 
HETATM   12  C   UNL     1      -5.246  -2.647 -34.880  1.00  0.00     0.048 C 
HETATM   13  C   UNL     1      -7.181  -1.367 -33.880  1.00  0.00     0.009 A 
HETATM   14  C   UNL     1      -7.723  -0.312 -33.136  1.00  0.00     0.031 A 
HETATM   15  N   UNL     1      -7.146   1.732 -31.843  1.00  0.00    -0.321 N 
HETATM   16  H   UNL     1      -8.073   2.052 -31.605  1.00  0.00     0.169 HD
HETATM   17  O   UNL     1      -5.862   3.448 -30.890  1.00  0.00    -0.266 OA
ENDBRANCH   1   5
BRANCH   2  18
HETATM   18  C   UNL     1      -2.262   5.157 -31.247  1.00  0.00     0.058 A 
HETATM   19  C   UNL     1      -3.076   6.286 -31.170  1.00  0.00     0.047 A 
HETATM   20  C   UNL     1      -4.425   6.389 -31.816  1.00  0.00     0.071 C 
HETATM   21  N   UNL     1      -2.707   7.398 -30.471  1.00  0.00    -0.252 NA
HETATM   22  C   UNL     1      -1.548   7.397 -29.785  1.00  0.00     0.067 A 
HETATM   23  C   UNL     1      -0.689   6.283 -29.773  1.00  0.00    -0.006 A 
HETATM   24  C   UNL     1      -1.177   8.516 -29.051  1.00  0.00     0.032 A 
HETATM   25  C   UNL     1      -1.065   5.163 -30.520  1.00  0.00     0.033 A 
HETATM   26  C   UNL     1       0.502   6.310 -29.025  1.00  0.00     0.014 A 
HETATM   27  C   UNL     1       0.846   7.443 -28.291  1.00  0.00     0.001 A 
HETATM   28  C   UNL     1       0.006   8.551 -28.307  1.00  0.00     0.002 A 
ENDBRANCH   2  18
TORSDOF 2
ENDMDL
MODEL 7
REMARK VINA RESULT:      -9.2      2.363      3.392
REMARK  2 active torsions:
REMARK  status: ('A' for Active; 'I' for Inactive)
REMARK    1  A    between atoms: N_8  and  N_9 
REMARK       I    between atoms: N_9  and  C_10 
REMARK    2  A    between atoms: C_10  and  C_11 
ROOT
HETATM    1  N   UNL     1      -5.037   2.085 -32.975  1.00  0.00    -0.242 N 
HETATM    2  C   UNL     1      -5.650   1.007 -32.358  1.00  0.00     0.273 C 
HETATM    3  O   UNL     1      -6.561   1.097 -31.537  1.00  0.00    -0.266 OA
HETATM    4  H   UNL     1      -4.316   1.970 -33.687  1.00  0.00     0.192 HD
ENDROOT
BRANCH   1   5
HETATM    5  N   UNL     1      -5.491   3.346 -32.706  1.00  0.00    -0.166 NA
HETATM    6  C   UNL     1      -4.691   4.146 -32.080  1.00  0.00     0.157 A 
HETATM    7  C   UNL     1      -4.984   5.530 -31.732  1.00  0.00     0.027 A 
HETATM    8  C   UNL     1      -3.293   3.863 -31.528  1.00  0.00     0.277 A 
HETATM    9  C   UNL     1      -6.082   6.316 -32.021  1.00  0.00     0.023 A 
HETATM   10  C   UNL     1      -3.889   6.001 -31.012  1.00  0.00     0.048 A 
HETATM   11  C   UNL     1      -6.060   7.641 -31.564  1.00  0.00    -0.061 A 
HETATM   12  C   UNL     1      -7.217   8.558 -31.843  1.00  0.00     0.048 C 
HETATM   13  C   UNL     1      -4.955   8.111 -30.812  1.00  0.00     0.009 A 
HETATM   14  C   UNL     1      -3.855   7.291 -30.531  1.00  0.00     0.031 A 
HETATM   15  N   UNL     1      -2.907   5.020 -30.886  1.00  0.00    -0.321 N 
HETATM   16  H   UNL     1      -2.018   5.129 -30.421  1.00  0.00     0.169 HD
HETATM   17  O   UNL     1      -2.692   2.819 -31.668  1.00  0.00    -0.266 OA
ENDBRANCH   1   5
BRANCH   2  18
HETATM   18  C   UNL     1      -5.213  -0.348 -32.773  1.00  0.00     0.058 A 
HETATM   19  C   UNL     1      -4.044  -0.989 -32.368  1.00  0.00     0.047 A 
HETATM   20  C   UNL     1      -3.054  -0.394 -31.412  1.00  0.00     0.071 C 
HETATM   21  N   UNL     1      -3.714  -2.239 -32.805  1.00  0.00    -0.252 NA
HETATM   22  C   UNL     1      -4.564  -2.906 -33.610  1.00  0.00     0.067 A 
HETATM   23  C   UNL     1      -5.786  -2.351 -34.029  1.00  0.00    -0.006 A 
HETATM   24  C   UNL     1      -4.246  -4.188 -34.038  1.00  0.00     0.032 A 
HETATM   25  C   UNL     1      -6.095  -1.057 -33.600  1.00  0.00     0.033 A 
HETATM   26  C   UNL     1      -6.658  -3.088 -34.850  1.00  0.00     0.014 A 
HETATM   27  C   UNL     1      -6.319  -4.375 -35.260  1.00  0.00     0.001 A 
HETATM   28  C   UNL     1      -5.108  -4.926 -34.856  1.00  0.00     0.002 A 
ENDBRANCH   2  18
TORSDOF 2
ENDMDL
MODEL 8
REMARK VINA RESULT:      -9.1      5.204      9.199
REMARK  2 active torsions:
REMARK  status: ('A' for Active; 'I' for Inactive)
REMARK    1  A    between atoms: N_8  and  N_9 
REMARK       I    between atoms: N_9  and  C_10 
REMARK    2  A    between atoms: C_10  and  C_11 
ROOT
HETATM    1  N   UNL     1      -9.121   1.561 -34.659  1.00  0.00    -0.242 N 
HETATM    2  C   UNL     1     -10.330   1.606 -33.984  1.00  0.00     0.273 C 
HETATM    3  O   UNL     1     -10.919   0.622 -33.540  1.00  0.00    -0.266 OA
HETATM    4  H   UNL     1      -8.639   2.402 -34.973  1.00  0.00     0.192 HD
ENDROOT
BRANCH   1   5
HETATM    5  N   UNL     1      -8.495   0.355 -34.814  1.00  0.00    -0.166 NA
HETATM    6  C   UNL     1      -7.317   0.226 -34.298  1.00  0.00     0.157 A 
HETATM    7  C   UNL     1      -6.509  -0.987 -34.334  1.00  0.00     0.027 A 
HETATM    8  C   UNL     1      -6.470   1.270 -33.570  1.00  0.00     0.277 A 
HETATM    9  C   UNL     1      -6.797  -2.243 -34.827  1.00  0.00     0.023 A 
HETATM   10  C   UNL     1      -5.295  -0.675 -33.727  1.00  0.00     0.048 A 
HETATM   11  C   UNL     1      -5.809  -3.229 -34.689  1.00  0.00    -0.061 A 
HETATM   12  C   UNL     1      -6.050  -4.621 -35.198  1.00  0.00     0.048 C 
HETATM   13  C   UNL     1      -4.565  -2.903 -34.092  1.00  0.00     0.009 A 
HETATM   14  C   UNL     1      -4.299  -1.618 -33.602  1.00  0.00     0.031 A 
HETATM   15  N   UNL     1      -5.273   0.649 -33.291  1.00  0.00    -0.321 N 
HETATM   16  H   UNL     1      -4.509   1.100 -32.810  1.00  0.00     0.169 HD
HETATM   17  O   UNL     1      -6.836   2.397 -33.308  1.00  0.00    -0.266 OA
ENDBRANCH   1   5
BRANCH   2  18
HETATM   18  C   UNL     1     -10.912   2.945 -33.727  1.00  0.00     0.058 A 
HETATM   19  C   UNL     1     -10.741   3.702 -32.570  1.00  0.00     0.047 A 
HETATM   20  C   UNL     1      -9.901   3.269 -31.406  1.00  0.00     0.071 C 
HETATM   21  N   UNL     1     -11.321   4.927 -32.414  1.00  0.00    -0.252 NA
HETATM   22  C   UNL     1     -12.038   5.456 -33.424  1.00  0.00     0.067 A 
HETATM   23  C   UNL     1     -12.224   4.778 -34.642  1.00  0.00    -0.006 A 
HETATM   24  C   UNL     1     -12.611   6.712 -33.281  1.00  0.00     0.032 A 
HETATM   25  C   UNL     1     -11.651   3.510 -34.775  1.00  0.00     0.033 A 
HETATM   26  C   UNL     1     -12.960   5.372 -35.683  1.00  0.00     0.014 A 
HETATM   27  C   UNL     1     -13.518   6.638 -35.516  1.00  0.00     0.001 A 
HETATM   28  C   UNL     1     -13.346   7.309 -34.310  1.00  0.00     0.002 A 
ENDBRANCH   2  18
TORSDOF 2
ENDMDL
MODEL 9
REMARK VINA RESULT:      -9.0      1.828      2.156
REMARK  2 active torsions:
REMARK  status: ('A' for Active; 'I' for Inactive)
REMARK    1  A    between atoms: N_8  and  N_9 
REMARK       I    between atoms: N_9  and  C_10 
REMARK    2  A    between atoms: C_10  and  C_11 
ROOT
HETATM    1  N   UNL     1      -5.040   3.480 -31.846  1.00  0.00    -0.242 N 
HETATM    2  C   UNL     1      -5.388   2.340 -31.142  1.00  0.00     0.273 C 
HETATM    3  O   UNL     1      -5.359   2.238 -29.917  1.00  0.00    -0.266 OA
HETATM    4  H   UNL     1      -5.121   3.543 -32.860  1.00  0.00     0.192 HD
ENDROOT
BRANCH   1   5
HETATM    5  N   UNL     1      -4.681   4.602 -31.151  1.00  0.00    -0.166 NA
HETATM    6  C   UNL     1      -3.454   4.999 -31.254  1.00  0.00     0.157 A 
HETATM    7  C   UNL     1      -2.895   6.183 -30.615  1.00  0.00     0.027 A 
HETATM    8  C   UNL     1      -2.297   4.348 -32.013  1.00  0.00     0.277 A 
HETATM    9  C   UNL     1      -3.498   7.159 -29.847  1.00  0.00     0.023 A 
HETATM   10  C   UNL     1      -1.538   6.203 -30.930  1.00  0.00     0.048 A 
HETATM   11  C   UNL     1      -2.687   8.207 -29.388  1.00  0.00    -0.061 A 
HETATM   12  C   UNL     1      -3.272   9.308 -28.551  1.00  0.00     0.048 C 
HETATM   13  C   UNL     1      -1.302   8.213 -29.691  1.00  0.00     0.009 A 
HETATM   14  C   UNL     1      -0.716   7.207 -30.470  1.00  0.00     0.031 A 
HETATM   15  N   UNL     1      -1.191   5.122 -31.739  1.00  0.00    -0.321 N 
HETATM   16  H   UNL     1      -0.272   4.932 -32.109  1.00  0.00     0.169 HD
HETATM   17  O   UNL     1      -2.396   3.358 -32.708  1.00  0.00    -0.266 OA
ENDBRANCH   1   5
BRANCH   2  18
HETATM   18  C   UNL     1      -5.892   1.187 -31.927  1.00  0.00     0.058 A 
HETATM   19  C   UNL     1      -7.225   0.941 -32.253  1.00  0.00     0.047 A 
HETATM   20  C   UNL     1      -8.359   1.843 -31.868  1.00  0.00     0.071 C 
HETATM   21  N   UNL     1      -7.604  -0.152 -32.977  1.00  0.00    -0.252 NA
HETATM   22  C   UNL     1      -6.664  -0.997 -33.444  1.00  0.00     0.067 A 
HETATM   23  C   UNL     1      -5.294  -0.798 -33.199  1.00  0.00    -0.006 A 
HETATM   24  C   UNL     1      -7.040  -2.097 -34.202  1.00  0.00     0.032 A 
HETATM   25  C   UNL     1      -4.923   0.308 -32.429  1.00  0.00     0.033 A 
HETATM   26  C   UNL     1      -4.340  -1.688 -33.724  1.00  0.00     0.014 A 
HETATM   27  C   UNL     1      -4.744  -2.781 -34.488  1.00  0.00     0.001 A 
HETATM   28  C   UNL     1      -6.098  -2.989 -34.725  1.00  0.00     0.002 A 
ENDBRANCH   2  18
TORSDOF 2
ENDMDL
MODEL 10
REMARK VINA RESULT:      -8.9      2.434      3.306
REMARK  2 active torsions:
REMARK  status: ('A' for Active; 'I' for Inactive)
REMARK    1  A    between atoms: N_8  and  N_9 
REMARK       I    between atoms: N_9  and  C_10 
REMARK    2  A    between atoms: C_10  and  C_11 
ROOT
HETATM    1  N   UNL     1      -4.237   4.990 -31.826  1.00  0.00    -0.242 N 
HETATM    2  C   UNL     1      -5.222   4.130 -31.368  1.00  0.00     0.273 C 
HETATM    3  O   UNL     1      -5.668   4.125 -30.221  1.00  0.00    -0.266 OA
HETATM    4  H   UNL     1      -3.926   4.996 -32.796  1.00  0.00     0.192 HD
ENDROOT
BRANCH   1   5
HETATM    5  N   UNL     1      -3.743   5.941 -30.977  1.00  0.00    -0.166 NA
HETATM    6  C   UNL     1      -2.470   5.934 -30.752  1.00  0.00     0.157 A 
HETATM    7  C   UNL     1      -1.759   6.882 -29.904  1.00  0.00     0.027 A 
HETATM    8  C   UNL     1      -1.412   4.955 -31.262  1.00  0.00     0.277 A 
HETATM    9  C   UNL     1      -2.211   7.996 -29.227  1.00  0.00     0.023 A 
HETATM   10  C   UNL     1      -0.426   6.476 -29.883  1.00  0.00     0.048 A 
HETATM   11  C   UNL     1      -1.264   8.736 -28.504  1.00  0.00    -0.061 A 
HETATM   12  C   UNL     1      -1.680   9.964 -27.745  1.00  0.00     0.048 C 
HETATM   13  C   UNL     1       0.087   8.309 -28.466  1.00  0.00     0.009 A 
HETATM   14  C   UNL     1       0.518   7.172 -29.161  1.00  0.00     0.031 A 
HETATM   15  N   UNL     1      -0.230   5.343 -30.670  1.00  0.00    -0.321 N 
HETATM   16  H   UNL     1       0.651   4.875 -30.824  1.00  0.00     0.169 HD
HETATM   17  O   UNL     1      -1.627   4.047 -32.038  1.00  0.00    -0.266 OA
ENDBRANCH   1   5
BRANCH   2  18
HETATM   18  C   UNL     1      -5.820   3.199 -32.355  1.00  0.00     0.058 A 
HETATM   19  C   UNL     1      -6.763   3.532 -33.325  1.00  0.00     0.047 A 
HETATM   20  C   UNL     1      -7.296   4.918 -33.530  1.00  0.00     0.071 C 
HETATM   21  N   UNL     1      -7.267   2.607 -34.193  1.00  0.00    -0.252 NA
HETATM   22  C   UNL     1      -6.808   1.342 -34.155  1.00  0.00     0.067 A 
HETATM   23  C   UNL     1      -5.825   0.932 -33.236  1.00  0.00    -0.006 A 
HETATM   24  C   UNL     1      -7.299   0.401 -35.050  1.00  0.00     0.032 A 
HETATM   25  C   UNL     1      -5.341   1.882 -32.333  1.00  0.00     0.033 A 
HETATM   26  C   UNL     1      -5.352  -0.393 -33.243  1.00  0.00     0.014 A 
HETATM   27  C   UNL     1      -5.857  -1.315 -34.157  1.00  0.00     0.001 A 
HETATM   28  C   UNL     1      -6.836  -0.918 -35.061  1.00  0.00     0.002 A 
ENDBRANCH   2  18
TORSDOF 2
ENDMDL
