MODEL 1
REMARK VINA RESULT:      -9.0      0.000      0.000
REMARK  7 active torsions:
REMARK  status: ('A' for Active; 'I' for Inactive)
REMARK    1  A    between atoms: C_3  and  N_4 
REMARK       I    between atoms: N_4  and  C_5 
REMARK    2  A    between atoms: C_5  and  C_6 
REMARK    3  A    between atoms: C_7  and  C_8 
REMARK    4  A    between atoms: C_19  and  C_20 
REMARK    5  A    between atoms: C_20  and  C_21 
REMARK    6  A    between atoms: C_21  and  C_22 
REMARK    7  A    between atoms: C_22  and  O_23 
ROOT
HETATM    1  C   UNL     1      -8.392   3.722 -33.083  1.00  0.00     0.062 C 
HETATM    2  C   UNL     1      -7.128   2.977 -32.635  1.00  0.00     0.202 C 
HETATM    3  N   UNL     1      -5.947   3.844 -32.736  1.00  0.00    -0.083 N 
HETATM    4  C   UNL     1      -5.925   5.020 -33.435  1.00  0.00     0.726 A 
HETATM    5  N   UNL     1      -7.068   5.495 -33.960  1.00  0.00    -0.192 N 
HETATM    6  N   UNL     1      -4.724   3.532 -32.256  1.00  0.00    -0.140 NA
HETATM    7  C   UNL     1      -3.994   4.535 -32.764  1.00  0.00     0.166 A 
HETATM    8  N   UNL     1      -4.699   5.474 -33.489  1.00  0.00    -0.046 NA
HETATM    9  C   UNL     1      -8.308   4.893 -33.767  1.00  0.00     0.037 C 
HETATM   10  C   UNL     1      -9.473   5.609 -34.406  1.00  0.00     0.070 C 
HETATM   11  H   UNL     1      -7.040   6.370 -34.477  1.00  0.00     0.184 HD
ENDROOT
BRANCH   1  12
HETATM   12  C   UNL     1      -9.672   3.036 -32.726  1.00  0.00     0.256 C 
HETATM   13  N   UNL     1     -10.384   2.575 -33.809  1.00  0.00    -0.323 N 
HETATM   14  H   UNL     1     -10.157   2.996 -34.701  1.00  0.00     0.169 HD
HETATM   15  O   UNL     1     -10.068   3.052 -31.569  1.00  0.00    -0.267 OA
BRANCH  13  16
HETATM   16  C   UNL     1     -11.504   1.709 -33.816  1.00  0.00     0.041 A 
HETATM   17  C   UNL     1     -11.526   0.373 -33.376  1.00  0.00    -0.035 A 
HETATM   18  C   UNL     1     -10.335  -0.393 -32.869  1.00  0.00     0.050 C 
HETATM   19  C   UNL     1     -12.740  -0.345 -33.445  1.00  0.00     0.009 A 
HETATM   20  C   UNL     1     -13.891   0.220 -33.990  1.00  0.00     0.001 A 
HETATM   21  C   UNL     1     -13.851   1.518 -34.477  1.00  0.00     0.002 A 
HETATM   22  C   UNL     1     -12.667   2.252 -34.395  1.00  0.00     0.030 A 
ENDBRANCH  13  16
ENDBRANCH   1  12
BRANCH   2  23
HETATM   23  C   UNL     1      -6.857   1.698 -33.433  1.00  0.00    -0.027 A 
HETATM   24  C   UNL     1      -5.944   0.727 -32.981  1.00  0.00     0.028 A 
HETATM   25  C   UNL     1      -5.726  -0.434 -33.724  1.00  0.00     0.011 A 
HETATM   26 BR   UNL     1      -4.495  -1.724 -33.099  1.00  0.00    -0.051 Br
HETATM   27  C   UNL     1      -6.407  -0.649 -34.919  1.00  0.00     0.019 A 
HETATM   28  C   UNL     1      -7.316   0.303 -35.376  1.00  0.00     0.002 A 
HETATM   29  C   UNL     1      -7.542   1.467 -34.639  1.00  0.00     0.010 A 
ENDBRANCH   2  23
BRANCH   7  30
HETATM   30  C   UNL     1      -2.514   4.579 -32.685  1.00  0.00     0.085 C 
BRANCH  30  31
HETATM   31  C   UNL     1      -1.855   4.820 -34.047  1.00  0.00     0.034 C 
BRANCH  31  32
HETATM   32  C   UNL     1      -1.256   6.213 -34.232  1.00  0.00     0.164 C 
BRANCH  32  33
HETATM   33  O   UNL     1      -2.256   7.171 -34.543  1.00  0.00    -0.401 OA
HETATM   34  H   UNL     1      -2.785   6.790 -35.274  1.00  0.00     0.209 HD
ENDBRANCH  32  33
ENDBRANCH  31  32
ENDBRANCH  30  31
ENDBRANCH   7  30
TORSDOF 7
ENDMDL
MODEL 2
REMARK VINA RESULT:      -9.0      3.381      5.798
REMARK  7 active torsions:
REMARK  status: ('A' for Active; 'I' for Inactive)
REMARK    1  A    between atoms: C_3  and  N_4 
REMARK       I    between atoms: N_4  and  C_5 
REMARK    2  A    between atoms: C_5  and  C_6 
REMARK    3  A    between atoms: C_7  and  C_8 
REMARK    4  A    between atoms: C_19  and  C_20 
REMARK    5  A    between atoms: C_20  and  C_21 
REMARK    6  A    between atoms: C_21  and  C_22 
REMARK    7  A    between atoms: C_22  and  O_23 
ROOT
HETATM    1  C   UNL     1      -7.425   1.915 -32.888  1.00  0.00     0.062 C 
HETATM    2  C   UNL     1      -6.411   2.583 -31.951  1.00  0.00     0.202 C 
HETATM    3  N   UNL     1      -7.095   3.368 -30.915  1.00  0.00    -0.083 N 
HETATM    4  C   UNL     1      -8.416   3.721 -30.977  1.00  0.00     0.726 A 
HETATM    5  N   UNL     1      -9.183   3.226 -31.965  1.00  0.00    -0.192 N 
HETATM    6  N   UNL     1      -6.484   3.928 -29.850  1.00  0.00    -0.140 NA
HETATM    7  C   UNL     1      -7.485   4.665 -29.348  1.00  0.00     0.166 A 
HETATM    8  N   UNL     1      -8.691   4.557 -30.010  1.00  0.00    -0.046 NA
HETATM    9  C   UNL     1      -8.728   2.301 -32.898  1.00  0.00     0.037 C 
HETATM   10  C   UNL     1      -9.761   1.841 -33.898  1.00  0.00     0.070 C 
HETATM   11  H   UNL     1     -10.163   3.494 -32.000  1.00  0.00     0.184 HD
ENDROOT
BRANCH   1  12
HETATM   12  C   UNL     1      -6.844   0.858 -33.773  1.00  0.00     0.256 C 
HETATM   13  N   UNL     1      -6.386  -0.251 -33.100  1.00  0.00    -0.323 N 
HETATM   14  H   UNL     1      -6.199  -0.124 -32.113  1.00  0.00     0.169 HD
HETATM   15  O   UNL     1      -6.680   1.085 -34.964  1.00  0.00    -0.267 OA
BRANCH  13  16
HETATM   16  C   UNL     1      -5.987  -1.498 -33.636  1.00  0.00     0.041 A 
HETATM   17  C   UNL     1      -4.678  -2.015 -33.658  1.00  0.00    -0.035 A 
HETATM   18  C   UNL     1      -3.454  -1.296 -33.160  1.00  0.00     0.050 C 
HETATM   19  C   UNL     1      -4.461  -3.289 -34.227  1.00  0.00     0.009 A 
HETATM   20  C   UNL     1      -5.496  -4.011 -34.814  1.00  0.00     0.001 A 
HETATM   21  C   UNL     1      -6.774  -3.474 -34.844  1.00  0.00     0.002 A 
HETATM   22  C   UNL     1      -7.015  -2.228 -34.265  1.00  0.00     0.030 A 
ENDBRANCH  13  16
ENDBRANCH   1  12
BRANCH   2  23
HETATM   23  C   UNL     1      -5.421   3.500 -32.675  1.00  0.00    -0.027 A 
HETATM   24  C   UNL     1      -4.124   3.724 -32.176  1.00  0.00     0.028 A 
HETATM   25  C   UNL     1      -3.239   4.556 -32.864  1.00  0.00     0.011 A 
HETATM   26 BR   UNL     1      -1.503   4.844 -32.175  1.00  0.00    -0.051 Br
HETATM   27  C   UNL     1      -3.624   5.174 -34.051  1.00  0.00     0.019 A 
HETATM   28  C   UNL     1      -4.904   4.956 -34.557  1.00  0.00     0.002 A 
HETATM   29  C   UNL     1      -5.796   4.125 -33.877  1.00  0.00     0.010 A 
ENDBRANCH   2  23
BRANCH   7  30
HETATM   30  C   UNL     1      -7.299   5.641 -28.246  1.00  0.00     0.085 C 
BRANCH  30  31
HETATM   31  C   UNL     1      -5.984   6.419 -28.361  1.00  0.00     0.034 C 
BRANCH  31  32
HETATM   32  C   UNL     1      -5.080   6.335 -27.132  1.00  0.00     0.164 C 
BRANCH  32  33
HETATM   33  O   UNL     1      -4.947   4.997 -26.676  1.00  0.00    -0.401 OA
HETATM   34  H   UNL     1      -4.402   5.036 -25.862  1.00  0.00     0.209 HD
ENDBRANCH  32  33
ENDBRANCH  31  32
ENDBRANCH  30  31
ENDBRANCH   7  30
TORSDOF 7
ENDMDL
MODEL 3
REMARK VINA RESULT:      -8.9     16.592     19.386
REMARK  7 active torsions:
REMARK  status: ('A' for Active; 'I' for Inactive)
REMARK    1  A    between atoms: C_3  and  N_4 
REMARK       I    between atoms: N_4  and  C_5 
REMARK    2  A    between atoms: C_5  and  C_6 
REMARK    3  A    between atoms: C_7  and  C_8 
REMARK    4  A    between atoms: C_19  and  C_20 
REMARK    5  A    between atoms: C_20  and  C_21 
REMARK    6  A    between atoms: C_21  and  C_22 
REMARK    7  A    between atoms: C_22  and  O_23 
ROOT
HETATM    1  C   UNL     1      -4.309 -12.970 -38.174  1.00  0.00     0.062 C 
HETATM    2  C   UNL     1      -5.022 -12.869 -39.529  1.00  0.00     0.202 C 
HETATM    3  N   UNL     1      -6.452 -12.584 -39.347  1.00  0.00    -0.083 N 
HETATM    4  C   UNL     1      -7.108 -12.721 -38.154  1.00  0.00     0.726 A 
HETATM    5  N   UNL     1      -6.404 -13.004 -37.044  1.00  0.00    -0.192 N 
HETATM    6  N   UNL     1      -7.304 -12.272 -40.346  1.00  0.00    -0.140 NA
HETATM    7  C   UNL     1      -8.474 -12.303 -39.694  1.00  0.00     0.166 A 
HETATM    8  N   UNL     1      -8.393 -12.567 -38.342  1.00  0.00    -0.046 NA
HETATM    9  C   UNL     1      -5.016 -13.093 -37.020  1.00  0.00     0.037 C 
HETATM   10  C   UNL     1      -4.417 -13.379 -35.664  1.00  0.00     0.070 C 
HETATM   11  H   UNL     1      -6.902 -13.102 -36.164  1.00  0.00     0.184 HD
ENDROOT
BRANCH   1  12
HETATM   12  C   UNL     1      -2.816 -12.947 -38.259  1.00  0.00     0.256 C 
HETATM   13  N   UNL     1      -2.228 -14.187 -38.162  1.00  0.00    -0.323 N 
HETATM   14  H   UNL     1      -2.795 -14.915 -37.746  1.00  0.00     0.169 HD
HETATM   15  O   UNL     1      -2.224 -11.877 -38.260  1.00  0.00    -0.267 OA
BRANCH  13  16
HETATM   16  C   UNL     1      -0.881 -14.539 -38.415  1.00  0.00     0.041 A 
HETATM   17  C   UNL     1      -0.211 -14.435 -39.649  1.00  0.00    -0.035 A 
HETATM   18  C   UNL     1      -0.836 -13.979 -40.939  1.00  0.00     0.050 C 
HETATM   19  C   UNL     1       1.144 -14.823 -39.720  1.00  0.00     0.009 A 
HETATM   20  C   UNL     1       1.809 -15.357 -38.619  1.00  0.00     0.001 A 
HETATM   21  C   UNL     1       1.129 -15.514 -37.420  1.00  0.00     0.002 A 
HETATM   22  C   UNL     1      -0.204 -15.112 -37.322  1.00  0.00     0.030 A 
ENDBRANCH  13  16
ENDBRANCH   1  12
BRANCH   2  23
HETATM   23  C   UNL     1      -4.887 -14.131 -40.385  1.00  0.00    -0.027 A 
HETATM   24  C   UNL     1      -4.544 -14.063 -41.749  1.00  0.00     0.028 A 
HETATM   25  C   UNL     1      -4.417 -15.230 -42.502  1.00  0.00     0.011 A 
HETATM   26 BR   UNL     1      -3.957 -15.115 -44.332  1.00  0.00    -0.051 Br
HETATM   27  C   UNL     1      -4.625 -16.477 -41.919  1.00  0.00     0.019 A 
HETATM   28  C   UNL     1      -4.961 -16.559 -40.569  1.00  0.00     0.002 A 
HETATM   29  C   UNL     1      -5.090 -15.396 -39.807  1.00  0.00     0.010 A 
ENDBRANCH   2  23
BRANCH   7  30
HETATM   30  C   UNL     1      -9.786 -12.200 -40.380  1.00  0.00     0.085 C 
BRANCH  30  31
HETATM   31  C   UNL     1     -10.759 -13.307 -39.963  1.00  0.00     0.034 C 
BRANCH  31  32
HETATM   32  C   UNL     1     -10.985 -14.391 -41.017  1.00  0.00     0.164 C 
BRANCH  32  33
HETATM   33  O   UNL     1     -12.345 -14.446 -41.421  1.00  0.00    -0.401 OA
HETATM   34  H   UNL     1     -12.876 -14.171 -40.644  1.00  0.00     0.209 HD
ENDBRANCH  32  33
ENDBRANCH  31  32
ENDBRANCH  30  31
ENDBRANCH   7  30
TORSDOF 7
ENDMDL
MODEL 4
REMARK VINA RESULT:      -8.8      3.570      5.856
REMARK  7 active torsions:
REMARK  status: ('A' for Active; 'I' for Inactive)
REMARK    1  A    between atoms: C_3  and  N_4 
REMARK       I    between atoms: N_4  and  C_5 
REMARK    2  A    between atoms: C_5  and  C_6 
REMARK    3  A    between atoms: C_7  and  C_8 
REMARK    4  A    between atoms: C_19  and  C_20 
REMARK    5  A    between atoms: C_20  and  C_21 
REMARK    6  A    between atoms: C_21  and  C_22 
REMARK    7  A    between atoms: C_22  and  O_23 
ROOT
HETATM    1  C   UNL     1      -7.562   1.573 -31.267  1.00  0.00     0.062 C 
HETATM    2  C   UNL     1      -6.580   2.431 -30.460  1.00  0.00     0.202 C 
HETATM    3  N   UNL     1      -7.240   3.638 -29.945  1.00  0.00    -0.083 N 
HETATM    4  C   UNL     1      -8.449   4.093 -30.397  1.00  0.00     0.726 A 
HETATM    5  N   UNL     1      -9.152   3.345 -31.265  1.00  0.00    -0.192 N 
HETATM    6  N   UNL     1      -6.688   4.497 -29.062  1.00  0.00    -0.140 NA
HETATM    7  C   UNL     1      -7.591   5.487 -29.079  1.00  0.00     0.166 A 
HETATM    8  N   UNL     1      -8.692   5.271 -29.882  1.00  0.00    -0.046 NA
HETATM    9  C   UNL     1      -8.755   2.078 -31.680  1.00  0.00     0.037 C 
HETATM   10  C   UNL     1      -9.707   1.387 -32.626  1.00  0.00     0.070 C 
HETATM   11  H   UNL     1     -10.049   3.693 -31.592  1.00  0.00     0.184 HD
ENDROOT
BRANCH   1  12
HETATM   12  C   UNL     1      -7.075   0.191 -31.565  1.00  0.00     0.256 C 
HETATM   13  N   UNL     1      -6.931  -0.079 -32.906  1.00  0.00    -0.323 N 
HETATM   14  H   UNL     1      -7.440   0.527 -33.537  1.00  0.00     0.169 HD
HETATM   15  O   UNL     1      -6.979  -0.627 -30.660  1.00  0.00    -0.267 OA
BRANCH  13  16
HETATM   16  C   UNL     1      -6.298  -1.191 -33.512  1.00  0.00     0.041 A 
HETATM   17  C   UNL     1      -4.912  -1.418 -33.592  1.00  0.00    -0.035 A 
HETATM   18  C   UNL     1      -3.849  -0.478 -33.092  1.00  0.00     0.050 C 
HETATM   19  C   UNL     1      -4.452  -2.593 -34.226  1.00  0.00     0.009 A 
HETATM   20  C   UNL     1      -5.333  -3.493 -34.820  1.00  0.00     0.001 A 
HETATM   21  C   UNL     1      -6.695  -3.237 -34.792  1.00  0.00     0.002 A 
HETATM   22  C   UNL     1      -7.172  -2.094 -34.147  1.00  0.00     0.030 A 
ENDBRANCH  13  16
ENDBRANCH   1  12
BRANCH   2  23
HETATM   23  C   UNL     1      -5.344   2.859 -31.256  1.00  0.00    -0.027 A 
HETATM   24  C   UNL     1      -5.454   3.629 -32.429  1.00  0.00     0.028 A 
HETATM   25  C   UNL     1      -4.309   4.014 -33.128  1.00  0.00     0.011 A 
HETATM   26 BR   UNL     1      -4.480   5.047 -34.702  1.00  0.00    -0.051 Br
HETATM   27  C   UNL     1      -3.045   3.645 -32.677  1.00  0.00     0.019 A 
HETATM   28  C   UNL     1      -2.923   2.886 -31.515  1.00  0.00     0.002 A 
HETATM   29  C   UNL     1      -4.062   2.497 -30.808  1.00  0.00     0.010 A 
ENDBRANCH   2  23
BRANCH   7  30
HETATM   30  C   UNL     1      -7.378   6.789 -28.401  1.00  0.00     0.085 C 
BRANCH  30  31
HETATM   31  C   UNL     1      -5.923   7.262 -28.473  1.00  0.00     0.034 C 
BRANCH  31  32
HETATM   32  C   UNL     1      -5.161   7.195 -27.150  1.00  0.00     0.164 C 
BRANCH  32  33
HETATM   33  O   UNL     1      -5.236   5.899 -26.574  1.00  0.00    -0.401 OA
HETATM   34  H   UNL     1      -5.787   5.987 -25.768  1.00  0.00     0.209 HD
ENDBRANCH  32  33
ENDBRANCH  31  32
ENDBRANCH  30  31
ENDBRANCH   7  30
TORSDOF 7
ENDMDL
MODEL 5
REMARK VINA RESULT:      -8.7      3.441      6.342
REMARK  7 active torsions:
REMARK  status: ('A' for Active; 'I' for Inactive)
REMARK    1  A    between atoms: C_3  and  N_4 
REMARK       I    between atoms: N_4  and  C_5 
REMARK    2  A    between atoms: C_5  and  C_6 
REMARK    3  A    between atoms: C_7  and  C_8 
REMARK    4  A    between atoms: C_19  and  C_20 
REMARK    5  A    between atoms: C_20  and  C_21 
REMARK    6  A    between atoms: C_21  and  C_22 
REMARK    7  A    between atoms: C_22  and  O_23 
ROOT
HETATM    1  C   UNL     1      -8.138   1.398 -31.588  1.00  0.00     0.062 C 
HETATM    2  C   UNL     1      -7.429   2.612 -30.974  1.00  0.00     0.202 C 
HETATM    3  N   UNL     1      -8.400   3.637 -30.572  1.00  0.00    -0.083 N 
HETATM    4  C   UNL     1      -9.704   3.652 -30.986  1.00  0.00     0.726 A 
HETATM    5  N   UNL     1     -10.182   2.614 -31.694  1.00  0.00    -0.192 N 
HETATM    6  N   UNL     1      -8.098   4.738 -29.851  1.00  0.00    -0.140 NA
HETATM    7  C   UNL     1      -9.255   5.411 -29.927  1.00  0.00     0.166 A 
HETATM    8  N   UNL     1     -10.269   4.771 -30.610  1.00  0.00    -0.046 NA
HETATM    9  C   UNL     1      -9.441   1.470 -31.971  1.00  0.00     0.037 C 
HETATM   10  C   UNL     1     -10.177   0.403 -32.744  1.00  0.00     0.070 C 
HETATM   11  H   UNL     1     -11.153   2.636 -31.995  1.00  0.00     0.184 HD
ENDROOT
BRANCH   1  12
HETATM   12  C   UNL     1      -7.273   0.188 -31.740  1.00  0.00     0.256 C 
HETATM   13  N   UNL     1      -7.168  -0.270 -33.033  1.00  0.00    -0.323 N 
HETATM   14  H   UNL     1      -7.892   0.035 -33.672  1.00  0.00     0.169 HD
HETATM   15  O   UNL     1      -6.850  -0.386 -30.746  1.00  0.00    -0.267 OA
BRANCH  13  16
HETATM   16  C   UNL     1      -6.275  -1.240 -33.548  1.00  0.00     0.041 A 
HETATM   17  C   UNL     1      -4.870  -1.197 -33.482  1.00  0.00    -0.035 A 
HETATM   18  C   UNL     1      -4.064  -0.070 -32.896  1.00  0.00     0.050 C 
HETATM   19  C   UNL     1      -4.131  -2.262 -34.041  1.00  0.00     0.009 A 
HETATM   20  C   UNL     1      -4.757  -3.315 -34.703  1.00  0.00     0.001 A 
HETATM   21  C   UNL     1      -6.139  -3.325 -34.819  1.00  0.00     0.002 A 
HETATM   22  C   UNL     1      -6.889  -2.295 -34.250  1.00  0.00     0.030 A 
ENDBRANCH  13  16
ENDBRANCH   1  12
BRANCH   2  23
HETATM   23  C   UNL     1      -6.404   3.258 -31.911  1.00  0.00    -0.027 A 
HETATM   24  C   UNL     1      -5.071   3.471 -31.510  1.00  0.00     0.028 A 
HETATM   25  C   UNL     1      -4.157   4.053 -32.389  1.00  0.00     0.011 A 
HETATM   26 BR   UNL     1      -2.373   4.331 -31.831  1.00  0.00    -0.051 Br
HETATM   27  C   UNL     1      -4.547   4.429 -33.672  1.00  0.00     0.019 A 
HETATM   28  C   UNL     1      -5.862   4.220 -34.081  1.00  0.00     0.002 A 
HETATM   29  C   UNL     1      -6.784   3.638 -33.210  1.00  0.00     0.010 A 
ENDBRANCH   2  23
BRANCH   7  30
HETATM   30  C   UNL     1      -9.415   6.803 -29.441  1.00  0.00     0.085 C 
BRANCH  30  31
HETATM   31  C   UNL     1      -8.801   7.020 -28.054  1.00  0.00     0.034 C 
BRANCH  31  32
HETATM   32  C   UNL     1      -9.522   8.052 -27.189  1.00  0.00     0.164 C 
BRANCH  32  33
HETATM   33  O   UNL     1     -10.290   7.429 -26.170  1.00  0.00    -0.401 OA
HETATM   34  H   UNL     1      -9.751   6.682 -25.835  1.00  0.00     0.209 HD
ENDBRANCH  32  33
ENDBRANCH  31  32
ENDBRANCH  30  31
ENDBRANCH   7  30
TORSDOF 7
ENDMDL
MODEL 6
REMARK VINA RESULT:      -8.6      2.060      7.764
REMARK  7 active torsions:
REMARK  status: ('A' for Active; 'I' for Inactive)
REMARK    1  A    between atoms: C_3  and  N_4 
REMARK       I    between atoms: N_4  and  C_5 
REMARK    2  A    between atoms: C_5  and  C_6 
REMARK    3  A    between atoms: C_7  and  C_8 
REMARK    4  A    between atoms: C_19  and  C_20 
REMARK    5  A    between atoms: C_20  and  C_21 
REMARK    6  A    between atoms: C_21  and  C_22 
REMARK    7  A    between atoms: C_22  and  O_23 
ROOT
HETATM    1  C   UNL     1      -7.659   4.154 -33.089  1.00  0.00     0.062 C 
HETATM    2  C   UNL     1      -7.999   2.754 -33.615  1.00  0.00     0.202 C 
HETATM    3  N   UNL     1      -9.446   2.509 -33.553  1.00  0.00    -0.083 N 
HETATM    4  C   UNL     1     -10.316   3.278 -32.829  1.00  0.00     0.726 A 
HETATM    5  N   UNL     1      -9.868   4.399 -32.238  1.00  0.00    -0.192 N 
HETATM    6  N   UNL     1     -10.067   1.442 -34.100  1.00  0.00    -0.140 NA
HETATM    7  C   UNL     1     -11.304   1.594 -33.605  1.00  0.00     0.166 A 
HETATM    8  N   UNL     1     -11.497   2.716 -32.826  1.00  0.00    -0.046 NA
HETATM    9  C   UNL     1      -8.570   4.876 -32.384  1.00  0.00     0.037 C 
HETATM   10  C   UNL     1      -8.282   6.175 -31.671  1.00  0.00     0.070 C 
HETATM   11  H   UNL     1     -10.524   4.963 -31.704  1.00  0.00     0.184 HD
ENDROOT
BRANCH   1  12
HETATM   12  C   UNL     1      -6.268   4.609 -33.397  1.00  0.00     0.256 C 
HETATM   13  N   UNL     1      -5.489   4.829 -32.286  1.00  0.00    -0.323 N 
HETATM   14  H   UNL     1      -5.987   4.968 -31.415  1.00  0.00     0.169 HD
HETATM   15  O   UNL     1      -5.962   4.889 -34.548  1.00  0.00    -0.267 OA
BRANCH  13  16
HETATM   16  C   UNL     1      -4.092   5.051 -32.226  1.00  0.00     0.041 A 
HETATM   17  C   UNL     1      -3.099   4.066 -32.068  1.00  0.00    -0.035 A 
HETATM   18  C   UNL     1      -3.358   2.597 -31.877  1.00  0.00     0.050 C 
HETATM   19  C   UNL     1      -1.745   4.466 -32.041  1.00  0.00     0.009 A 
HETATM   20  C   UNL     1      -1.380   5.808 -32.106  1.00  0.00     0.001 A 
HETATM   21  C   UNL     1      -2.363   6.781 -32.202  1.00  0.00     0.002 A 
HETATM   22  C   UNL     1      -3.706   6.405 -32.256  1.00  0.00     0.030 A 
ENDBRANCH  13  16
ENDBRANCH   1  12
BRANCH   2  23
HETATM   23  C   UNL     1      -7.287   1.628 -32.861  1.00  0.00    -0.027 A 
HETATM   24  C   UNL     1      -6.520   0.659 -33.535  1.00  0.00     0.028 A 
HETATM   25  C   UNL     1      -5.873  -0.349 -32.820  1.00  0.00     0.011 A 
HETATM   26 BR   UNL     1      -4.850  -1.640 -33.746  1.00  0.00    -0.051 Br
HETATM   27  C   UNL     1      -5.974  -0.412 -31.433  1.00  0.00     0.019 A 
HETATM   28  C   UNL     1      -6.726   0.544 -30.753  1.00  0.00     0.002 A 
HETATM   29  C   UNL     1      -7.377   1.557 -31.460  1.00  0.00     0.010 A 
ENDBRANCH   2  23
BRANCH   7  30
HETATM   30  C   UNL     1     -12.367   0.570 -33.757  1.00  0.00     0.085 C 
BRANCH  30  31
HETATM   31  C   UNL     1     -13.545   1.061 -34.604  1.00  0.00     0.034 C 
BRANCH  31  32
HETATM   32  C   UNL     1     -14.922   0.825 -33.984  1.00  0.00     0.164 C 
BRANCH  32  33
HETATM   33  O   UNL     1     -15.855   0.369 -34.952  1.00  0.00    -0.401 OA
HETATM   34  H   UNL     1     -15.492   0.624 -35.826  1.00  0.00     0.209 HD
ENDBRANCH  32  33
ENDBRANCH  31  32
ENDBRANCH  30  31
ENDBRANCH   7  30
TORSDOF 7
ENDMDL
MODEL 7
REMARK VINA RESULT:      -8.6      3.335      5.773
REMARK  7 active torsions:
REMARK  status: ('A' for Active; 'I' for Inactive)
REMARK    1  A    between atoms: C_3  and  N_4 
REMARK       I    between atoms: N_4  and  C_5 
REMARK    2  A    between atoms: C_5  and  C_6 
REMARK    3  A    between atoms: C_7  and  C_8 
REMARK    4  A    between atoms: C_19  and  C_20 
REMARK    5  A    between atoms: C_20  and  C_21 
REMARK    6  A    between atoms: C_21  and  C_22 
REMARK    7  A    between atoms: C_22  and  O_23 
ROOT
HETATM    1  C   UNL     1      -4.703   1.053 -32.247  1.00  0.00     0.062 C 
HETATM    2  C   UNL     1      -5.442   2.303 -32.740  1.00  0.00     0.202 C 
HETATM    3  N   UNL     1      -4.576   3.487 -32.663  1.00  0.00    -0.083 N 
HETATM    4  C   UNL     1      -3.409   3.529 -31.950  1.00  0.00     0.726 A 
HETATM    5  N   UNL     1      -2.941   2.401 -31.387  1.00  0.00    -0.192 N 
HETATM    6  N   UNL     1      -4.881   4.695 -33.182  1.00  0.00    -0.140 NA
HETATM    7  C   UNL     1      -3.884   5.439 -32.683  1.00  0.00     0.166 A 
HETATM    8  N   UNL     1      -2.954   4.756 -31.927  1.00  0.00    -0.046 NA
HETATM    9  C   UNL     1      -3.540   1.157 -31.552  1.00  0.00     0.037 C 
HETATM   10  C   UNL     1      -2.832   0.011 -30.870  1.00  0.00     0.070 C 
HETATM   11  H   UNL     1      -2.072   2.445 -30.861  1.00  0.00     0.184 HD
ENDROOT
BRANCH   1  12
HETATM   12  C   UNL     1      -5.385  -0.237 -32.575  1.00  0.00     0.256 C 
HETATM   13  N   UNL     1      -4.839  -0.907 -33.644  1.00  0.00    -0.323 N 
HETATM   14  H   UNL     1      -4.271  -0.352 -34.272  1.00  0.00     0.169 HD
HETATM   15  O   UNL     1      -6.425  -0.537 -32.002  1.00  0.00    -0.267 OA
BRANCH  13  16
HETATM   16  C   UNL     1      -5.099  -2.231 -34.073  1.00  0.00     0.041 A 
HETATM   17  C   UNL     1      -6.263  -2.682 -34.723  1.00  0.00    -0.035 A 
HETATM   18  C   UNL     1      -7.470  -1.836 -35.026  1.00  0.00     0.050 C 
HETATM   19  C   UNL     1      -6.350  -4.042 -35.093  1.00  0.00     0.009 A 
HETATM   20  C   UNL     1      -5.342  -4.949 -34.778  1.00  0.00     0.001 A 
HETATM   21  C   UNL     1      -4.222  -4.514 -34.085  1.00  0.00     0.002 A 
HETATM   22  C   UNL     1      -4.106  -3.168 -33.733  1.00  0.00     0.030 A 
ENDBRANCH  13  16
ENDBRANCH   1  12
BRANCH   2  23
HETATM   23  C   UNL     1      -6.730   2.597 -31.966  1.00  0.00    -0.027 A 
HETATM   24  C   UNL     1      -7.984   2.622 -32.605  1.00  0.00     0.028 A 
HETATM   25  C   UNL     1      -9.142   2.882 -31.871  1.00  0.00     0.011 A 
HETATM   26 BR   UNL     1     -10.816   2.912 -32.749  1.00  0.00    -0.051 Br
HETATM   27  C   UNL     1      -9.076   3.118 -30.500  1.00  0.00     0.019 A 
HETATM   28  C   UNL     1      -7.841   3.092 -29.856  1.00  0.00     0.002 A 
HETATM   29  C   UNL     1      -6.677   2.832 -30.581  1.00  0.00     0.010 A 
ENDBRANCH   2  23
BRANCH   7  30
HETATM   30  C   UNL     1      -3.839   6.917 -32.804  1.00  0.00     0.085 C 
BRANCH  30  31
HETATM   31  C   UNL     1      -2.825   7.559 -31.852  1.00  0.00     0.034 C 
BRANCH  31  32
HETATM   32  C   UNL     1      -1.527   8.021 -32.514  1.00  0.00     0.164 C 
BRANCH  32  33
HETATM   33  O   UNL     1      -1.536   7.763 -33.910  1.00  0.00    -0.401 OA
HETATM   34  H   UNL     1      -1.035   6.931 -34.040  1.00  0.00     0.209 HD
ENDBRANCH  32  33
ENDBRANCH  31  32
ENDBRANCH  30  31
ENDBRANCH   7  30
TORSDOF 7
ENDMDL
MODEL 8
REMARK VINA RESULT:      -8.1      3.147      5.042
REMARK  7 active torsions:
REMARK  status: ('A' for Active; 'I' for Inactive)
REMARK    1  A    between atoms: C_3  and  N_4 
REMARK       I    between atoms: N_4  and  C_5 
REMARK    2  A    between atoms: C_5  and  C_6 
REMARK    3  A    between atoms: C_7  and  C_8 
REMARK    4  A    between atoms: C_19  and  C_20 
REMARK    5  A    between atoms: C_20  and  C_21 
REMARK    6  A    between atoms: C_21  and  C_22 
REMARK    7  A    between atoms: C_22  and  O_23 
ROOT
HETATM    1  C   UNL     1      -5.039   2.789 -32.532  1.00  0.00     0.062 C 
HETATM    2  C   UNL     1      -4.705   4.264 -32.785  1.00  0.00     0.202 C 
HETATM    3  N   UNL     1      -3.336   4.572 -32.351  1.00  0.00    -0.083 N 
HETATM    4  C   UNL     1      -2.594   3.755 -31.541  1.00  0.00     0.726 A 
HETATM    5  N   UNL     1      -3.071   2.540 -31.217  1.00  0.00    -0.192 N 
HETATM    6  N   UNL     1      -2.696   5.735 -32.597  1.00  0.00    -0.140 NA
HETATM    7  C   UNL     1      -1.597   5.579 -31.846  1.00  0.00     0.166 A 
HETATM    8  N   UNL     1      -1.495   4.371 -31.188  1.00  0.00    -0.046 NA
HETATM    9  C   UNL     1      -4.258   2.023 -31.725  1.00  0.00     0.037 C 
HETATM   10  C   UNL     1      -4.594   0.624 -31.268  1.00  0.00     0.070 C 
HETATM   11  H   UNL     1      -2.511   1.942 -30.616  1.00  0.00     0.184 HD
ENDROOT
BRANCH   1  12
HETATM   12  C   UNL     1      -6.281   2.311 -33.216  1.00  0.00     0.256 C 
HETATM   13  N   UNL     1      -7.361   2.156 -32.379  1.00  0.00    -0.323 N 
HETATM   14  H   UNL     1      -7.148   2.072 -31.392  1.00  0.00     0.169 HD
HETATM   15  O   UNL     1      -6.232   1.961 -34.388  1.00  0.00    -0.267 OA
BRANCH  13  16
HETATM   16  C   UNL     1      -8.714   1.933 -32.728  1.00  0.00     0.041 A 
HETATM   17  C   UNL     1      -9.690   2.923 -32.952  1.00  0.00    -0.035 A 
HETATM   18  C   UNL     1      -9.473   4.404 -32.802  1.00  0.00     0.050 C 
HETATM   19  C   UNL     1     -10.996   2.521 -33.306  1.00  0.00     0.009 A 
HETATM   20  C   UNL     1     -11.350   1.176 -33.378  1.00  0.00     0.001 A 
HETATM   21  C   UNL     1     -10.402   0.203 -33.098  1.00  0.00     0.002 A 
HETATM   22  C   UNL     1      -9.099   0.580 -32.772  1.00  0.00     0.030 A 
ENDBRANCH  13  16
ENDBRANCH   1  12
BRANCH   2  23
HETATM   23  C   UNL     1      -5.661   5.236 -32.088  1.00  0.00    -0.027 A 
HETATM   24  C   UNL     1      -6.001   5.090 -30.730  1.00  0.00     0.028 A 
HETATM   25  C   UNL     1      -6.867   5.997 -30.119  1.00  0.00     0.011 A 
HETATM   26 BR   UNL     1      -7.310   5.781 -28.294  1.00  0.00    -0.051 Br
HETATM   27  C   UNL     1      -7.406   7.059 -30.840  1.00  0.00     0.019 A 
HETATM   28  C   UNL     1      -7.074   7.218 -32.184  1.00  0.00     0.002 A 
HETATM   29  C   UNL     1      -6.208   6.315 -32.804  1.00  0.00     0.010 A 
ENDBRANCH   2  23
BRANCH   7  30
HETATM   30  C   UNL     1      -0.616   6.667 -31.612  1.00  0.00     0.085 C 
BRANCH  30  31
HETATM   31  C   UNL     1      -0.684   7.230 -30.189  1.00  0.00     0.034 C 
BRANCH  31  32
HETATM   32  C   UNL     1       0.365   6.672 -29.228  1.00  0.00     0.164 C 
BRANCH  32  33
HETATM   33  O   UNL     1      -0.070   5.458 -28.633  1.00  0.00    -0.401 OA
HETATM   34  H   UNL     1       0.026   5.576 -27.665  1.00  0.00     0.209 HD
ENDBRANCH  32  33
ENDBRANCH  31  32
ENDBRANCH  30  31
ENDBRANCH   7  30
TORSDOF 7
ENDMDL
MODEL 9
REMARK VINA RESULT:      -8.0      3.796      6.866
REMARK  7 active torsions:
REMARK  status: ('A' for Active; 'I' for Inactive)
REMARK    1  A    between atoms: C_3  and  N_4 
REMARK       I    between atoms: N_4  and  C_5 
REMARK    2  A    between atoms: C_5  and  C_6 
REMARK    3  A    between atoms: C_7  and  C_8 
REMARK    4  A    between atoms: C_19  and  C_20 
REMARK    5  A    between atoms: C_20  and  C_21 
REMARK    6  A    between atoms: C_21  and  C_22 
REMARK    7  A    between atoms: C_22  and  O_23 
ROOT
HETATM    1  C   UNL     1      -9.052   2.917 -32.597  1.00  0.00     0.062 C 
HETATM    2  C   UNL     1      -9.868   3.336 -33.826  1.00  0.00     0.202 C 
HETATM    3  N   UNL     1     -10.047   4.794 -33.862  1.00  0.00    -0.083 N 
HETATM    4  C   UNL     1      -9.813   5.615 -32.792  1.00  0.00     0.726 A 
HETATM    5  N   UNL     1      -9.265   5.102 -31.677  1.00  0.00    -0.192 N 
HETATM    6  N   UNL     1     -10.570   5.476 -34.903  1.00  0.00    -0.140 NA
HETATM    7  C   UNL     1     -10.688   6.698 -34.365  1.00  0.00     0.166 A 
HETATM    8  N   UNL     1     -10.225   6.824 -33.071  1.00  0.00    -0.046 NA
HETATM    9  C   UNL     1      -8.843   3.781 -31.568  1.00  0.00     0.037 C 
HETATM   10  C   UNL     1      -8.216   3.416 -30.244  1.00  0.00     0.070 C 
HETATM   11  H   UNL     1      -9.094   5.721 -30.889  1.00  0.00     0.184 HD
ENDROOT
BRANCH   1  12
HETATM   12  C   UNL     1      -8.557   1.506 -32.636  1.00  0.00     0.256 C 
HETATM   13  N   UNL     1      -7.564   1.284 -33.562  1.00  0.00    -0.323 N 
HETATM   14  H   UNL     1      -7.490   1.968 -34.305  1.00  0.00     0.169 HD
HETATM   15  O   UNL     1      -9.131   0.642 -31.987  1.00  0.00    -0.267 OA
BRANCH  13  16
HETATM   16  C   UNL     1      -6.742   0.141 -33.706  1.00  0.00     0.041 A 
HETATM   17  C   UNL     1      -5.423   0.001 -33.236  1.00  0.00    -0.035 A 
HETATM   18  C   UNL     1      -4.631   1.074 -32.540  1.00  0.00     0.050 C 
HETATM   19  C   UNL     1      -4.749  -1.220 -33.458  1.00  0.00     0.009 A 
HETATM   20  C   UNL     1      -5.337  -2.257 -34.179  1.00  0.00     0.001 A 
HETATM   21  C   UNL     1      -6.615  -2.093 -34.693  1.00  0.00     0.002 A 
HETATM   22  C   UNL     1      -7.307  -0.904 -34.462  1.00  0.00     0.030 A 
ENDBRANCH  13  16
ENDBRANCH   1  12
BRANCH   2  23
HETATM   23  C   UNL     1     -11.249   2.679 -33.896  1.00  0.00    -0.027 A 
HETATM   24  C   UNL     1     -12.268   3.005 -32.982  1.00  0.00     0.028 A 
HETATM   25  C   UNL     1     -13.521   2.397 -33.077  1.00  0.00     0.011 A 
HETATM   26 BR   UNL     1     -14.874   2.849 -31.838  1.00  0.00    -0.051 Br
HETATM   27  C   UNL     1     -13.782   1.463 -34.076  1.00  0.00     0.019 A 
HETATM   28  C   UNL     1     -12.782   1.135 -34.990  1.00  0.00     0.002 A 
HETATM   29  C   UNL     1     -11.526   1.738 -34.903  1.00  0.00     0.010 A 
ENDBRANCH   2  23
BRANCH   7  30
HETATM   30  C   UNL     1     -11.389   7.816 -35.042  1.00  0.00     0.085 C 
BRANCH  30  31
HETATM   31  C   UNL     1     -12.412   7.334 -36.076  1.00  0.00     0.034 C 
BRANCH  31  32
HETATM   32  C   UNL     1     -13.748   6.880 -35.491  1.00  0.00     0.164 C 
BRANCH  32  33
HETATM   33  O   UNL     1     -13.728   5.499 -35.161  1.00  0.00    -0.401 OA
HETATM   34  H   UNL     1     -12.936   5.123 -35.598  1.00  0.00     0.209 HD
ENDBRANCH  32  33
ENDBRANCH  31  32
ENDBRANCH  30  31
ENDBRANCH   7  30
TORSDOF 7
ENDMDL
MODEL 10
REMARK VINA RESULT:      -8.0      3.038      4.585
REMARK  7 active torsions:
REMARK  status: ('A' for Active; 'I' for Inactive)
REMARK    1  A    between atoms: C_3  and  N_4 
REMARK       I    between atoms: N_4  and  C_5 
REMARK    2  A    between atoms: C_5  and  C_6 
REMARK    3  A    between atoms: C_7  and  C_8 
REMARK    4  A    between atoms: C_19  and  C_20 
REMARK    5  A    between atoms: C_20  and  C_21 
REMARK    6  A    between atoms: C_21  and  C_22 
REMARK    7  A    between atoms: C_22  and  O_23 
ROOT
HETATM    1  C   UNL     1      -6.828   2.550 -31.583  1.00  0.00     0.062 C 
HETATM    2  C   UNL     1      -6.203   3.933 -31.802  1.00  0.00     0.202 C 
HETATM    3  N   UNL     1      -4.744   3.832 -31.935  1.00  0.00    -0.083 N 
HETATM    4  C   UNL     1      -4.024   2.723 -31.584  1.00  0.00     0.726 A 
HETATM    5  N   UNL     1      -4.675   1.605 -31.216  1.00  0.00    -0.192 N 
HETATM    6  N   UNL     1      -3.936   4.849 -32.303  1.00  0.00    -0.140 NA
HETATM    7  C   UNL     1      -2.732   4.302 -32.084  1.00  0.00     0.166 A 
HETATM    8  N   UNL     1      -2.746   2.993 -31.649  1.00  0.00    -0.046 NA
HETATM    9  C   UNL     1      -6.060   1.480 -31.246  1.00  0.00     0.037 C 
HETATM   10  C   UNL     1      -6.589   0.128 -30.834  1.00  0.00     0.070 C 
HETATM   11  H   UNL     1      -4.129   0.787 -30.959  1.00  0.00     0.184 HD
ENDROOT
BRANCH   1  12
HETATM   12  C   UNL     1      -8.315   2.511 -31.746  1.00  0.00     0.256 C 
HETATM   13  N   UNL     1      -8.737   2.464 -33.054  1.00  0.00    -0.323 N 
HETATM   14  H   UNL     1      -8.064   2.767 -33.748  1.00  0.00     0.169 HD
HETATM   15  O   UNL     1      -9.037   2.665 -30.771  1.00  0.00    -0.267 OA
BRANCH  13  16
HETATM   16  C   UNL     1     -10.039   2.205 -33.546  1.00  0.00     0.041 A 
HETATM   17  C   UNL     1     -10.757   1.003 -33.407  1.00  0.00    -0.035 A 
HETATM   18  C   UNL     1     -10.236  -0.248 -32.754  1.00  0.00     0.050 C 
HETATM   19  C   UNL     1     -12.057   0.922 -33.952  1.00  0.00     0.009 A 
HETATM   20  C   UNL     1     -12.613   1.978 -34.669  1.00  0.00     0.001 A 
HETATM   21  C   UNL     1     -11.880   3.140 -34.856  1.00  0.00     0.002 A 
HETATM   22  C   UNL     1     -10.603   3.249 -34.302  1.00  0.00     0.030 A 
ENDBRANCH  13  16
ENDBRANCH   1  12
BRANCH   2  23
HETATM   23  C   UNL     1      -6.518   4.929 -30.682  1.00  0.00    -0.027 A 
HETATM   24  C   UNL     1      -7.188   6.140 -30.940  1.00  0.00     0.028 A 
HETATM   25  C   UNL     1      -7.471   7.024 -29.898  1.00  0.00     0.011 A 
HETATM   26 BR   UNL     1      -8.370   8.645 -30.267  1.00  0.00    -0.051 Br
HETATM   27  C   UNL     1      -7.098   6.723 -28.591  1.00  0.00     0.019 A 
HETATM   28  C   UNL     1      -6.438   5.525 -28.322  1.00  0.00     0.002 A 
HETATM   29  C   UNL     1      -6.151   4.634 -29.358  1.00  0.00     0.010 A 
ENDBRANCH   2  23
BRANCH   7  30
HETATM   30  C   UNL     1      -1.467   5.073 -32.163  1.00  0.00     0.085 C 
BRANCH  30  31
HETATM   31  C   UNL     1      -1.379   5.939 -33.424  1.00  0.00     0.034 C 
BRANCH  31  32
HETATM   32  C   UNL     1      -1.877   5.264 -34.701  1.00  0.00     0.164 C 
BRANCH  32  33
HETATM   33  O   UNL     1      -3.094   5.839 -35.151  1.00  0.00    -0.401 OA
HETATM   34  H   UNL     1      -2.886   6.762 -35.405  1.00  0.00     0.209 HD
ENDBRANCH  32  33
ENDBRANCH  31  32
ENDBRANCH  30  31
ENDBRANCH   7  30
TORSDOF 7
ENDMDL
