MODEL 1
REMARK VINA RESULT:      -8.4      0.000      0.000
REMARK  10 active torsions:
REMARK  status: ('A' for Active; 'I' for Inactive)
REMARK    1  A    between atoms: C_2  and  O_3 
REMARK    2  A    between atoms: O_3  and  C_4 
REMARK    3  A    between atoms: C_4  and  C_5 
REMARK    4  A    between atoms: C_6  and  C_7 
REMARK    5  A    between atoms: C_14  and  C_15 
REMARK    6  A    between atoms: C_15  and  C_16 
REMARK       I    between atoms: C_16  and  N_17 
REMARK    7  A    between atoms: N_17  and  C_18 
REMARK    8  A    between atoms: C_18  and  C_19 
REMARK    9  A    between atoms: C_19  and  N_20 
REMARK   10  A    between atoms: C_31  and  C_32 
ROOT
HETATM    1  C   UNL     1      -8.261   1.047 -33.440  1.00  0.00     0.071 C 
HETATM    2  C   UNL     1      -7.385   2.036 -32.632  1.00  0.00     0.150 C 
HETATM    3  N   UNL     1      -7.214   3.358 -33.165  1.00  0.00    -0.321 N 
HETATM    4  C   UNL     1      -6.300   4.270 -33.196  1.00  0.00     0.011 C 
HETATM    5  C   UNL     1      -8.605   3.905 -33.395  1.00  0.00     0.170 C 
HETATM    6  S   UNL     1      -8.609   5.625 -33.553  1.00  0.00    -0.086 SA
HETATM    7  C   UNL     1      -6.787   5.637 -33.629  1.00  0.00     0.135 C 
HETATM    8  N   UNL     1      -9.641   3.157 -33.370  1.00  0.00    -0.223 NA
HETATM    9  C   UNL     1      -9.520   1.758 -33.492  1.00  0.00     0.084 C 
ENDROOT
BRANCH   4  10
HETATM   10  C   UNL     1      -4.921   4.017 -32.655  1.00  0.00     0.156 C 
BRANCH  10  11
HETATM   11  C   UNL     1      -4.070   5.246 -32.382  1.00  0.00     0.223 C 
HETATM   12  N   UNL     1      -3.234   5.568 -33.421  1.00  0.00    -0.359 N 
HETATM   13  H   UNL     1      -3.209   4.937 -34.220  1.00  0.00     0.162 HD
HETATM   14  O   UNL     1      -4.120   5.879 -31.334  1.00  0.00    -0.273 OA
BRANCH  12  15
HETATM   15  C   UNL     1      -2.436   6.784 -33.608  1.00  0.00     0.150 C 
BRANCH  15  16
HETATM   16  C   UNL     1      -1.086   6.956 -32.884  1.00  0.00     0.254 C 
BRANCH  16  17
HETATM   17  N   UNL     1      -1.075   6.374 -31.493  1.00  0.00    -0.070 N 
HETATM   18  H   UNL     1      -2.011   5.944 -31.376  1.00  0.00     0.279 HD
HETATM   19  C   UNL     1      -0.944   7.433 -30.405  1.00  0.00     0.235 C 
HETATM   20  C   UNL     1       0.359   7.104 -29.704  1.00  0.00     0.029 C 
HETATM   21  C   UNL     1       0.427   5.595 -29.797  1.00  0.00     0.029 C 
HETATM   22  C   UNL     1      -0.010   5.331 -31.224  1.00  0.00     0.235 C 
ENDBRANCH  16  17
ENDBRANCH  15  16
ENDBRANCH  12  15
ENDBRANCH  10  11
ENDBRANCH   4  10
BRANCH   2  23
HETATM   23  C   UNL     1      -6.503   0.994 -33.040  1.00  0.00     0.037 C 
HETATM   24  C   UNL     1      -7.168  -0.349 -31.963  1.00  0.00    -0.009 C 
HETATM   25  C   UNL     1      -6.599  -0.360 -30.293  1.00  0.00    -0.003 C 
HETATM   26  C   UNL     1      -5.388   0.832 -29.730  1.00  0.00    -0.001 C 
HETATM   27  C   UNL     1      -4.619   2.020 -30.850  1.00  0.00    -0.003 C 
HETATM   28  C   UNL     1      -5.078   2.068 -32.556  1.00  0.00    -0.009 C 
ENDBRANCH   2  23
BRANCH   1  29
HETATM   29  C   UNL     1      -7.150  -0.715 -33.935  1.00  0.00     0.293 C 
HETATM   30  O   UNL     1      -7.571  -1.910 -33.888  1.00  0.00    -0.259 OA
BRANCH  29  31
HETATM   31  O   UNL     1      -5.787  -0.771 -34.405  1.00  0.00    -0.318 OA
BRANCH  31  32
HETATM   32  C   UNL     1      -5.039  -2.006 -34.352  1.00  0.00     0.174 C 
HETATM   33  C   UNL     1      -4.106  -1.994 -33.157  1.00  0.00     0.034 C 
ENDBRANCH  31  32
ENDBRANCH  29  31
ENDBRANCH   1  29
BRANCH   9  34
HETATM   34  C   UNL     1     -10.911   1.305 -33.849  1.00  0.00    -0.006 A 
HETATM   35  C   UNL     1     -11.454   0.154 -33.258  1.00  0.00     0.014 A 
HETATM   36  C   UNL     1     -12.761  -0.239 -33.548  1.00  0.00     0.001 A 
HETATM   37  C   UNL     1     -13.548   0.526 -34.408  1.00  0.00     0.000 A 
HETATM   38  C   UNL     1     -13.035   1.693 -34.970  1.00  0.00     0.001 A 
HETATM   39  C   UNL     1     -11.727   2.090 -34.684  1.00  0.00     0.014 A 
ENDBRANCH   9  34
TORSDOF 10
ENDMDL
MODEL 2
REMARK VINA RESULT:      -8.4      1.078      1.250
REMARK  10 active torsions:
REMARK  status: ('A' for Active; 'I' for Inactive)
REMARK    1  A    between atoms: C_2  and  O_3 
REMARK    2  A    between atoms: O_3  and  C_4 
REMARK    3  A    between atoms: C_4  and  C_5 
REMARK    4  A    between atoms: C_6  and  C_7 
REMARK    5  A    between atoms: C_14  and  C_15 
REMARK    6  A    between atoms: C_15  and  C_16 
REMARK       I    between atoms: C_16  and  N_17 
REMARK    7  A    between atoms: N_17  and  C_18 
REMARK    8  A    between atoms: C_18  and  C_19 
REMARK    9  A    between atoms: C_19  and  N_20 
REMARK   10  A    between atoms: C_31  and  C_32 
ROOT
HETATM    1  C   UNL     1      -8.652   1.270 -33.671  1.00  0.00     0.071 C 
HETATM    2  C   UNL     1      -7.789   2.224 -32.808  1.00  0.00     0.150 C 
HETATM    3  N   UNL     1      -7.802   3.618 -33.148  1.00  0.00    -0.321 N 
HETATM    4  C   UNL     1      -6.985   4.620 -33.125  1.00  0.00     0.011 C 
HETATM    5  C   UNL     1      -9.254   4.039 -33.161  1.00  0.00     0.170 C 
HETATM    6  S   UNL     1      -9.436   5.753 -33.055  1.00  0.00    -0.086 SA
HETATM    7  C   UNL     1      -7.642   5.973 -33.298  1.00  0.00     0.135 C 
HETATM    8  N   UNL     1     -10.206   3.187 -33.153  1.00  0.00    -0.223 NA
HETATM    9  C   UNL     1      -9.969   1.841 -33.497  1.00  0.00     0.084 C 
ENDROOT
BRANCH   4  10
HETATM   10  C   UNL     1      -5.539   4.444 -32.759  1.00  0.00     0.156 C 
BRANCH  10  11
HETATM   11  C   UNL     1      -4.618   5.610 -33.078  1.00  0.00     0.223 C 
HETATM   12  N   UNL     1      -4.265   6.340 -31.972  1.00  0.00    -0.359 N 
HETATM   13  H   UNL     1      -4.692   6.088 -31.083  1.00  0.00     0.162 HD
HETATM   14  O   UNL     1      -4.237   5.875 -34.213  1.00  0.00    -0.273 OA
BRANCH  12  15
HETATM   15  C   UNL     1      -3.242   7.384 -31.856  1.00  0.00     0.150 C 
BRANCH  15  16
HETATM   16  C   UNL     1      -1.744   7.019 -31.861  1.00  0.00     0.254 C 
BRANCH  16  17
HETATM   17  N   UNL     1      -1.346   6.106 -30.729  1.00  0.00    -0.070 N 
HETATM   18  H   UNL     1      -2.161   5.479 -30.595  1.00  0.00     0.279 HD
HETATM   19  C   UNL     1      -1.144   6.843 -29.412  1.00  0.00     0.235 C 
HETATM   20  C   UNL     1       0.314   6.615 -29.064  1.00  0.00     0.029 C 
HETATM   21  C   UNL     1       0.584   5.231 -29.615  1.00  0.00     0.029 C 
HETATM   22  C   UNL     1      -0.105   5.271 -30.963  1.00  0.00     0.235 C 
ENDBRANCH  16  17
ENDBRANCH  15  16
ENDBRANCH  12  15
ENDBRANCH  10  11
ENDBRANCH   4  10
BRANCH   2  23
HETATM   23  C   UNL     1      -6.863   1.352 -33.448  1.00  0.00     0.037 C 
HETATM   24  C   UNL     1      -7.254  -0.185 -32.506  1.00  0.00    -0.009 C 
HETATM   25  C   UNL     1      -6.488  -0.343 -30.923  1.00  0.00    -0.003 C 
HETATM   26  C   UNL     1      -5.343   0.900 -30.332  1.00  0.00    -0.001 C 
HETATM   27  C   UNL     1      -4.840   2.302 -31.350  1.00  0.00    -0.003 C 
HETATM   28  C   UNL     1      -5.505   2.514 -32.974  1.00  0.00    -0.009 C 
ENDBRANCH   2  23
BRANCH   1  29
HETATM   29  C   UNL     1      -7.440  -0.273 -34.528  1.00  0.00     0.293 C 
HETATM   30  O   UNL     1      -6.596  -0.136 -35.464  1.00  0.00    -0.259 OA
BRANCH  29  31
HETATM   31  O   UNL     1      -7.410  -1.662 -34.140  1.00  0.00    -0.318 OA
BRANCH  31  32
HETATM   32  C   UNL     1      -6.355  -2.534 -34.602  1.00  0.00     0.174 C 
HETATM   33  C   UNL     1      -6.907  -3.923 -34.855  1.00  0.00     0.034 C 
ENDBRANCH  31  32
ENDBRANCH  29  31
ENDBRANCH   1  29
BRANCH   9  34
HETATM   34  C   UNL     1     -11.343   1.295 -33.787  1.00  0.00    -0.006 A 
HETATM   35  C   UNL     1     -11.713   0.026 -33.316  1.00  0.00     0.014 A 
HETATM   36  C   UNL     1     -13.002  -0.461 -33.540  1.00  0.00     0.001 A 
HETATM   37  C   UNL     1     -13.941   0.323 -34.209  1.00  0.00     0.000 A 
HETATM   38  C   UNL     1     -13.598   1.600 -34.647  1.00  0.00     0.001 A 
HETATM   39  C   UNL     1     -12.309   2.092 -34.426  1.00  0.00     0.014 A 
ENDBRANCH   9  34
TORSDOF 10
ENDMDL
MODEL 3
REMARK VINA RESULT:      -8.1      3.805      9.617
REMARK  10 active torsions:
REMARK  status: ('A' for Active; 'I' for Inactive)
REMARK    1  A    between atoms: C_2  and  O_3 
REMARK    2  A    between atoms: O_3  and  C_4 
REMARK    3  A    between atoms: C_4  and  C_5 
REMARK    4  A    between atoms: C_6  and  C_7 
REMARK    5  A    between atoms: C_14  and  C_15 
REMARK    6  A    between atoms: C_15  and  C_16 
REMARK       I    between atoms: C_16  and  N_17 
REMARK    7  A    between atoms: N_17  and  C_18 
REMARK    8  A    between atoms: C_18  and  C_19 
REMARK    9  A    between atoms: C_19  and  N_20 
REMARK   10  A    between atoms: C_31  and  C_32 
ROOT
HETATM    1  C   UNL     1      -2.582   6.720 -29.656  1.00  0.00     0.071 C 
HETATM    2  C   UNL     1      -3.284   5.984 -30.824  1.00  0.00     0.150 C 
HETATM    3  N   UNL     1      -4.325   5.054 -30.490  1.00  0.00    -0.321 N 
HETATM    4  C   UNL     1      -4.797   3.939 -30.941  1.00  0.00     0.011 C 
HETATM    5  C   UNL     1      -5.314   5.812 -29.634  1.00  0.00     0.170 C 
HETATM    6  S   UNL     1      -6.848   5.022 -29.558  1.00  0.00    -0.086 SA
HETATM    7  C   UNL     1      -6.148   3.551 -30.377  1.00  0.00     0.135 C 
HETATM    8  N   UNL     1      -5.037   6.951 -29.125  1.00  0.00    -0.223 NA
HETATM    9  C   UNL     1      -3.700   7.387 -29.025  1.00  0.00     0.084 C 
ENDROOT
BRANCH   4  10
HETATM   10  C   UNL     1      -4.134   3.208 -32.074  1.00  0.00     0.156 C 
BRANCH  10  11
HETATM   11  C   UNL     1      -4.794   1.912 -32.516  1.00  0.00     0.223 C 
HETATM   12  N   UNL     1      -4.309   0.807 -31.864  1.00  0.00    -0.359 N 
HETATM   13  H   UNL     1      -3.532   0.941 -31.221  1.00  0.00     0.162 HD
HETATM   14  O   UNL     1      -5.665   1.861 -33.377  1.00  0.00    -0.273 OA
BRANCH  12  15
HETATM   15  C   UNL     1      -4.838  -0.561 -31.868  1.00  0.00     0.150 C 
BRANCH  15  16
HETATM   16  C   UNL     1      -4.062  -1.700 -32.558  1.00  0.00     0.254 C 
BRANCH  16  17
HETATM   17  N   UNL     1      -4.556  -2.003 -33.950  1.00  0.00    -0.070 N 
HETATM   18  H   UNL     1      -3.952  -1.437 -34.575  1.00  0.00     0.279 HD
HETATM   19  C   UNL     1      -5.986  -1.538 -34.190  1.00  0.00     0.235 C 
HETATM   20  C   UNL     1      -6.758  -2.809 -34.489  1.00  0.00     0.029 C 
HETATM   21  C   UNL     1      -5.736  -3.670 -35.201  1.00  0.00     0.029 C 
HETATM   22  C   UNL     1      -4.487  -3.456 -34.371  1.00  0.00     0.235 C 
ENDBRANCH  16  17
ENDBRANCH  15  16
ENDBRANCH  12  15
ENDBRANCH  10  11
ENDBRANCH   4  10
BRANCH   2  23
HETATM   23  C   UNL     1      -1.931   5.543 -30.858  1.00  0.00     0.037 C 
HETATM   24  C   UNL     1      -1.156   7.115 -31.436  1.00  0.00    -0.009 C 
HETATM   25  C   UNL     1      -1.223   7.423 -33.172  1.00  0.00    -0.003 C 
HETATM   26  C   UNL     1      -1.941   6.220 -34.288  1.00  0.00    -0.001 C 
HETATM   27  C   UNL     1      -2.528   4.612 -33.717  1.00  0.00    -0.003 C 
HETATM   28  C   UNL     1      -2.446   4.187 -32.004  1.00  0.00    -0.009 C 
ENDBRANCH   2  23
BRANCH   1  29
HETATM   29  C   UNL     1      -0.472   6.360 -29.699  1.00  0.00     0.293 C 
HETATM   30  O   UNL     1       0.098   5.232 -29.801  1.00  0.00    -0.259 OA
BRANCH  29  31
HETATM   31  O   UNL     1       0.574   7.352 -29.640  1.00  0.00    -0.318 OA
BRANCH  31  32
HETATM   32  C   UNL     1       0.969   7.933 -28.377  1.00  0.00     0.174 C 
HETATM   33  C   UNL     1      -0.094   8.903 -27.900  1.00  0.00     0.034 C 
ENDBRANCH  31  32
ENDBRANCH  29  31
ENDBRANCH   1  29
BRANCH   9  34
HETATM   34  C   UNL     1      -3.760   8.507 -28.020  1.00  0.00    -0.006 A 
HETATM   35  C   UNL     1      -4.078   9.810 -28.433  1.00  0.00     0.014 A 
HETATM   36  C   UNL     1      -4.184  10.841 -27.497  1.00  0.00     0.001 A 
HETATM   37  C   UNL     1      -4.002  10.576 -26.140  1.00  0.00     0.000 A 
HETATM   38  C   UNL     1      -3.725   9.279 -25.713  1.00  0.00     0.001 A 
HETATM   39  C   UNL     1      -3.617   8.245 -26.646  1.00  0.00     0.014 A 
ENDBRANCH   9  34
TORSDOF 10
ENDMDL
MODEL 4
REMARK VINA RESULT:      -8.0      2.468      8.214
REMARK  10 active torsions:
REMARK  status: ('A' for Active; 'I' for Inactive)
REMARK    1  A    between atoms: C_2  and  O_3 
REMARK    2  A    between atoms: O_3  and  C_4 
REMARK    3  A    between atoms: C_4  and  C_5 
REMARK    4  A    between atoms: C_6  and  C_7 
REMARK    5  A    between atoms: C_14  and  C_15 
REMARK    6  A    between atoms: C_15  and  C_16 
REMARK       I    between atoms: C_16  and  N_17 
REMARK    7  A    between atoms: N_17  and  C_18 
REMARK    8  A    between atoms: C_18  and  C_19 
REMARK    9  A    between atoms: C_19  and  N_20 
REMARK   10  A    between atoms: C_31  and  C_32 
ROOT
HETATM    1  C   UNL     1      -5.186   2.880 -32.365  1.00  0.00     0.071 C 
HETATM    2  C   UNL     1      -6.715   3.099 -32.488  1.00  0.00     0.150 C 
HETATM    3  N   UNL     1      -7.301   4.144 -31.699  1.00  0.00    -0.321 N 
HETATM    4  C   UNL     1      -8.416   4.377 -31.088  1.00  0.00     0.011 C 
HETATM    5  C   UNL     1      -6.530   5.404 -32.024  1.00  0.00     0.170 C 
HETATM    6  S   UNL     1      -7.391   6.829 -31.566  1.00  0.00    -0.086 SA
HETATM    7  C   UNL     1      -8.620   5.820 -30.675  1.00  0.00     0.135 C 
HETATM    8  N   UNL     1      -5.419   5.375 -32.654  1.00  0.00    -0.223 NA
HETATM    9  C   UNL     1      -4.681   4.178 -32.755  1.00  0.00     0.084 C 
ENDROOT
BRANCH   4  10
HETATM   10  C   UNL     1      -9.487   3.329 -30.985  1.00  0.00     0.156 C 
BRANCH  10  11
HETATM   11  C   UNL     1     -10.921   3.830 -30.981  1.00  0.00     0.223 C 
HETATM   12  N   UNL     1     -11.310   4.368 -32.181  1.00  0.00    -0.359 N 
HETATM   13  H   UNL     1     -10.608   4.446 -32.914  1.00  0.00     0.162 HD
HETATM   14  O   UNL     1     -11.653   3.768 -30.000  1.00  0.00    -0.273 OA
BRANCH  12  15
HETATM   15  C   UNL     1     -12.657   4.751 -32.617  1.00  0.00     0.150 C 
BRANCH  15  16
HETATM   16  C   UNL     1     -13.023   4.763 -34.114  1.00  0.00     0.254 C 
BRANCH  16  17
HETATM   17  N   UNL     1     -13.436   3.411 -34.641  1.00  0.00    -0.070 N 
HETATM   18  H   UNL     1     -14.263   3.600 -35.237  1.00  0.00     0.279 HD
HETATM   19  C   UNL     1     -13.898   2.461 -33.544  1.00  0.00     0.235 C 
HETATM   20  C   UNL     1     -12.915   1.307 -33.598  1.00  0.00     0.029 C 
HETATM   21  C   UNL     1     -12.569   1.221 -35.069  1.00  0.00     0.029 C 
HETATM   22  C   UNL     1     -12.392   2.676 -35.453  1.00  0.00     0.235 C 
ENDBRANCH  16  17
ENDBRANCH  15  16
ENDBRANCH  12  15
ENDBRANCH  10  11
ENDBRANCH   4  10
BRANCH   2  23
HETATM   23  C   UNL     1      -6.562   1.798 -31.930  1.00  0.00     0.037 C 
HETATM   24  C   UNL     1      -5.807   0.970 -33.395  1.00  0.00    -0.009 C 
HETATM   25  C   UNL     1      -6.928   0.429 -34.647  1.00  0.00    -0.003 C 
HETATM   26  C   UNL     1      -8.696   0.621 -34.438  1.00  0.00    -0.001 C 
HETATM   27  C   UNL     1      -9.416   1.270 -32.916  1.00  0.00    -0.003 C 
HETATM   28  C   UNL     1      -8.378   1.780 -31.580  1.00  0.00    -0.009 C 
ENDBRANCH   2  23
BRANCH   1  29
HETATM   29  C   UNL     1      -4.759   0.872 -31.761  1.00  0.00     0.293 C 
HETATM   30  O   UNL     1      -5.193   0.288 -30.722  1.00  0.00    -0.259 OA
BRANCH  29  31
HETATM   31  O   UNL     1      -3.941  -0.085 -32.465  1.00  0.00    -0.318 OA
BRANCH  31  32
HETATM   32  C   UNL     1      -2.988  -0.906 -31.754  1.00  0.00     0.174 C 
HETATM   33  C   UNL     1      -3.246  -2.370 -32.048  1.00  0.00     0.034 C 
ENDBRANCH  31  32
ENDBRANCH  29  31
ENDBRANCH   1  29
BRANCH   9  34
HETATM   34  C   UNL     1      -3.303   4.636 -33.156  1.00  0.00    -0.006 A 
HETATM   35  C   UNL     1      -3.052   5.049 -34.473  1.00  0.00     0.014 A 
HETATM   36  C   UNL     1      -1.789   5.522 -34.836  1.00  0.00     0.001 A 
HETATM   37  C   UNL     1      -0.776   5.615 -33.883  1.00  0.00     0.000 A 
HETATM   38  C   UNL     1      -1.024   5.246 -32.562  1.00  0.00     0.001 A 
HETATM   39  C   UNL     1      -2.285   4.771 -32.195  1.00  0.00     0.014 A 
ENDBRANCH   9  34
TORSDOF 10
ENDMDL
MODEL 5
REMARK VINA RESULT:      -7.9      3.322      9.684
REMARK  10 active torsions:
REMARK  status: ('A' for Active; 'I' for Inactive)
REMARK    1  A    between atoms: C_2  and  O_3 
REMARK    2  A    between atoms: O_3  and  C_4 
REMARK    3  A    between atoms: C_4  and  C_5 
REMARK    4  A    between atoms: C_6  and  C_7 
REMARK    5  A    between atoms: C_14  and  C_15 
REMARK    6  A    between atoms: C_15  and  C_16 
REMARK       I    between atoms: C_16  and  N_17 
REMARK    7  A    between atoms: N_17  and  C_18 
REMARK    8  A    between atoms: C_18  and  C_19 
REMARK    9  A    between atoms: C_19  and  N_20 
REMARK   10  A    between atoms: C_31  and  C_32 
ROOT
HETATM    1  C   UNL     1      -2.202   6.728 -30.033  1.00  0.00     0.071 C 
HETATM    2  C   UNL     1      -3.007   6.239 -31.263  1.00  0.00     0.150 C 
HETATM    3  N   UNL     1      -4.339   5.756 -31.033  1.00  0.00    -0.321 N 
HETATM    4  C   UNL     1      -5.135   4.863 -31.523  1.00  0.00     0.011 C 
HETATM    5  C   UNL     1      -5.068   6.854 -30.291  1.00  0.00     0.170 C 
HETATM    6  S   UNL     1      -6.782   6.666 -30.370  1.00  0.00    -0.086 SA
HETATM    7  C   UNL     1      -6.582   5.007 -31.101  1.00  0.00     0.135 C 
HETATM    8  N   UNL     1      -4.450   7.841 -29.764  1.00  0.00    -0.223 NA
HETATM    9  C   UNL     1      -3.061   7.776 -29.528  1.00  0.00     0.084 C 
ENDROOT
BRANCH   4  10
HETATM   10  C   UNL     1      -4.674   3.895 -32.575  1.00  0.00     0.156 C 
BRANCH  10  11
HETATM   11  C   UNL     1      -5.625   2.757 -32.904  1.00  0.00     0.223 C 
HETATM   12  N   UNL     1      -5.541   1.708 -32.024  1.00  0.00    -0.359 N 
HETATM   13  H   UNL     1      -4.827   1.755 -31.300  1.00  0.00     0.162 HD
HETATM   14  O   UNL     1      -6.383   2.771 -33.867  1.00  0.00    -0.273 OA
BRANCH  12  15
HETATM   15  C   UNL     1      -6.433   0.551 -31.895  1.00  0.00     0.150 C 
BRANCH  15  16
HETATM   16  C   UNL     1      -5.909  -0.876 -32.151  1.00  0.00     0.254 C 
BRANCH  16  17
HETATM   17  N   UNL     1      -5.761  -1.206 -33.615  1.00  0.00    -0.070 N 
HETATM   18  H   UNL     1      -5.544  -0.300 -34.071  1.00  0.00     0.279 HD
HETATM   19  C   UNL     1      -7.053  -1.711 -34.245  1.00  0.00     0.235 C 
HETATM   20  C   UNL     1      -6.730  -3.120 -34.703  1.00  0.00     0.029 C 
HETATM   21  C   UNL     1      -5.269  -3.029 -35.087  1.00  0.00     0.029 C 
HETATM   22  C   UNL     1      -4.680  -2.209 -33.958  1.00  0.00     0.235 C 
ENDBRANCH  16  17
ENDBRANCH  15  16
ENDBRANCH  12  15
ENDBRANCH  10  11
ENDBRANCH   4  10
BRANCH   2  23
HETATM   23  C   UNL     1      -1.906   5.344 -31.152  1.00  0.00     0.037 C 
HETATM   24  C   UNL     1      -0.561   6.526 -31.597  1.00  0.00    -0.009 C 
HETATM   25  C   UNL     1      -0.311   6.806 -33.322  1.00  0.00    -0.003 C 
HETATM   26  C   UNL     1      -1.275   5.919 -34.542  1.00  0.00    -0.001 C 
HETATM   27  C   UNL     1      -2.458   4.636 -34.083  1.00  0.00    -0.003 C 
HETATM   28  C   UNL     1      -2.733   4.240 -32.383  1.00  0.00    -0.009 C 
ENDBRANCH   2  23
BRANCH   1  29
HETATM   29  C   UNL     1      -0.368   5.639 -29.852  1.00  0.00     0.293 C 
HETATM   30  O   UNL     1      -0.131   4.481 -30.312  1.00  0.00    -0.259 OA
BRANCH  29  31
HETATM   31  O   UNL     1       0.841   6.087 -29.205  1.00  0.00    -0.318 OA
BRANCH  31  32
HETATM   32  C   UNL     1       0.785   6.787 -27.943  1.00  0.00     0.174 C 
HETATM   33  C   UNL     1       1.039   8.266 -28.160  1.00  0.00     0.034 C 
ENDBRANCH  31  32
ENDBRANCH  29  31
ENDBRANCH   1  29
BRANCH   9  34
HETATM   34  C   UNL     1      -2.810   8.888 -28.543  1.00  0.00    -0.006 A 
HETATM   35  C   UNL     1      -2.282  10.113 -28.979  1.00  0.00     0.014 A 
HETATM   36  C   UNL     1      -2.096  11.162 -28.077  1.00  0.00     0.001 A 
HETATM   37  C   UNL     1      -2.462  11.010 -26.741  1.00  0.00     0.000 A 
HETATM   38  C   UNL     1      -3.025   9.813 -26.303  1.00  0.00     0.001 A 
HETATM   39  C   UNL     1      -3.211   8.760 -27.201  1.00  0.00     0.014 A 
ENDBRANCH   9  34
TORSDOF 10
ENDMDL
MODEL 6
REMARK VINA RESULT:      -7.9      3.965      7.579
REMARK  10 active torsions:
REMARK  status: ('A' for Active; 'I' for Inactive)
REMARK    1  A    between atoms: C_2  and  O_3 
REMARK    2  A    between atoms: O_3  and  C_4 
REMARK    3  A    between atoms: C_4  and  C_5 
REMARK    4  A    between atoms: C_6  and  C_7 
REMARK    5  A    between atoms: C_14  and  C_15 
REMARK    6  A    between atoms: C_15  and  C_16 
REMARK       I    between atoms: C_16  and  N_17 
REMARK    7  A    between atoms: N_17  and  C_18 
REMARK    8  A    between atoms: C_18  and  C_19 
REMARK    9  A    between atoms: C_19  and  N_20 
REMARK   10  A    between atoms: C_31  and  C_32 
ROOT
HETATM    1  C   UNL     1      -6.123   2.098 -33.139  1.00  0.00     0.071 C 
HETATM    2  C   UNL     1      -7.332   2.917 -32.623  1.00  0.00     0.150 C 
HETATM    3  N   UNL     1      -8.456   3.064 -33.503  1.00  0.00    -0.321 N 
HETATM    4  C   UNL     1      -9.358   3.951 -33.769  1.00  0.00     0.011 C 
HETATM    5  C   UNL     1      -8.864   1.665 -33.909  1.00  0.00     0.170 C 
HETATM    6  S   UNL     1     -10.468   1.614 -34.545  1.00  0.00    -0.086 SA
HETATM    7  C   UNL     1     -10.529   3.436 -34.581  1.00  0.00     0.135 C 
HETATM    8  N   UNL     1      -8.114   0.653 -33.696  1.00  0.00    -0.223 NA
HETATM    9  C   UNL     1      -6.742   0.820 -33.417  1.00  0.00     0.084 C 
ENDROOT
BRANCH   4  10
HETATM   10  C   UNL     1      -9.321   5.318 -33.149  1.00  0.00     0.156 C 
BRANCH  10  11
HETATM   11  C   UNL     1     -10.330   6.324 -33.676  1.00  0.00     0.223 C 
HETATM   12  N   UNL     1      -9.937   6.925 -34.845  1.00  0.00    -0.359 N 
HETATM   13  H   UNL     1      -9.009   6.704 -35.200  1.00  0.00     0.162 HD
HETATM   14  O   UNL     1     -11.386   6.579 -33.107  1.00  0.00    -0.273 OA
BRANCH  12  15
HETATM   15  C   UNL     1     -10.726   7.772 -35.746  1.00  0.00     0.150 C 
BRANCH  15  16
HETATM   16  C   UNL     1     -10.142   8.237 -37.095  1.00  0.00     0.254 C 
BRANCH  16  17
HETATM   17  N   UNL     1     -10.869   9.419 -37.685  1.00  0.00    -0.070 N 
HETATM   18  H   UNL     1     -10.913  10.115 -36.918  1.00  0.00     0.279 HD
HETATM   19  C   UNL     1     -12.309   9.102 -38.068  1.00  0.00     0.235 C 
HETATM   20  C   UNL     1     -12.364   9.319 -39.568  1.00  0.00     0.029 C 
HETATM   21  C   UNL     1     -11.380  10.448 -39.787  1.00  0.00     0.029 C 
HETATM   22  C   UNL     1     -10.219  10.053 -38.897  1.00  0.00     0.235 C 
ENDBRANCH  16  17
ENDBRANCH  15  16
ENDBRANCH  12  15
ENDBRANCH  10  11
ENDBRANCH   4  10
BRANCH   2  23
HETATM   23  C   UNL     1      -6.253   3.843 -32.701  1.00  0.00     0.037 C 
HETATM   24  C   UNL     1      -5.228   3.168 -31.323  1.00  0.00    -0.009 C 
HETATM   25  C   UNL     1      -5.691   3.664 -29.694  1.00  0.00    -0.003 C 
HETATM   26  C   UNL     1      -7.036   4.818 -29.435  1.00  0.00    -0.001 C 
HETATM   27  C   UNL     1      -7.904   5.602 -30.809  1.00  0.00    -0.003 C 
HETATM   28  C   UNL     1      -7.470   5.217 -32.479  1.00  0.00    -0.009 C 
ENDBRANCH   2  23
BRANCH   1  29
HETATM   29  C   UNL     1      -4.338   3.278 -33.092  1.00  0.00     0.293 C 
HETATM   30  O   UNL     1      -3.266   3.000 -32.475  1.00  0.00    -0.259 OA
BRANCH  29  31
HETATM   31  O   UNL     1      -4.114   4.531 -33.772  1.00  0.00    -0.318 OA
BRANCH  31  32
HETATM   32  C   UNL     1      -2.863   5.238 -33.622  1.00  0.00     0.174 C 
HETATM   33  C   UNL     1      -2.043   5.111 -34.891  1.00  0.00     0.034 C 
ENDBRANCH  31  32
ENDBRANCH  29  31
ENDBRANCH   1  29
BRANCH   9  34
HETATM   34  C   UNL     1      -6.154  -0.545 -33.663  1.00  0.00    -0.006 A 
HETATM   35  C   UNL     1      -6.858  -1.491 -34.424  1.00  0.00     0.014 A 
HETATM   36  C   UNL     1      -6.293  -2.738 -34.696  1.00  0.00     0.001 A 
HETATM   37  C   UNL     1      -5.012  -3.042 -34.237  1.00  0.00     0.000 A 
HETATM   38  C   UNL     1      -4.287  -2.097 -33.515  1.00  0.00     0.001 A 
HETATM   39  C   UNL     1      -4.848  -0.848 -33.239  1.00  0.00     0.014 A 
ENDBRANCH   9  34
TORSDOF 10
ENDMDL
MODEL 7
REMARK VINA RESULT:      -7.9      3.208      8.414
REMARK  10 active torsions:
REMARK  status: ('A' for Active; 'I' for Inactive)
REMARK    1  A    between atoms: C_2  and  O_3 
REMARK    2  A    between atoms: O_3  and  C_4 
REMARK    3  A    between atoms: C_4  and  C_5 
REMARK    4  A    between atoms: C_6  and  C_7 
REMARK    5  A    between atoms: C_14  and  C_15 
REMARK    6  A    between atoms: C_15  and  C_16 
REMARK       I    between atoms: C_16  and  N_17 
REMARK    7  A    between atoms: N_17  and  C_18 
REMARK    8  A    between atoms: C_18  and  C_19 
REMARK    9  A    between atoms: C_19  and  N_20 
REMARK   10  A    between atoms: C_31  and  C_32 
ROOT
HETATM    1  C   UNL     1      -6.531   1.942 -33.011  1.00  0.00     0.071 C 
HETATM    2  C   UNL     1      -7.727   2.545 -32.233  1.00  0.00     0.150 C 
HETATM    3  N   UNL     1      -9.024   2.458 -32.842  1.00  0.00    -0.321 N 
HETATM    4  C   UNL     1     -10.109   3.158 -32.895  1.00  0.00     0.011 C 
HETATM    5  C   UNL     1      -9.247   0.997 -33.160  1.00  0.00     0.170 C 
HETATM    6  S   UNL     1     -10.913   0.635 -33.427  1.00  0.00    -0.086 SA
HETATM    7  C   UNL     1     -11.314   2.414 -33.432  1.00  0.00     0.135 C 
HETATM    8  N   UNL     1      -8.295   0.144 -33.129  1.00  0.00    -0.223 NA
HETATM    9  C   UNL     1      -6.950   0.566 -33.157  1.00  0.00     0.084 C 
ENDROOT
BRANCH   4  10
HETATM   10  C   UNL     1     -10.189   4.528 -32.285  1.00  0.00     0.156 C 
BRANCH  10  11
HETATM   11  C   UNL     1     -11.484   4.872 -31.568  1.00  0.00     0.223 C 
HETATM   12  N   UNL     1     -12.244   5.797 -32.236  1.00  0.00    -0.359 N 
HETATM   13  H   UNL     1     -11.854   6.208 -33.082  1.00  0.00     0.162 HD
HETATM   14  O   UNL     1     -11.810   4.377 -30.495  1.00  0.00    -0.273 OA
BRANCH  12  15
HETATM   15  C   UNL     1     -13.627   6.208 -31.969  1.00  0.00     0.150 C 
BRANCH  15  16
HETATM   16  C   UNL     1     -14.805   5.485 -32.651  1.00  0.00     0.254 C 
BRANCH  16  17
HETATM   17  N   UNL     1     -15.408   4.392 -31.805  1.00  0.00    -0.070 N 
HETATM   18  H   UNL     1     -15.242   4.692 -30.826  1.00  0.00     0.279 HD
HETATM   19  C   UNL     1     -14.705   3.051 -31.974  1.00  0.00     0.235 C 
HETATM   20  C   UNL     1     -15.771   2.127 -32.530  1.00  0.00     0.029 C 
HETATM   21  C   UNL     1     -17.040   2.641 -31.886  1.00  0.00     0.029 C 
HETATM   22  C   UNL     1     -16.888   4.144 -32.008  1.00  0.00     0.235 C 
ENDBRANCH  16  17
ENDBRANCH  15  16
ENDBRANCH  12  15
ENDBRANCH  10  11
ENDBRANCH   4  10
BRANCH   2  23
HETATM   23  C   UNL     1      -6.880   3.648 -32.539  1.00  0.00     0.037 C 
HETATM   24  C   UNL     1      -5.458   3.195 -31.453  1.00  0.00    -0.009 C 
HETATM   25  C   UNL     1      -5.610   3.632 -29.750  1.00  0.00    -0.003 C 
HETATM   26  C   UNL     1      -7.042   4.531 -29.159  1.00  0.00    -0.001 C 
HETATM   27  C   UNL     1      -8.332   5.119 -30.275  1.00  0.00    -0.003 C 
HETATM   28  C   UNL     1      -8.238   4.785 -32.008  1.00  0.00    -0.009 C 
ENDBRANCH   2  23
BRANCH   1  29
HETATM   29  C   UNL     1      -5.026   3.428 -33.348  1.00  0.00     0.293 C 
HETATM   30  O   UNL     1      -5.196   4.564 -33.885  1.00  0.00    -0.259 OA
BRANCH  29  31
HETATM   31  O   UNL     1      -3.631   3.339 -32.991  1.00  0.00    -0.318 OA
BRANCH  31  32
HETATM   32  C   UNL     1      -2.698   4.360 -33.408  1.00  0.00     0.174 C 
HETATM   33  C   UNL     1      -1.867   4.815 -32.224  1.00  0.00     0.034 C 
ENDBRANCH  31  32
ENDBRANCH  29  31
ENDBRANCH   1  29
BRANCH   9  34
HETATM   34  C   UNL     1      -6.190  -0.677 -33.539  1.00  0.00    -0.006 A 
HETATM   35  C   UNL     1      -6.733  -1.581 -34.465  1.00  0.00     0.014 A 
HETATM   36  C   UNL     1      -6.009  -2.707 -34.860  1.00  0.00     0.001 A 
HETATM   37  C   UNL     1      -4.727  -2.927 -34.357  1.00  0.00     0.000 A 
HETATM   38  C   UNL     1      -4.160  -2.016 -33.468  1.00  0.00     0.001 A 
HETATM   39  C   UNL     1      -4.882  -0.889 -33.069  1.00  0.00     0.014 A 
ENDBRANCH   9  34
TORSDOF 10
ENDMDL
MODEL 8
REMARK VINA RESULT:      -7.7      4.360      7.957
REMARK  10 active torsions:
REMARK  status: ('A' for Active; 'I' for Inactive)
REMARK    1  A    between atoms: C_2  and  O_3 
REMARK    2  A    between atoms: O_3  and  C_4 
REMARK    3  A    between atoms: C_4  and  C_5 
REMARK    4  A    between atoms: C_6  and  C_7 
REMARK    5  A    between atoms: C_14  and  C_15 
REMARK    6  A    between atoms: C_15  and  C_16 
REMARK       I    between atoms: C_16  and  N_17 
REMARK    7  A    between atoms: N_17  and  C_18 
REMARK    8  A    between atoms: C_18  and  C_19 
REMARK    9  A    between atoms: C_19  and  N_20 
REMARK   10  A    between atoms: C_31  and  C_32 
ROOT
HETATM    1  C   UNL     1      -3.111   6.012 -31.478  1.00  0.00     0.071 C 
HETATM    2  C   UNL     1      -2.952   6.746 -30.123  1.00  0.00     0.150 C 
HETATM    3  N   UNL     1      -4.146   7.217 -29.481  1.00  0.00    -0.321 N 
HETATM    4  C   UNL     1      -4.508   8.209 -28.736  1.00  0.00     0.011 C 
HETATM    5  C   UNL     1      -5.065   6.022 -29.363  1.00  0.00     0.170 C 
HETATM    6  S   UNL     1      -6.311   6.273 -28.194  1.00  0.00    -0.086 SA
HETATM    7  C   UNL     1      -5.851   8.032 -28.058  1.00  0.00     0.135 C 
HETATM    8  N   UNL     1      -4.850   4.936 -30.001  1.00  0.00    -0.223 NA
HETATM    9  C   UNL     1      -3.977   4.914 -31.108  1.00  0.00     0.084 C 
ENDROOT
BRANCH   4  10
HETATM   10  C   UNL     1      -3.571   9.342 -28.429  1.00  0.00     0.156 C 
BRANCH  10  11
HETATM   11  C   UNL     1      -3.817  10.085 -27.126  1.00  0.00     0.223 C 
HETATM   12  N   UNL     1      -3.209   9.498 -26.045  1.00  0.00    -0.359 N 
HETATM   13  H   UNL     1      -2.728   8.614 -26.197  1.00  0.00     0.162 HD
HETATM   14  O   UNL     1      -4.498  11.101 -27.049  1.00  0.00    -0.273 OA
BRANCH  12  15
HETATM   15  C   UNL     1      -3.044  10.032 -24.689  1.00  0.00     0.150 C 
BRANCH  15  16
HETATM   16  C   UNL     1      -1.962   9.465 -23.749  1.00  0.00     0.254 C 
BRANCH  16  17
HETATM   17  N   UNL     1      -0.704  10.295 -23.714  1.00  0.00    -0.070 N 
HETATM   18  H   UNL     1      -1.027  11.272 -23.845  1.00  0.00     0.279 HD
HETATM   19  C   UNL     1       0.243   9.992 -24.868  1.00  0.00     0.235 C 
HETATM   20  C   UNL     1       1.504   9.476 -24.204  1.00  0.00     0.029 C 
HETATM   21  C   UNL     1       1.550  10.253 -22.906  1.00  0.00     0.029 C 
HETATM   22  C   UNL     1       0.109  10.204 -22.440  1.00  0.00     0.235 C 
ENDBRANCH  16  17
ENDBRANCH  15  16
ENDBRANCH  12  15
ENDBRANCH  10  11
ENDBRANCH   4  10
BRANCH   2  23
HETATM   23  C   UNL     1      -2.295   7.571 -31.079  1.00  0.00     0.037 C 
HETATM   24  C   UNL     1      -0.893   6.441 -31.482  1.00  0.00    -0.009 C 
HETATM   25  C   UNL     1       0.467   6.458 -30.358  1.00  0.00    -0.003 C 
HETATM   26  C   UNL     1       0.486   7.576 -28.959  1.00  0.00    -0.001 C 
HETATM   27  C   UNL     1      -0.815   8.797 -28.690  1.00  0.00    -0.003 C 
HETATM   28  C   UNL     1      -2.189   8.900 -29.797  1.00  0.00    -0.009 C 
ENDBRANCH   2  23
BRANCH   1  29
HETATM   29  C   UNL     1      -1.973   6.993 -33.003  1.00  0.00     0.293 C 
HETATM   30  O   UNL     1      -1.802   8.243 -33.129  1.00  0.00    -0.259 OA
BRANCH  29  31
HETATM   31  O   UNL     1      -1.238   6.361 -34.071  1.00  0.00    -0.318 OA
BRANCH  31  32
HETATM   32  C   UNL     1      -1.755   5.182 -34.725  1.00  0.00     0.174 C 
HETATM   33  C   UNL     1      -3.233   5.358 -35.015  1.00  0.00     0.034 C 
ENDBRANCH  31  32
ENDBRANCH  29  31
ENDBRANCH   1  29
BRANCH   9  34
HETATM   34  C   UNL     1      -4.324   3.631 -31.816  1.00  0.00    -0.006 A 
HETATM   35  C   UNL     1      -3.468   2.522 -31.731  1.00  0.00     0.014 A 
HETATM   36  C   UNL     1      -3.812   1.316 -32.344  1.00  0.00     0.001 A 
HETATM   37  C   UNL     1      -5.024   1.197 -33.023  1.00  0.00     0.000 A 
HETATM   38  C   UNL     1      -5.901   2.278 -33.081  1.00  0.00     0.001 A 
HETATM   39  C   UNL     1      -5.561   3.487 -32.470  1.00  0.00     0.014 A 
ENDBRANCH   9  34
TORSDOF 10
ENDMDL
