MODEL 1
REMARK VINA RESULT:      -8.3      0.000      0.000
REMARK  7 active torsions:
REMARK  status: ('A' for Active; 'I' for Inactive)
REMARK       I    between atoms: C_2  and  N_3 
REMARK    1  A    between atoms: N_3  and  C_4 
REMARK    2  A    between atoms: N_9  and  C_10 
REMARK    3  A    between atoms: C_10  and  C_11 
REMARK    4  A    between atoms: C_11  and  C_12 
REMARK    5  A    between atoms: C_12  and  O_13 
REMARK    6  A    between atoms: O_13  and  C_14 
REMARK    7  A    between atoms: C_17  and  C_18 
REMARK       I    between atoms: N_30  and  C_31 
ROOT
HETATM    1  C   UNL     1      -7.509   1.322 -31.486  1.00  0.00     0.191 C 
HETATM    2  S   UNL     1      -7.700   3.041 -31.592  1.00  0.00    -0.042 SA
HETATM    3  C   UNL     1      -5.870   3.175 -31.711  1.00  0.00     0.224 A 
HETATM    4  C   UNL     1      -5.518   3.495 -33.191  1.00  0.00     0.271 A 
HETATM    5  O   UNL     1      -5.702   2.747 -34.142  1.00  0.00    -0.269 OA
HETATM    6  N   UNL     1      -4.986   4.799 -33.213  1.00  0.00    -0.314 N 
HETATM    7  C   UNL     1      -4.851   5.294 -31.899  1.00  0.00     0.047 A 
HETATM    8  C   UNL     1      -5.349   4.369 -30.972  1.00  0.00     0.019 A 
HETATM    9  C   UNL     1      -4.304   6.497 -31.489  1.00  0.00     0.030 A 
HETATM   10  C   UNL     1      -4.262   6.766 -30.118  1.00  0.00     0.002 A 
HETATM   11  C   UNL     1      -4.758   5.840 -29.186  1.00  0.00     0.001 A 
HETATM   12  C   UNL     1      -5.309   4.629 -29.609  1.00  0.00     0.013 A 
HETATM   13  N   UNL     1      -5.384   1.852 -31.333  1.00  0.00    -0.201 N 
HETATM   14  C   UNL     1      -4.032   1.560 -31.269  1.00  0.00     0.238 C 
HETATM   15  C   UNL     1      -3.690   0.122 -30.969  1.00  0.00     0.119 C 
HETATM   16  O   UNL     1      -3.148   2.397 -31.453  1.00  0.00    -0.272 OA
HETATM   17  N   UNL     1      -6.327   0.837 -31.313  1.00  0.00    -0.141 NA
ENDROOT
BRANCH   6  18
HETATM   18  C   UNL     1      -4.460   5.508 -34.372  1.00  0.00     0.134 C 
BRANCH  18  19
HETATM   19  C   UNL     1      -3.076   5.071 -34.844  1.00  0.00     0.047 C 
BRANCH  19  20
HETATM   20  C   UNL     1      -1.983   6.039 -34.405  1.00  0.00     0.177 C 
BRANCH  20  21
HETATM   21  O   UNL     1      -1.084   5.301 -33.579  1.00  0.00    -0.351 OA
BRANCH  21  22
HETATM   22  C   UNL     1      -0.878   5.746 -32.306  1.00  0.00     0.068 A 
HETATM   23  C   UNL     1      -0.698   4.955 -31.177  1.00  0.00     0.037 A 
HETATM   24  C   UNL     1      -0.511   5.551 -29.919  1.00  0.00     0.011 A 
HETATM   25  C   UNL     1      -0.497   6.947 -29.760  1.00  0.00    -0.050 A 
HETATM   26  C   UNL     1      -0.672   7.724 -30.920  1.00  0.00     0.011 A 
HETATM   27  C   UNL     1      -0.861   7.131 -32.170  1.00  0.00     0.037 A 
BRANCH  25  28
HETATM   28  C   UNL     1      -0.303   7.630 -28.396  1.00  0.00    -0.024 C 
HETATM   29  C   UNL     1      -1.257   8.820 -28.153  1.00  0.00     0.019 C 
HETATM   30  C   UNL     1      -0.546   6.606 -27.267  1.00  0.00     0.019 C 
HETATM   31  C   UNL     1       1.139   8.174 -28.286  1.00  0.00     0.019 C 
ENDBRANCH  25  28
ENDBRANCH  21  22
ENDBRANCH  20  21
ENDBRANCH  19  20
ENDBRANCH  18  19
ENDBRANCH   6  18
BRANCH   1  32
HETATM   32  N   UNL     1      -8.679   0.628 -31.587  1.00  0.00    -0.305 N 
HETATM   33  C   UNL     1      -9.330   0.129 -32.691  1.00  0.00     0.219 C 
HETATM   34  C   UNL     1      -8.768   0.413 -34.056  1.00  0.00     0.117 C 
HETATM   35  O   UNL     1     -10.357  -0.534 -32.537  1.00  0.00    -0.274 OA
HETATM   36  H   UNL     1      -9.166   0.450 -30.721  1.00  0.00     0.171 HD
ENDBRANCH   1  32
TORSDOF 7
ENDMDL
MODEL 2
REMARK VINA RESULT:      -8.1      2.671      7.801
REMARK  7 active torsions:
REMARK  status: ('A' for Active; 'I' for Inactive)
REMARK       I    between atoms: C_2  and  N_3 
REMARK    1  A    between atoms: N_3  and  C_4 
REMARK    2  A    between atoms: N_9  and  C_10 
REMARK    3  A    between atoms: C_10  and  C_11 
REMARK    4  A    between atoms: C_11  and  C_12 
REMARK    5  A    between atoms: C_12  and  O_13 
REMARK    6  A    between atoms: O_13  and  C_14 
REMARK    7  A    between atoms: C_17  and  C_18 
REMARK       I    between atoms: N_30  and  C_31 
ROOT
HETATM    1  C   UNL     1      -4.127   5.953 -32.253  1.00  0.00     0.191 C 
HETATM    2  S   UNL     1      -4.778   4.491 -32.919  1.00  0.00    -0.042 SA
HETATM    3  C   UNL     1      -5.758   4.296 -31.376  1.00  0.00     0.224 A 
HETATM    4  C   UNL     1      -7.232   4.665 -31.707  1.00  0.00     0.271 A 
HETATM    5  O   UNL     1      -7.631   5.776 -32.030  1.00  0.00    -0.269 OA
HETATM    6  N   UNL     1      -7.986   3.482 -31.590  1.00  0.00    -0.314 N 
HETATM    7  C   UNL     1      -7.178   2.432 -31.107  1.00  0.00     0.047 A 
HETATM    8  C   UNL     1      -5.853   2.863 -30.953  1.00  0.00     0.019 A 
HETATM    9  C   UNL     1      -7.553   1.139 -30.787  1.00  0.00     0.030 A 
HETATM   10  C   UNL     1      -6.569   0.270 -30.304  1.00  0.00     0.002 A 
HETATM   11  C   UNL     1      -5.242   0.700 -30.147  1.00  0.00     0.001 A 
HETATM   12  C   UNL     1      -4.873   2.006 -30.472  1.00  0.00     0.013 A 
HETATM   13  N   UNL     1      -5.174   5.262 -30.451  1.00  0.00    -0.201 N 
HETATM   14  C   UNL     1      -5.628   5.395 -29.150  1.00  0.00     0.238 C 
HETATM   15  C   UNL     1      -4.998   6.508 -28.351  1.00  0.00     0.119 C 
HETATM   16  O   UNL     1      -6.496   4.674 -28.657  1.00  0.00    -0.272 OA
HETATM   17  N   UNL     1      -4.343   6.220 -31.010  1.00  0.00    -0.141 NA
ENDROOT
BRANCH   6  18
HETATM   18  C   UNL     1      -9.428   3.346 -31.749  1.00  0.00     0.134 C 
BRANCH  18  19
HETATM   19  C   UNL     1      -9.914   3.049 -33.164  1.00  0.00     0.047 C 
BRANCH  19  20
HETATM   20  C   UNL     1     -10.222   1.570 -33.372  1.00  0.00     0.177 C 
BRANCH  20  21
HETATM   21  O   UNL     1      -9.453   1.141 -34.494  1.00  0.00    -0.351 OA
BRANCH  21  22
HETATM   22  C   UNL     1      -8.206   0.644 -34.260  1.00  0.00     0.068 A 
HETATM   23  C   UNL     1      -7.006   1.334 -34.389  1.00  0.00     0.037 A 
HETATM   24  C   UNL     1      -5.786   0.689 -34.128  1.00  0.00     0.011 A 
HETATM   25  C   UNL     1      -5.736  -0.658 -33.731  1.00  0.00    -0.050 A 
HETATM   26  C   UNL     1      -6.964  -1.331 -33.599  1.00  0.00     0.011 A 
HETATM   27  C   UNL     1      -8.177  -0.690 -33.861  1.00  0.00     0.037 A 
BRANCH  25  28
HETATM   28  C   UNL     1      -4.417  -1.396 -33.446  1.00  0.00    -0.024 C 
HETATM   29  C   UNL     1      -4.377  -2.091 -32.067  1.00  0.00     0.019 C 
HETATM   30  C   UNL     1      -4.194  -2.485 -34.517  1.00  0.00     0.019 C 
HETATM   31  C   UNL     1      -3.241  -0.396 -33.485  1.00  0.00     0.019 C 
ENDBRANCH  25  28
ENDBRANCH  21  22
ENDBRANCH  20  21
ENDBRANCH  19  20
ENDBRANCH  18  19
ENDBRANCH   6  18
BRANCH   1  32
HETATM   32  N   UNL     1      -3.412   6.698 -33.145  1.00  0.00    -0.305 N 
HETATM   33  C   UNL     1      -2.058   6.758 -33.377  1.00  0.00     0.219 C 
HETATM   34  C   UNL     1      -1.135   5.959 -32.501  1.00  0.00     0.117 C 
HETATM   35  O   UNL     1      -1.634   7.464 -34.292  1.00  0.00    -0.274 OA
HETATM   36  H   UNL     1      -3.947   7.321 -33.732  1.00  0.00     0.171 HD
ENDBRANCH   1  32
TORSDOF 7
ENDMDL
MODEL 3
REMARK VINA RESULT:      -8.0      2.378      8.628
REMARK  7 active torsions:
REMARK  status: ('A' for Active; 'I' for Inactive)
REMARK       I    between atoms: C_2  and  N_3 
REMARK    1  A    between atoms: N_3  and  C_4 
REMARK    2  A    between atoms: N_9  and  C_10 
REMARK    3  A    between atoms: C_10  and  C_11 
REMARK    4  A    between atoms: C_11  and  C_12 
REMARK    5  A    between atoms: C_12  and  O_13 
REMARK    6  A    between atoms: O_13  and  C_14 
REMARK    7  A    between atoms: C_17  and  C_18 
REMARK       I    between atoms: N_30  and  C_31 
ROOT
HETATM    1  C   UNL     1      -3.376   6.284 -31.200  1.00  0.00     0.191 C 
HETATM    2  S   UNL     1      -4.507   5.623 -30.064  1.00  0.00    -0.042 SA
HETATM    3  C   UNL     1      -5.130   4.536 -31.410  1.00  0.00     0.224 A 
HETATM    4  C   UNL     1      -4.590   3.103 -31.143  1.00  0.00     0.271 A 
HETATM    5  O   UNL     1      -3.413   2.769 -31.177  1.00  0.00    -0.269 OA
HETATM    6  N   UNL     1      -5.702   2.298 -30.832  1.00  0.00    -0.314 N 
HETATM    7  C   UNL     1      -6.897   3.032 -30.989  1.00  0.00     0.047 A 
HETATM    8  C   UNL     1      -6.615   4.358 -31.341  1.00  0.00     0.019 A 
HETATM    9  C   UNL     1      -8.200   2.587 -30.854  1.00  0.00     0.030 A 
HETATM   10  C   UNL     1      -9.233   3.502 -31.079  1.00  0.00     0.002 A 
HETATM   11  C   UNL     1      -8.954   4.832 -31.433  1.00  0.00     0.001 A 
HETATM   12  C   UNL     1      -7.635   5.271 -31.567  1.00  0.00     0.013 A 
HETATM   13  N   UNL     1      -4.547   5.094 -32.626  1.00  0.00    -0.201 N 
HETATM   14  C   UNL     1      -4.813   4.561 -33.876  1.00  0.00     0.238 C 
HETATM   15  C   UNL     1      -4.053   5.179 -35.023  1.00  0.00     0.119 C 
HETATM   16  O   UNL     1      -5.602   3.635 -34.064  1.00  0.00    -0.272 OA
HETATM   17  N   UNL     1      -3.510   5.997 -32.450  1.00  0.00    -0.141 NA
ENDROOT
BRANCH   6  18
HETATM   18  C   UNL     1      -5.697   0.865 -30.566  1.00  0.00     0.134 C 
BRANCH  18  19
HETATM   19  C   UNL     1      -5.107  -0.011 -31.666  1.00  0.00     0.047 C 
BRANCH  19  20
HETATM   20  C   UNL     1      -6.177  -0.796 -32.417  1.00  0.00     0.177 C 
BRANCH  20  21
HETATM   21  O   UNL     1      -6.635   0.040 -33.478  1.00  0.00    -0.351 OA
BRANCH  21  22
HETATM   22  C   UNL     1      -7.962   0.352 -33.515  1.00  0.00     0.068 A 
HETATM   23  C   UNL     1      -8.983  -0.305 -32.837  1.00  0.00     0.037 A 
HETATM   24  C   UNL     1     -10.314   0.116 -32.981  1.00  0.00     0.011 A 
HETATM   25  C   UNL     1     -10.658   1.203 -33.803  1.00  0.00    -0.050 A 
HETATM   26  C   UNL     1      -9.606   1.857 -34.470  1.00  0.00     0.011 A 
HETATM   27  C   UNL     1      -8.282   1.435 -34.329  1.00  0.00     0.037 A 
BRANCH  25  28
HETATM   28  C   UNL     1     -12.106   1.685 -33.988  1.00  0.00    -0.024 C 
HETATM   29  C   UNL     1     -12.496   2.858 -33.064  1.00  0.00     0.019 C 
HETATM   30  C   UNL     1     -12.310   2.158 -35.443  1.00  0.00     0.019 C 
HETATM   31  C   UNL     1     -13.084   0.526 -33.690  1.00  0.00     0.019 C 
ENDBRANCH  25  28
ENDBRANCH  21  22
ENDBRANCH  20  21
ENDBRANCH  19  20
ENDBRANCH  18  19
ENDBRANCH   6  18
BRANCH   1  32
HETATM   32  N   UNL     1      -2.427   7.085 -30.634  1.00  0.00    -0.305 N 
HETATM   33  C   UNL     1      -1.117   6.824 -30.308  1.00  0.00     0.219 C 
HETATM   34  C   UNL     1      -0.581   5.434 -30.506  1.00  0.00     0.117 C 
HETATM   35  O   UNL     1      -0.415   7.732 -29.861  1.00  0.00    -0.274 OA
HETATM   36  H   UNL     1      -2.719   8.023 -30.401  1.00  0.00     0.171 HD
ENDBRANCH   1  32
TORSDOF 7
ENDMDL
MODEL 4
REMARK VINA RESULT:      -7.9      2.095      2.544
REMARK  7 active torsions:
REMARK  status: ('A' for Active; 'I' for Inactive)
REMARK       I    between atoms: C_2  and  N_3 
REMARK    1  A    between atoms: N_3  and  C_4 
REMARK    2  A    between atoms: N_9  and  C_10 
REMARK    3  A    between atoms: C_10  and  C_11 
REMARK    4  A    between atoms: C_11  and  C_12 
REMARK    5  A    between atoms: C_12  and  O_13 
REMARK    6  A    between atoms: O_13  and  C_14 
REMARK    7  A    between atoms: C_17  and  C_18 
REMARK       I    between atoms: N_30  and  C_31 
ROOT
HETATM    1  C   UNL     1      -6.491  -0.121 -33.174  1.00  0.00     0.191 C 
HETATM    2  S   UNL     1      -6.360   1.342 -34.094  1.00  0.00    -0.042 SA
HETATM    3  C   UNL     1      -5.749   2.173 -32.571  1.00  0.00     0.224 A 
HETATM    4  C   UNL     1      -4.215   2.374 -32.729  1.00  0.00     0.271 A 
HETATM    5  O   UNL     1      -3.384   1.477 -32.787  1.00  0.00    -0.269 OA
HETATM    6  N   UNL     1      -3.991   3.761 -32.820  1.00  0.00    -0.314 N 
HETATM    7  C   UNL     1      -5.196   4.465 -32.618  1.00  0.00     0.047 A 
HETATM    8  C   UNL     1      -6.265   3.574 -32.454  1.00  0.00     0.019 A 
HETATM    9  C   UNL     1      -5.389   5.834 -32.555  1.00  0.00     0.030 A 
HETATM   10  C   UNL     1      -6.685   6.306 -32.325  1.00  0.00     0.002 A 
HETATM   11  C   UNL     1      -7.757   5.414 -32.159  1.00  0.00     0.001 A 
HETATM   12  C   UNL     1      -7.554   4.035 -32.224  1.00  0.00     0.013 A 
HETATM   13  N   UNL     1      -6.043   1.227 -31.499  1.00  0.00    -0.201 N 
HETATM   14  C   UNL     1      -5.757   1.511 -30.175  1.00  0.00     0.238 C 
HETATM   15  C   UNL     1      -6.019   0.392 -29.198  1.00  0.00     0.119 C 
HETATM   16  O   UNL     1      -5.304   2.591 -29.795  1.00  0.00    -0.272 OA
HETATM   17  N   UNL     1      -6.363  -0.063 -31.891  1.00  0.00    -0.141 NA
ENDROOT
BRANCH   6  18
HETATM   18  C   UNL     1      -2.702   4.433 -32.919  1.00  0.00     0.134 C 
BRANCH  18  19
HETATM   19  C   UNL     1      -2.366   5.024 -34.284  1.00  0.00     0.047 C 
BRANCH  19  20
HETATM   20  C   UNL     1      -2.333   6.549 -34.262  1.00  0.00     0.177 C 
BRANCH  20  21
HETATM   21  O   UNL     1      -1.050   6.928 -33.766  1.00  0.00    -0.351 OA
BRANCH  21  22
HETATM   22  C   UNL     1      -0.934   7.187 -32.432  1.00  0.00     0.068 A 
HETATM   23  C   UNL     1      -1.829   7.911 -31.652  1.00  0.00     0.037 A 
HETATM   24  C   UNL     1      -1.573   8.115 -30.287  1.00  0.00     0.011 A 
HETATM   25  C   UNL     1      -0.421   7.600 -29.668  1.00  0.00    -0.050 A 
HETATM   26  C   UNL     1       0.463   6.863 -30.477  1.00  0.00     0.011 A 
HETATM   27  C   UNL     1       0.210   6.663 -31.836  1.00  0.00     0.037 A 
BRANCH  25  28
HETATM   28  C   UNL     1      -0.108   7.812 -28.178  1.00  0.00    -0.024 C 
HETATM   29  C   UNL     1      -1.070   8.792 -27.471  1.00  0.00     0.019 C 
HETATM   30  C   UNL     1      -0.199   6.462 -27.435  1.00  0.00     0.019 C 
HETATM   31  C   UNL     1       1.319   8.383 -28.021  1.00  0.00     0.019 C 
ENDBRANCH  25  28
ENDBRANCH  21  22
ENDBRANCH  20  21
ENDBRANCH  19  20
ENDBRANCH  18  19
ENDBRANCH   6  18
BRANCH   1  32
HETATM   32  N   UNL     1      -6.739  -1.229 -33.929  1.00  0.00    -0.305 N 
HETATM   33  C   UNL     1      -5.906  -2.253 -34.316  1.00  0.00     0.219 C 
HETATM   34  C   UNL     1      -4.449  -2.180 -33.952  1.00  0.00     0.117 C 
HETATM   35  O   UNL     1      -6.370  -3.200 -34.951  1.00  0.00    -0.274 OA
HETATM   36  H   UNL     1      -7.682  -1.327 -34.278  1.00  0.00     0.171 HD
ENDBRANCH   1  32
TORSDOF 7
ENDMDL
MODEL 5
REMARK VINA RESULT:      -7.7      2.404      3.475
REMARK  7 active torsions:
REMARK  status: ('A' for Active; 'I' for Inactive)
REMARK       I    between atoms: C_2  and  N_3 
REMARK    1  A    between atoms: N_3  and  C_4 
REMARK    2  A    between atoms: N_9  and  C_10 
REMARK    3  A    between atoms: C_10  and  C_11 
REMARK    4  A    between atoms: C_11  and  C_12 
REMARK    5  A    between atoms: C_12  and  O_13 
REMARK    6  A    between atoms: O_13  and  C_14 
REMARK    7  A    between atoms: C_17  and  C_18 
REMARK       I    between atoms: N_30  and  C_31 
ROOT
HETATM    1  C   UNL     1      -9.431   3.797 -31.589  1.00  0.00     0.191 C 
HETATM    2  S   UNL     1      -7.874   4.265 -30.989  1.00  0.00    -0.042 SA
HETATM    3  C   UNL     1      -7.124   3.316 -32.374  1.00  0.00     0.224 A 
HETATM    4  C   UNL     1      -6.616   4.342 -33.426  1.00  0.00     0.271 A 
HETATM    5  O   UNL     1      -7.324   5.090 -34.088  1.00  0.00    -0.269 OA
HETATM    6  N   UNL     1      -5.211   4.256 -33.437  1.00  0.00    -0.314 N 
HETATM    7  C   UNL     1      -4.778   3.208 -32.598  1.00  0.00     0.047 A 
HETATM    8  C   UNL     1      -5.871   2.612 -31.954  1.00  0.00     0.019 A 
HETATM    9  C   UNL     1      -3.488   2.752 -32.391  1.00  0.00     0.030 A 
HETATM   10  C   UNL     1      -3.303   1.676 -31.517  1.00  0.00     0.002 A 
HETATM   11  C   UNL     1      -4.397   1.076 -30.873  1.00  0.00     0.001 A 
HETATM   12  C   UNL     1      -5.695   1.542 -31.087  1.00  0.00     0.013 A 
HETATM   13  N   UNL     1      -8.226   2.523 -32.909  1.00  0.00    -0.201 N 
HETATM   14  C   UNL     1      -8.048   1.638 -33.960  1.00  0.00     0.238 C 
HETATM   15  C   UNL     1      -9.302   0.973 -34.470  1.00  0.00     0.119 C 
HETATM   16  O   UNL     1      -6.953   1.403 -34.470  1.00  0.00    -0.272 OA
HETATM   17  N   UNL     1      -9.499   2.894 -32.508  1.00  0.00    -0.141 NA
ENDROOT
BRANCH   6  18
HETATM   18  C   UNL     1      -4.298   4.986 -34.306  1.00  0.00     0.134 C 
BRANCH  18  19
HETATM   19  C   UNL     1      -3.543   6.141 -33.654  1.00  0.00     0.047 C 
BRANCH  19  20
HETATM   20  C   UNL     1      -2.229   6.447 -34.365  1.00  0.00     0.177 C 
BRANCH  20  21
HETATM   21  O   UNL     1      -1.725   7.656 -33.798  1.00  0.00    -0.351 OA
BRANCH  21  22
HETATM   22  C   UNL     1      -1.374   7.645 -32.481  1.00  0.00     0.068 A 
HETATM   23  C   UNL     1      -1.929   8.426 -31.474  1.00  0.00     0.037 A 
HETATM   24  C   UNL     1      -1.457   8.321 -30.155  1.00  0.00     0.011 A 
HETATM   25  C   UNL     1      -0.424   7.433 -29.812  1.00  0.00    -0.050 A 
HETATM   26  C   UNL     1       0.114   6.647 -30.847  1.00  0.00     0.011 A 
HETATM   27  C   UNL     1      -0.354   6.754 -32.159  1.00  0.00     0.037 A 
BRANCH  25  28
HETATM   28  C   UNL     1       0.121   7.300 -28.380  1.00  0.00    -0.024 C 
HETATM   29  C   UNL     1      -0.944   7.520 -27.284  1.00  0.00     0.019 C 
HETATM   30  C   UNL     1       0.702   5.884 -28.179  1.00  0.00     0.019 C 
HETATM   31  C   UNL     1       1.236   8.344 -28.147  1.00  0.00     0.019 C 
ENDBRANCH  25  28
ENDBRANCH  21  22
ENDBRANCH  20  21
ENDBRANCH  19  20
ENDBRANCH  18  19
ENDBRANCH   6  18
BRANCH   1  32
HETATM   32  N   UNL     1     -10.472   4.449 -30.995  1.00  0.00    -0.305 N 
HETATM   33  C   UNL     1     -11.089   5.634 -31.322  1.00  0.00     0.219 C 
HETATM   34  C   UNL     1     -10.545   6.445 -32.465  1.00  0.00     0.117 C 
HETATM   35  O   UNL     1     -12.068   6.003 -30.673  1.00  0.00    -0.274 OA
HETATM   36  H   UNL     1     -10.860   4.010 -30.172  1.00  0.00     0.171 HD
ENDBRANCH   1  32
TORSDOF 7
ENDMDL
MODEL 6
REMARK VINA RESULT:      -7.7      2.466      4.343
REMARK  7 active torsions:
REMARK  status: ('A' for Active; 'I' for Inactive)
REMARK       I    between atoms: C_2  and  N_3 
REMARK    1  A    between atoms: N_3  and  C_4 
REMARK    2  A    between atoms: N_9  and  C_10 
REMARK    3  A    between atoms: C_10  and  C_11 
REMARK    4  A    between atoms: C_11  and  C_12 
REMARK    5  A    between atoms: C_12  and  O_13 
REMARK    6  A    between atoms: O_13  and  C_14 
REMARK    7  A    between atoms: C_17  and  C_18 
REMARK       I    between atoms: N_30  and  C_31 
ROOT
HETATM    1  C   UNL     1      -7.517   4.992 -29.998  1.00  0.00     0.191 C 
HETATM    2  S   UNL     1      -6.124   4.029 -29.633  1.00  0.00    -0.042 SA
HETATM    3  C   UNL     1      -5.906   3.769 -31.440  1.00  0.00     0.224 A 
HETATM    4  C   UNL     1      -4.714   4.655 -31.901  1.00  0.00     0.271 A 
HETATM    5  O   UNL     1      -4.694   5.879 -31.895  1.00  0.00    -0.269 OA
HETATM    6  N   UNL     1      -3.680   3.780 -32.288  1.00  0.00    -0.314 N 
HETATM    7  C   UNL     1      -4.126   2.443 -32.237  1.00  0.00     0.047 A 
HETATM    8  C   UNL     1      -5.439   2.381 -31.753  1.00  0.00     0.019 A 
HETATM    9  C   UNL     1      -3.443   1.298 -32.606  1.00  0.00     0.030 A 
HETATM   10  C   UNL     1      -4.103   0.071 -32.482  1.00  0.00     0.002 A 
HETATM   11  C   UNL     1      -5.420   0.006 -32.000  1.00  0.00     0.001 A 
HETATM   12  C   UNL     1      -6.100   1.167 -31.629  1.00  0.00     0.013 A 
HETATM   13  N   UNL     1      -7.159   4.235 -32.027  1.00  0.00    -0.201 N 
HETATM   14  C   UNL     1      -7.396   4.171 -33.390  1.00  0.00     0.238 C 
HETATM   15  C   UNL     1      -8.691   4.789 -33.855  1.00  0.00     0.119 C 
HETATM   16  O   UNL     1      -6.614   3.661 -34.192  1.00  0.00    -0.272 OA
HETATM   17  N   UNL     1      -7.977   4.991 -31.203  1.00  0.00    -0.141 NA
ENDROOT
BRANCH   6  18
HETATM   18  C   UNL     1      -2.386   4.150 -32.847  1.00  0.00     0.134 C 
BRANCH  18  19
HETATM   19  C   UNL     1      -2.429   5.059 -34.071  1.00  0.00     0.047 C 
BRANCH  19  20
HETATM   20  C   UNL     1      -1.077   5.700 -34.363  1.00  0.00     0.177 C 
BRANCH  20  21
HETATM   21  O   UNL     1      -1.150   7.048 -33.899  1.00  0.00    -0.351 OA
BRANCH  21  22
HETATM   22  C   UNL     1      -1.018   7.269 -32.561  1.00  0.00     0.068 A 
HETATM   23  C   UNL     1      -1.869   8.025 -31.763  1.00  0.00     0.037 A 
HETATM   24  C   UNL     1      -1.602   8.182 -30.393  1.00  0.00     0.011 A 
HETATM   25  C   UNL     1      -0.482   7.587 -29.789  1.00  0.00    -0.050 A 
HETATM   26  C   UNL     1       0.358   6.819 -30.616  1.00  0.00     0.011 A 
HETATM   27  C   UNL     1       0.093   6.666 -31.978  1.00  0.00     0.037 A 
BRANCH  25  28
HETATM   28  C   UNL     1      -0.156   7.746 -28.294  1.00  0.00    -0.024 C 
HETATM   29  C   UNL     1      -0.177   6.418 -27.507  1.00  0.00     0.019 C 
HETATM   30  C   UNL     1       1.254   8.353 -28.135  1.00  0.00     0.019 C 
HETATM   31  C   UNL     1      -1.191   8.684 -27.632  1.00  0.00     0.019 C 
ENDBRANCH  25  28
ENDBRANCH  21  22
ENDBRANCH  20  21
ENDBRANCH  19  20
ENDBRANCH  18  19
ENDBRANCH   6  18
BRANCH   1  32
HETATM   32  N   UNL     1      -8.015   5.674 -28.926  1.00  0.00    -0.305 N 
HETATM   33  C   UNL     1      -7.745   6.943 -28.469  1.00  0.00     0.219 C 
HETATM   34  C   UNL     1      -6.687   7.754 -29.163  1.00  0.00     0.117 C 
HETATM   35  O   UNL     1      -8.372   7.382 -27.505  1.00  0.00    -0.274 OA
HETATM   36  H   UNL     1      -8.686   5.178 -28.357  1.00  0.00     0.171 HD
ENDBRANCH   1  32
TORSDOF 7
ENDMDL
MODEL 7
REMARK VINA RESULT:      -7.6      2.746      5.479
REMARK  7 active torsions:
REMARK  status: ('A' for Active; 'I' for Inactive)
REMARK       I    between atoms: C_2  and  N_3 
REMARK    1  A    between atoms: N_3  and  C_4 
REMARK    2  A    between atoms: N_9  and  C_10 
REMARK    3  A    between atoms: C_10  and  C_11 
REMARK    4  A    between atoms: C_11  and  C_12 
REMARK    5  A    between atoms: C_12  and  O_13 
REMARK    6  A    between atoms: O_13  and  C_14 
REMARK    7  A    between atoms: C_17  and  C_18 
REMARK       I    between atoms: N_30  and  C_31 
ROOT
HETATM    1  C   UNL     1     -11.409   2.145 -33.376  1.00  0.00     0.191 C 
HETATM    2  S   UNL     1     -10.772   0.556 -33.104  1.00  0.00    -0.042 SA
HETATM    3  C   UNL     1      -9.095   1.306 -33.036  1.00  0.00     0.224 A 
HETATM    4  C   UNL     1      -8.654   1.335 -31.545  1.00  0.00     0.271 A 
HETATM    5  O   UNL     1      -9.180   1.999 -30.661  1.00  0.00    -0.269 OA
HETATM    6  N   UNL     1      -7.573   0.441 -31.420  1.00  0.00    -0.314 N 
HETATM    7  C   UNL     1      -7.203  -0.059 -32.686  1.00  0.00     0.047 A 
HETATM    8  C   UNL     1      -8.064   0.430 -33.678  1.00  0.00     0.019 A 
HETATM    9  C   UNL     1      -6.150  -0.899 -33.002  1.00  0.00     0.030 A 
HETATM   10  C   UNL     1      -5.968  -1.250 -34.343  1.00  0.00     0.002 A 
HETATM   11  C   UNL     1      -6.828  -0.760 -35.339  1.00  0.00     0.001 A 
HETATM   12  C   UNL     1      -7.888   0.088 -35.011  1.00  0.00     0.013 A 
HETATM   13  N   UNL     1      -9.281   2.659 -33.551  1.00  0.00    -0.201 N 
HETATM   14  C   UNL     1      -8.224   3.542 -33.687  1.00  0.00     0.238 C 
HETATM   15  C   UNL     1      -8.592   4.936 -34.130  1.00  0.00     0.119 C 
HETATM   16  O   UNL     1      -7.053   3.239 -33.457  1.00  0.00    -0.272 OA
HETATM   17  N   UNL     1     -10.590   3.108 -33.633  1.00  0.00    -0.141 NA
ENDROOT
BRANCH   6  18
HETATM   18  C   UNL     1      -6.791   0.178 -30.219  1.00  0.00     0.134 C 
BRANCH  18  19
HETATM   19  C   UNL     1      -5.396   0.795 -30.188  1.00  0.00     0.047 C 
BRANCH  19  20
HETATM   20  C   UNL     1      -5.432   2.314 -30.316  1.00  0.00     0.177 C 
BRANCH  20  21
HETATM   21  O   UNL     1      -4.878   2.635 -31.591  1.00  0.00    -0.351 OA
BRANCH  21  22
HETATM   22  C   UNL     1      -3.955   3.637 -31.650  1.00  0.00     0.068 A 
HETATM   23  C   UNL     1      -2.767   3.621 -32.371  1.00  0.00     0.037 A 
HETATM   24  C   UNL     1      -1.897   4.723 -32.328  1.00  0.00     0.011 A 
HETATM   25  C   UNL     1      -2.195   5.866 -31.566  1.00  0.00    -0.050 A 
HETATM   26  C   UNL     1      -3.407   5.861 -30.854  1.00  0.00     0.011 A 
HETATM   27  C   UNL     1      -4.270   4.763 -30.895  1.00  0.00     0.037 A 
BRANCH  25  28
HETATM   28  C   UNL     1      -1.261   7.085 -31.491  1.00  0.00    -0.024 C 
HETATM   29  C   UNL     1       0.233   6.720 -31.353  1.00  0.00     0.019 C 
HETATM   30  C   UNL     1      -1.411   7.929 -32.775  1.00  0.00     0.019 C 
HETATM   31  C   UNL     1      -1.633   7.952 -30.267  1.00  0.00     0.019 C 
ENDBRANCH  25  28
ENDBRANCH  21  22
ENDBRANCH  20  21
ENDBRANCH  19  20
ENDBRANCH  18  19
ENDBRANCH   6  18
BRANCH   1  32
HETATM   32  N   UNL     1     -12.769   2.216 -33.300  1.00  0.00    -0.305 N 
HETATM   33  C   UNL     1     -13.580   2.983 -32.496  1.00  0.00     0.219 C 
HETATM   34  C   UNL     1     -12.949   3.860 -31.452  1.00  0.00     0.117 C 
HETATM   35  O   UNL     1     -14.801   2.931 -32.648  1.00  0.00    -0.274 OA
HETATM   36  H   UNL     1     -13.281   1.607 -33.921  1.00  0.00     0.171 HD
ENDBRANCH   1  32
TORSDOF 7
ENDMDL
MODEL 8
REMARK VINA RESULT:      -7.5      2.645      8.410
REMARK  7 active torsions:
REMARK  status: ('A' for Active; 'I' for Inactive)
REMARK       I    between atoms: C_2  and  N_3 
REMARK    1  A    between atoms: N_3  and  C_4 
REMARK    2  A    between atoms: N_9  and  C_10 
REMARK    3  A    between atoms: C_10  and  C_11 
REMARK    4  A    between atoms: C_11  and  C_12 
REMARK    5  A    between atoms: C_12  and  O_13 
REMARK    6  A    between atoms: O_13  and  C_14 
REMARK    7  A    between atoms: C_17  and  C_18 
REMARK       I    between atoms: N_30  and  C_31 
ROOT
HETATM    1  C   UNL     1      -3.001   6.764 -29.905  1.00  0.00     0.191 C 
HETATM    2  S   UNL     1      -4.273   5.587 -29.882  1.00  0.00    -0.042 SA
HETATM    3  C   UNL     1      -3.901   5.240 -31.649  1.00  0.00     0.224 A 
HETATM    4  C   UNL     1      -3.148   3.881 -31.712  1.00  0.00     0.271 A 
HETATM    5  O   UNL     1      -2.035   3.664 -31.251  1.00  0.00    -0.269 OA
HETATM    6  N   UNL     1      -4.001   2.970 -32.363  1.00  0.00    -0.314 N 
HETATM    7  C   UNL     1      -5.159   3.630 -32.826  1.00  0.00     0.047 A 
HETATM    8  C   UNL     1      -5.145   4.976 -32.440  1.00  0.00     0.019 A 
HETATM    9  C   UNL     1      -6.200   3.109 -33.574  1.00  0.00     0.030 A 
HETATM   10  C   UNL     1      -7.244   3.968 -33.935  1.00  0.00     0.002 A 
HETATM   11  C   UNL     1      -7.230   5.318 -33.551  1.00  0.00     0.001 A 
HETATM   12  C   UNL     1      -6.175   5.835 -32.796  1.00  0.00     0.013 A 
HETATM   13  N   UNL     1      -3.030   6.338 -32.059  1.00  0.00    -0.201 N 
HETATM   14  C   UNL     1      -2.554   6.449 -33.354  1.00  0.00     0.238 C 
HETATM   15  C   UNL     1      -1.580   7.575 -33.596  1.00  0.00     0.119 C 
HETATM   16  O   UNL     1      -2.878   5.685 -34.264  1.00  0.00    -0.272 OA
HETATM   17  N   UNL     1      -2.483   7.099 -31.038  1.00  0.00    -0.141 NA
ENDROOT
BRANCH   6  18
HETATM   18  C   UNL     1      -3.703   1.586 -32.705  1.00  0.00     0.134 C 
BRANCH  18  19
HETATM   19  C   UNL     1      -4.376   0.529 -31.835  1.00  0.00     0.047 C 
BRANCH  19  20
HETATM   20  C   UNL     1      -4.983  -0.601 -32.661  1.00  0.00     0.177 C 
BRANCH  20  21
HETATM   21  O   UNL     1      -6.251  -0.902 -32.081  1.00  0.00    -0.351 OA
BRANCH  21  22
HETATM   22  C   UNL     1      -7.339  -0.219 -32.538  1.00  0.00     0.068 A 
HETATM   23  C   UNL     1      -7.807  -0.196 -33.847  1.00  0.00     0.037 A 
HETATM   24  C   UNL     1      -8.937   0.568 -34.181  1.00  0.00     0.011 A 
HETATM   25  C   UNL     1      -9.626   1.323 -33.218  1.00  0.00    -0.050 A 
HETATM   26  C   UNL     1      -9.138   1.275 -31.899  1.00  0.00     0.011 A 
HETATM   27  C   UNL     1      -8.013   0.518 -31.568  1.00  0.00     0.037 A 
BRANCH  25  28
HETATM   28  C   UNL     1     -10.861   2.176 -33.552  1.00  0.00    -0.024 C 
HETATM   29  C   UNL     1     -11.225   3.203 -32.458  1.00  0.00     0.019 C 
HETATM   30  C   UNL     1     -10.607   2.963 -34.855  1.00  0.00     0.019 C 
HETATM   31  C   UNL     1     -12.091   1.260 -33.744  1.00  0.00     0.019 C 
ENDBRANCH  25  28
ENDBRANCH  21  22
ENDBRANCH  20  21
ENDBRANCH  19  20
ENDBRANCH  18  19
ENDBRANCH   6  18
BRANCH   1  32
HETATM   32  N   UNL     1      -2.670   7.247 -28.673  1.00  0.00    -0.305 N 
HETATM   33  C   UNL     1      -1.491   7.170 -27.969  1.00  0.00     0.219 C 
HETATM   34  C   UNL     1      -0.350   6.380 -28.547  1.00  0.00     0.117 C 
HETATM   35  O   UNL     1      -1.398   7.745 -26.884  1.00  0.00    -0.274 OA
HETATM   36  H   UNL     1      -3.402   7.735 -28.176  1.00  0.00     0.171 HD
ENDBRANCH   1  32
TORSDOF 7
ENDMDL
MODEL 9
REMARK VINA RESULT:      -7.3      3.139      8.578
REMARK  7 active torsions:
REMARK  status: ('A' for Active; 'I' for Inactive)
REMARK       I    between atoms: C_2  and  N_3 
REMARK    1  A    between atoms: N_3  and  C_4 
REMARK    2  A    between atoms: N_9  and  C_10 
REMARK    3  A    between atoms: C_10  and  C_11 
REMARK    4  A    between atoms: C_11  and  C_12 
REMARK    5  A    between atoms: C_12  and  O_13 
REMARK    6  A    between atoms: O_13  and  C_14 
REMARK    7  A    between atoms: C_17  and  C_18 
REMARK       I    between atoms: N_30  and  C_31 
ROOT
HETATM    1  C   UNL     1      -3.985   5.449 -32.343  1.00  0.00     0.191 C 
HETATM    2  S   UNL     1      -3.516   4.078 -33.293  1.00  0.00    -0.042 SA
HETATM    3  C   UNL     1      -4.799   3.103 -32.407  1.00  0.00     0.224 A 
HETATM    4  C   UNL     1      -5.994   2.904 -33.382  1.00  0.00     0.271 A 
HETATM    5  O   UNL     1      -6.715   3.794 -33.813  1.00  0.00    -0.269 OA
HETATM    6  N   UNL     1      -6.053   1.529 -33.682  1.00  0.00    -0.314 N 
HETATM    7  C   UNL     1      -5.107   0.820 -32.913  1.00  0.00     0.047 A 
HETATM    8  C   UNL     1      -4.346   1.702 -32.134  1.00  0.00     0.019 A 
HETATM    9  C   UNL     1      -4.898  -0.547 -32.858  1.00  0.00     0.030 A 
HETATM   10  C   UNL     1      -3.903  -1.026 -32.001  1.00  0.00     0.002 A 
HETATM   11  C   UNL     1      -3.141  -0.144 -31.217  1.00  0.00     0.001 A 
HETATM   12  C   UNL     1      -3.359   1.233 -31.279  1.00  0.00     0.013 A 
HETATM   13  N   UNL     1      -5.182   3.947 -31.280  1.00  0.00    -0.201 N 
HETATM   14  C   UNL     1      -6.117   3.539 -30.344  1.00  0.00     0.238 C 
HETATM   15  C   UNL     1      -6.485   4.563 -29.301  1.00  0.00     0.119 C 
HETATM   16  O   UNL     1      -6.640   2.424 -30.350  1.00  0.00    -0.272 OA
HETATM   17  N   UNL     1      -4.777   5.271 -31.341  1.00  0.00    -0.141 NA
ENDROOT
BRANCH   6  18
HETATM   18  C   UNL     1      -7.047   0.858 -34.509  1.00  0.00     0.134 C 
BRANCH  18  19
HETATM   19  C   UNL     1      -7.884  -0.207 -33.807  1.00  0.00     0.047 C 
BRANCH  19  20
HETATM   20  C   UNL     1      -8.720   0.371 -32.670  1.00  0.00     0.177 C 
BRANCH  20  21
HETATM   21  O   UNL     1     -10.071   0.403 -33.126  1.00  0.00    -0.351 OA
BRANCH  21  22
HETATM   22  C   UNL     1     -10.561   1.589 -33.587  1.00  0.00     0.068 A 
HETATM   23  C   UNL     1     -11.507   1.755 -34.592  1.00  0.00     0.037 A 
HETATM   24  C   UNL     1     -11.910   3.043 -34.979  1.00  0.00     0.011 A 
HETATM   25  C   UNL     1     -11.380   4.194 -34.371  1.00  0.00    -0.050 A 
HETATM   26  C   UNL     1     -10.431   3.998 -33.351  1.00  0.00     0.011 A 
HETATM   27  C   UNL     1     -10.029   2.717 -32.968  1.00  0.00     0.037 A 
BRANCH  25  28
HETATM   28  C   UNL     1     -11.793   5.618 -34.777  1.00  0.00    -0.024 C 
HETATM   29  C   UNL     1     -10.676   6.414 -35.488  1.00  0.00     0.019 C 
HETATM   30  C   UNL     1     -12.996   5.551 -35.742  1.00  0.00     0.019 C 
HETATM   31  C   UNL     1     -12.195   6.422 -33.520  1.00  0.00     0.019 C 
ENDBRANCH  25  28
ENDBRANCH  21  22
ENDBRANCH  20  21
ENDBRANCH  19  20
ENDBRANCH  18  19
ENDBRANCH   6  18
BRANCH   1  32
HETATM   32  N   UNL     1      -3.435   6.626 -32.761  1.00  0.00    -0.305 N 
HETATM   33  C   UNL     1      -2.193   7.166 -32.524  1.00  0.00     0.219 C 
HETATM   34  C   UNL     1      -1.249   6.443 -31.605  1.00  0.00     0.117 C 
HETATM   35  O   UNL     1      -1.884   8.228 -33.066  1.00  0.00    -0.274 OA
HETATM   36  H   UNL     1      -4.026   7.215 -33.330  1.00  0.00     0.171 HD
ENDBRANCH   1  32
TORSDOF 7
ENDMDL
MODEL 10
REMARK VINA RESULT:      -7.2      2.794      7.471
REMARK  7 active torsions:
REMARK  status: ('A' for Active; 'I' for Inactive)
REMARK       I    between atoms: C_2  and  N_3 
REMARK    1  A    between atoms: N_3  and  C_4 
REMARK    2  A    between atoms: N_9  and  C_10 
REMARK    3  A    between atoms: C_10  and  C_11 
REMARK    4  A    between atoms: C_11  and  C_12 
REMARK    5  A    between atoms: C_12  and  O_13 
REMARK    6  A    between atoms: O_13  and  C_14 
REMARK    7  A    between atoms: C_17  and  C_18 
REMARK       I    between atoms: N_30  and  C_31 
ROOT
HETATM    1  C   UNL     1      -3.738   5.542 -32.523  1.00  0.00     0.191 C 
HETATM    2  S   UNL     1      -3.384   4.112 -33.436  1.00  0.00    -0.042 SA
HETATM    3  C   UNL     1      -4.658   3.236 -32.442  1.00  0.00     0.224 A 
HETATM    4  C   UNL     1      -5.912   3.052 -33.342  1.00  0.00     0.271 A 
HETATM    5  O   UNL     1      -6.616   3.957 -33.773  1.00  0.00    -0.269 OA
HETATM    6  N   UNL     1      -6.049   1.671 -33.578  1.00  0.00    -0.314 N 
HETATM    7  C   UNL     1      -5.093   0.951 -32.830  1.00  0.00     0.047 A 
HETATM    8  C   UNL     1      -4.253   1.828 -32.132  1.00  0.00     0.019 A 
HETATM    9  C   UNL     1      -4.943  -0.421 -32.727  1.00  0.00     0.030 A 
HETATM   10  C   UNL     1      -3.925  -0.910 -31.903  1.00  0.00     0.002 A 
HETATM   11  C   UNL     1      -3.083  -0.033 -31.200  1.00  0.00     0.001 A 
HETATM   12  C   UNL     1      -3.242   1.349 -31.311  1.00  0.00     0.013 A 
HETATM   13  N   UNL     1      -4.940   4.143 -31.333  1.00  0.00    -0.201 N 
HETATM   14  C   UNL     1      -5.840   3.817 -30.333  1.00  0.00     0.238 C 
HETATM   15  C   UNL     1      -6.105   4.900 -29.317  1.00  0.00     0.119 C 
HETATM   16  O   UNL     1      -6.411   2.728 -30.262  1.00  0.00    -0.272 OA
HETATM   17  N   UNL     1      -4.482   5.443 -31.474  1.00  0.00    -0.141 NA
ENDROOT
BRANCH   6  18
HETATM   18  C   UNL     1      -7.115   1.013 -34.321  1.00  0.00     0.134 C 
BRANCH  18  19
HETATM   19  C   UNL     1      -8.297   0.524 -33.491  1.00  0.00     0.047 C 
BRANCH  19  20
HETATM   20  C   UNL     1      -9.609   1.179 -33.910  1.00  0.00     0.177 C 
BRANCH  20  21
HETATM   21  O   UNL     1     -10.298   1.529 -32.710  1.00  0.00    -0.351 OA
BRANCH  21  22
HETATM   22  C   UNL     1     -10.038   2.748 -32.158  1.00  0.00     0.068 A 
HETATM   23  C   UNL     1      -9.825   3.014 -30.810  1.00  0.00     0.037 A 
HETATM   24  C   UNL     1      -9.582   4.328 -30.378  1.00  0.00     0.011 A 
HETATM   25  C   UNL     1      -9.544   5.405 -31.280  1.00  0.00    -0.050 A 
HETATM   26  C   UNL     1      -9.753   5.107 -32.639  1.00  0.00     0.011 A 
HETATM   27  C   UNL     1      -9.997   3.801 -33.068  1.00  0.00     0.037 A 
BRANCH  25  28
HETATM   28  C   UNL     1      -9.288   6.856 -30.838  1.00  0.00    -0.024 C 
HETATM   29  C   UNL     1      -7.942   7.430 -31.332  1.00  0.00     0.019 C 
HETATM   30  C   UNL     1     -10.406   7.766 -31.388  1.00  0.00     0.019 C 
HETATM   31  C   UNL     1      -9.279   6.937 -29.295  1.00  0.00     0.019 C 
ENDBRANCH  25  28
ENDBRANCH  21  22
ENDBRANCH  20  21
ENDBRANCH  19  20
ENDBRANCH  18  19
ENDBRANCH   6  18
BRANCH   1  32
HETATM   32  N   UNL     1      -3.161   6.674 -33.021  1.00  0.00    -0.305 N 
HETATM   33  C   UNL     1      -1.889   7.172 -32.862  1.00  0.00     0.219 C 
HETATM   34  C   UNL     1      -0.936   6.454 -31.949  1.00  0.00     0.117 C 
HETATM   35  O   UNL     1      -1.562   8.194 -33.468  1.00  0.00    -0.274 OA
HETATM   36  H   UNL     1      -3.752   7.259 -33.593  1.00  0.00     0.171 HD
ENDBRANCH   1  32
TORSDOF 7
ENDMDL
