MODEL 1
REMARK VINA RESULT:      -8.3      0.000      0.000
REMARK  8 active torsions:
REMARK  status: ('A' for Active; 'I' for Inactive)
REMARK    1  A    between atoms: C_2  and  C_3 
REMARK    2  A    between atoms: C_3  and  N_4 
REMARK    3  A    between atoms: N_4  and  C_5 
REMARK    4  A    between atoms: C_7  and  N_8 
REMARK    5  A    between atoms: N_8  and  C_9 
REMARK    6  A    between atoms: C_9  and  C_10 
REMARK    7  A    between atoms: C_10  and  C_11 
REMARK    8  A    between atoms: C_12  and  O_13 
ROOT
HETATM    1  C   UNL     1      -6.367  -0.880 -34.155  1.00  0.00     0.119 A 
HETATM    2  N   UNL     1      -5.580   0.074 -33.620  1.00  0.00    -0.207 NA
HETATM    3  C   UNL     1      -4.365  -0.290 -33.194  1.00  0.00     0.181 A 
HETATM    4  N   UNL     1      -3.915  -1.539 -33.251  1.00  0.00    -0.330 N 
HETATM    5  H   UNL     1      -3.014  -1.723 -32.833  1.00  0.00     0.168 HD
HETATM    6  C   UNL     1      -4.643  -2.515 -33.801  1.00  0.00     0.048 A 
HETATM    7  C   UNL     1      -5.926  -2.214 -34.297  1.00  0.00     0.031 A 
HETATM    8  C   UNL     1      -4.127  -3.817 -33.882  1.00  0.00     0.030 A 
HETATM    9  C   UNL     1      -4.878  -4.832 -34.472  1.00  0.00     0.002 A 
HETATM   10  C   UNL     1      -6.143  -4.553 -34.982  1.00  0.00     0.001 A 
HETATM   11  C   UNL     1      -6.664  -3.261 -34.898  1.00  0.00     0.017 A 
ENDROOT
BRANCH   3  12
HETATM   12  N   UNL     1      -3.580   0.674 -32.587  1.00  0.00    -0.262 NA
HETATM   13  H   UNL     1      -3.275   0.264 -31.698  1.00  0.00     0.130 HD
BRANCH  12  14
HETATM   14  C   UNL     1      -4.154   2.013 -32.405  1.00  0.00     0.100 C 
BRANCH  14  15
HETATM   15  C   UNL     1      -3.151   3.007 -31.804  1.00  0.00     0.056 C 
BRANCH  15  16
HETATM   16  C   UNL     1      -2.669   4.168 -32.654  1.00  0.00    -0.024 A 
HETATM   17  C   UNL     1      -1.505   4.860 -32.246  1.00  0.00     0.074 A 
HETATM   18  C   UNL     1      -1.019   5.927 -33.008  1.00  0.00     0.037 A 
HETATM   19  C   UNL     1      -1.682   6.322 -34.169  1.00  0.00     0.003 A 
HETATM   20  C   UNL     1      -2.835   5.658 -34.572  1.00  0.00     0.001 A 
HETATM   21  C   UNL     1      -3.327   4.590 -33.821  1.00  0.00     0.010 A 
BRANCH  17  22
HETATM   22  O   UNL     1      -0.920   4.405 -31.090  1.00  0.00    -0.355 OA
HETATM   23  C   UNL     1      -0.249   5.364 -30.281  1.00  0.00     0.210 C 
ENDBRANCH  17  22
ENDBRANCH  15  16
ENDBRANCH  14  15
ENDBRANCH  12  14
ENDBRANCH   3  12
BRANCH   1  24
HETATM   24  N   UNL     1      -7.641  -0.528 -34.622  1.00  0.00    -0.277 NA
HETATM   25  H   UNL     1      -8.357  -1.112 -34.194  1.00  0.00     0.129 HD
BRANCH  24  26
HETATM   26  C   UNL     1      -8.001   0.890 -34.553  1.00  0.00     0.093 C 
BRANCH  26  27
HETATM   27  C   UNL     1      -9.420   1.043 -34.003  1.00  0.00     0.010 C 
HETATM   28  C   UNL     1      -9.730   0.062 -32.881  1.00  0.00     0.006 C 
ENDBRANCH  26  27
ENDBRANCH  24  26
ENDBRANCH   1  24
TORSDOF 8
ENDMDL
MODEL 2
REMARK VINA RESULT:      -7.9      1.566      2.361
REMARK  8 active torsions:
REMARK  status: ('A' for Active; 'I' for Inactive)
REMARK    1  A    between atoms: C_2  and  C_3 
REMARK    2  A    between atoms: C_3  and  N_4 
REMARK    3  A    between atoms: N_4  and  C_5 
REMARK    4  A    between atoms: C_7  and  N_8 
REMARK    5  A    between atoms: N_8  and  C_9 
REMARK    6  A    between atoms: C_9  and  C_10 
REMARK    7  A    between atoms: C_10  and  C_11 
REMARK    8  A    between atoms: C_12  and  O_13 
ROOT
HETATM    1  C   UNL     1      -6.373  -0.827 -34.310  1.00  0.00     0.119 A 
HETATM    2  N   UNL     1      -5.619   0.161 -33.787  1.00  0.00    -0.207 NA
HETATM    3  C   UNL     1      -4.417  -0.166 -33.299  1.00  0.00     0.181 A 
HETATM    4  N   UNL     1      -3.950  -1.410 -33.284  1.00  0.00    -0.330 N 
HETATM    5  H   UNL     1      -3.064  -1.563 -32.823  1.00  0.00     0.168 HD
HETATM    6  C   UNL     1      -4.643  -2.419 -33.818  1.00  0.00     0.048 A 
HETATM    7  C   UNL     1      -5.909  -2.159 -34.376  1.00  0.00     0.031 A 
HETATM    8  C   UNL     1      -4.108  -3.717 -33.822  1.00  0.00     0.030 A 
HETATM    9  C   UNL     1      -4.823  -4.767 -34.395  1.00  0.00     0.002 A 
HETATM   10  C   UNL     1      -6.070  -4.528 -34.966  1.00  0.00     0.001 A 
HETATM   11  C   UNL     1      -6.610  -3.241 -34.959  1.00  0.00     0.017 A 
ENDROOT
BRANCH   3  12
HETATM   12  N   UNL     1      -3.670   0.834 -32.705  1.00  0.00    -0.262 NA
HETATM   13  H   UNL     1      -2.710   0.473 -32.658  1.00  0.00     0.130 HD
BRANCH  12  14
HETATM   14  C   UNL     1      -4.125   1.355 -31.410  1.00  0.00     0.100 C 
BRANCH  14  15
HETATM   15  C   UNL     1      -3.998   2.882 -31.313  1.00  0.00     0.056 C 
BRANCH  15  16
HETATM   16  C   UNL     1      -3.785   3.683 -32.584  1.00  0.00    -0.024 A 
HETATM   17  C   UNL     1      -4.917   4.023 -33.360  1.00  0.00     0.074 A 
HETATM   18  C   UNL     1      -4.766   4.773 -34.531  1.00  0.00     0.037 A 
HETATM   19  C   UNL     1      -3.499   5.180 -34.947  1.00  0.00     0.003 A 
HETATM   20  C   UNL     1      -2.378   4.839 -34.200  1.00  0.00     0.001 A 
HETATM   21  C   UNL     1      -2.517   4.094 -33.028  1.00  0.00     0.010 A 
BRANCH  17  22
HETATM   22  O   UNL     1      -6.122   3.578 -32.876  1.00  0.00    -0.355 OA
HETATM   23  C   UNL     1      -7.298   4.172 -33.416  1.00  0.00     0.210 C 
ENDBRANCH  17  22
ENDBRANCH  15  16
ENDBRANCH  14  15
ENDBRANCH  12  14
ENDBRANCH   3  12
BRANCH   1  24
HETATM   24  N   UNL     1      -7.631  -0.513 -34.842  1.00  0.00    -0.277 NA
HETATM   25  H   UNL     1      -8.230  -1.337 -34.863  1.00  0.00     0.129 HD
BRANCH  24  26
HETATM   26  C   UNL     1      -8.328   0.634 -34.257  1.00  0.00     0.093 C 
BRANCH  26  27
HETATM   27  C   UNL     1      -9.256   0.165 -33.134  1.00  0.00     0.010 C 
HETATM   28  C   UNL     1      -8.783   0.601 -31.754  1.00  0.00     0.006 C 
ENDBRANCH  26  27
ENDBRANCH  24  26
ENDBRANCH   1  24
TORSDOF 8
ENDMDL
MODEL 3
REMARK VINA RESULT:      -7.8      1.236      1.899
REMARK  8 active torsions:
REMARK  status: ('A' for Active; 'I' for Inactive)
REMARK    1  A    between atoms: C_2  and  C_3 
REMARK    2  A    between atoms: C_3  and  N_4 
REMARK    3  A    between atoms: N_4  and  C_5 
REMARK    4  A    between atoms: C_7  and  N_8 
REMARK    5  A    between atoms: N_8  and  C_9 
REMARK    6  A    between atoms: C_9  and  C_10 
REMARK    7  A    between atoms: C_10  and  C_11 
REMARK    8  A    between atoms: C_12  and  O_13 
ROOT
HETATM    1  C   UNL     1      -6.297  -0.905 -34.054  1.00  0.00     0.119 A 
HETATM    2  N   UNL     1      -5.394  -0.044 -33.545  1.00  0.00    -0.207 NA
HETATM    3  C   UNL     1      -4.182  -0.521 -33.240  1.00  0.00     0.181 A 
HETATM    4  N   UNL     1      -3.841  -1.796 -33.391  1.00  0.00    -0.330 N 
HETATM    5  H   UNL     1      -2.926  -2.071 -33.059  1.00  0.00     0.168 HD
HETATM    6  C   UNL     1      -4.687  -2.684 -33.921  1.00  0.00     0.048 A 
HETATM    7  C   UNL     1      -5.977  -2.260 -34.293  1.00  0.00     0.031 A 
HETATM    8  C   UNL     1      -4.287  -4.016 -34.105  1.00  0.00     0.030 A 
HETATM    9  C   UNL     1      -5.163  -4.938 -34.675  1.00  0.00     0.002 A 
HETATM   10  C   UNL     1      -6.438  -4.536 -35.063  1.00  0.00     0.001 A 
HETATM   11  C   UNL     1      -6.844  -3.214 -34.877  1.00  0.00     0.017 A 
ENDROOT
BRANCH   3  12
HETATM   12  N   UNL     1      -3.276   0.347 -32.658  1.00  0.00    -0.262 NA
HETATM   13  H   UNL     1      -2.395  -0.175 -32.590  1.00  0.00     0.130 HD
BRANCH  12  14
HETATM   14  C   UNL     1      -3.644   0.971 -31.381  1.00  0.00     0.100 C 
BRANCH  14  15
HETATM   15  C   UNL     1      -3.392   2.485 -31.372  1.00  0.00     0.056 C 
BRANCH  15  16
HETATM   16  C   UNL     1      -4.262   3.379 -32.235  1.00  0.00    -0.024 A 
HETATM   17  C   UNL     1      -3.635   4.178 -33.219  1.00  0.00     0.074 A 
HETATM   18  C   UNL     1      -4.402   5.005 -34.045  1.00  0.00     0.037 A 
HETATM   19  C   UNL     1      -5.787   5.058 -33.898  1.00  0.00     0.003 A 
HETATM   20  C   UNL     1      -6.413   4.289 -32.924  1.00  0.00     0.001 A 
HETATM   21  C   UNL     1      -5.658   3.456 -32.096  1.00  0.00     0.010 A 
BRANCH  17  22
HETATM   22  O   UNL     1      -2.269   4.064 -33.291  1.00  0.00    -0.355 OA
HETATM   23  C   UNL     1      -1.505   5.233 -33.014  1.00  0.00     0.210 C 
ENDBRANCH  17  22
ENDBRANCH  15  16
ENDBRANCH  14  15
ENDBRANCH  12  14
ENDBRANCH   3  12
BRANCH   1  24
HETATM   24  N   UNL     1      -7.571  -0.432 -34.395  1.00  0.00    -0.277 NA
HETATM   25  H   UNL     1      -8.294  -1.064 -34.056  1.00  0.00     0.129 HD
BRANCH  24  26
HETATM   26  C   UNL     1      -7.874   0.958 -34.048  1.00  0.00     0.093 C 
BRANCH  26  27
HETATM   27  C   UNL     1      -8.760   1.004 -32.802  1.00  0.00     0.010 C 
HETATM   28  C   UNL     1      -9.848  -0.061 -32.808  1.00  0.00     0.006 C 
ENDBRANCH  26  27
ENDBRANCH  24  26
ENDBRANCH   1  24
TORSDOF 8
ENDMDL
MODEL 4
REMARK VINA RESULT:      -7.5      4.183      8.109
REMARK  8 active torsions:
REMARK  status: ('A' for Active; 'I' for Inactive)
REMARK    1  A    between atoms: C_2  and  C_3 
REMARK    2  A    between atoms: C_3  and  N_4 
REMARK    3  A    between atoms: N_4  and  C_5 
REMARK    4  A    between atoms: C_7  and  N_8 
REMARK    5  A    between atoms: N_8  and  C_9 
REMARK    6  A    between atoms: C_9  and  C_10 
REMARK    7  A    between atoms: C_10  and  C_11 
REMARK    8  A    between atoms: C_12  and  O_13 
ROOT
HETATM    1  C   UNL     1      -6.256  -1.426 -34.411  1.00  0.00     0.119 A 
HETATM    2  N   UNL     1      -7.354  -0.827 -34.915  1.00  0.00    -0.207 NA
HETATM    3  C   UNL     1      -7.802   0.271 -34.296  1.00  0.00     0.181 A 
HETATM    4  N   UNL     1      -7.235   0.778 -33.206  1.00  0.00    -0.330 N 
HETATM    5  H   UNL     1      -7.696   1.565 -32.772  1.00  0.00     0.168 HD
HETATM    6  C   UNL     1      -6.128   0.242 -32.686  1.00  0.00     0.048 A 
HETATM    7  C   UNL     1      -5.574  -0.904 -33.290  1.00  0.00     0.031 A 
HETATM    8  C   UNL     1      -5.529   0.821 -31.557  1.00  0.00     0.030 A 
HETATM    9  C   UNL     1      -4.363   0.273 -31.025  1.00  0.00     0.002 A 
HETATM   10  C   UNL     1      -3.791  -0.850 -31.615  1.00  0.00     0.001 A 
HETATM   11  C   UNL     1      -4.386  -1.435 -32.735  1.00  0.00     0.017 A 
ENDROOT
BRANCH   3  12
HETATM   12  N   UNL     1      -8.965   0.849 -34.773  1.00  0.00    -0.262 NA
HETATM   13  H   UNL     1      -8.664   1.575 -35.433  1.00  0.00     0.130 HD
BRANCH  12  14
HETATM   14  C   UNL     1      -9.929   1.364 -33.793  1.00  0.00     0.100 C 
BRANCH  14  15
HETATM   15  C   UNL     1     -11.062   2.166 -34.448  1.00  0.00     0.056 C 
BRANCH  15  16
HETATM   16  C   UNL     1     -12.494   1.890 -34.027  1.00  0.00    -0.024 A 
HETATM   17  C   UNL     1     -13.054   2.680 -32.997  1.00  0.00     0.074 A 
HETATM   18  C   UNL     1     -14.375   2.468 -32.589  1.00  0.00     0.037 A 
HETATM   19  C   UNL     1     -15.145   1.471 -33.186  1.00  0.00     0.003 A 
HETATM   20  C   UNL     1     -14.600   0.679 -34.190  1.00  0.00     0.001 A 
HETATM   21  C   UNL     1     -13.284   0.884 -34.607  1.00  0.00     0.010 A 
BRANCH  17  22
HETATM   22  O   UNL     1     -12.224   3.635 -32.465  1.00  0.00    -0.355 OA
HETATM   23  C   UNL     1     -12.655   4.989 -32.549  1.00  0.00     0.210 C 
ENDBRANCH  17  22
ENDBRANCH  15  16
ENDBRANCH  14  15
ENDBRANCH  12  14
ENDBRANCH   3  12
BRANCH   1  24
HETATM   24  N   UNL     1      -5.754  -2.571 -35.045  1.00  0.00    -0.277 NA
HETATM   25  H   UNL     1      -4.777  -2.719 -34.801  1.00  0.00     0.129 HD
BRANCH  24  26
HETATM   26  C   UNL     1      -6.531  -3.802 -34.896  1.00  0.00     0.093 C 
BRANCH  26  27
HETATM   27  C   UNL     1      -5.604  -5.018 -34.964  1.00  0.00     0.010 C 
HETATM   28  C   UNL     1      -4.373  -4.874 -34.081  1.00  0.00     0.006 C 
ENDBRANCH  26  27
ENDBRANCH  24  26
ENDBRANCH   1  24
TORSDOF 8
ENDMDL
MODEL 5
REMARK VINA RESULT:      -7.5      4.099      7.644
REMARK  8 active torsions:
REMARK  status: ('A' for Active; 'I' for Inactive)
REMARK    1  A    between atoms: C_2  and  C_3 
REMARK    2  A    between atoms: C_3  and  N_4 
REMARK    3  A    between atoms: N_4  and  C_5 
REMARK    4  A    between atoms: C_7  and  N_8 
REMARK    5  A    between atoms: N_8  and  C_9 
REMARK    6  A    between atoms: C_9  and  C_10 
REMARK    7  A    between atoms: C_10  and  C_11 
REMARK    8  A    between atoms: C_12  and  O_13 
ROOT
HETATM    1  C   UNL     1      -8.970   2.767 -32.763  1.00  0.00     0.119 A 
HETATM    2  N   UNL     1      -8.198   2.006 -33.563  1.00  0.00    -0.207 NA
HETATM    3  C   UNL     1      -8.809   1.265 -34.495  1.00  0.00     0.181 A 
HETATM    4  N   UNL     1     -10.128   1.227 -34.648  1.00  0.00    -0.330 N 
HETATM    5  H   UNL     1     -10.494   0.577 -35.330  1.00  0.00     0.168 HD
HETATM    6  C   UNL     1     -10.936   1.987 -33.903  1.00  0.00     0.048 A 
HETATM    7  C   UNL     1     -10.373   2.816 -32.913  1.00  0.00     0.031 A 
HETATM    8  C   UNL     1     -12.323   1.955 -34.113  1.00  0.00     0.030 A 
HETATM    9  C   UNL     1     -13.165   2.761 -33.348  1.00  0.00     0.002 A 
HETATM   10  C   UNL     1     -12.628   3.599 -32.374  1.00  0.00     0.001 A 
HETATM   11  C   UNL     1     -11.250   3.629 -32.157  1.00  0.00     0.017 A 
ENDROOT
BRANCH   3  12
HETATM   12  N   UNL     1      -8.023   0.435 -35.274  1.00  0.00    -0.262 NA
HETATM   13  H   UNL     1      -8.531  -0.454 -35.332  1.00  0.00     0.130 HD
BRANCH  12  14
HETATM   14  C   UNL     1      -6.622   0.243 -34.878  1.00  0.00     0.100 C 
BRANCH  14  15
HETATM   15  C   UNL     1      -6.465  -0.795 -33.758  1.00  0.00     0.056 C 
BRANCH  15  16
HETATM   16  C   UNL     1      -6.030  -2.204 -34.119  1.00  0.00    -0.024 A 
HETATM   17  C   UNL     1      -4.688  -2.575 -33.874  1.00  0.00     0.074 A 
HETATM   18  C   UNL     1      -4.250  -3.867 -34.179  1.00  0.00     0.037 A 
HETATM   19  C   UNL     1      -5.129  -4.795 -34.735  1.00  0.00     0.003 A 
HETATM   20  C   UNL     1      -6.447  -4.437 -34.994  1.00  0.00     0.001 A 
HETATM   21  C   UNL     1      -6.896  -3.151 -34.690  1.00  0.00     0.010 A 
BRANCH  17  22
HETATM   22  O   UNL     1      -3.894  -1.597 -33.328  1.00  0.00    -0.355 OA
HETATM   23  C   UNL     1      -3.293  -1.878 -32.068  1.00  0.00     0.210 C 
ENDBRANCH  17  22
ENDBRANCH  15  16
ENDBRANCH  14  15
ENDBRANCH  12  14
ENDBRANCH   3  12
BRANCH   1  24
HETATM   24  N   UNL     1      -8.359   3.565 -31.786  1.00  0.00    -0.277 NA
HETATM   25  H   UNL     1      -8.855   4.448 -31.679  1.00  0.00     0.129 HD
BRANCH  24  26
HETATM   26  C   UNL     1      -8.102   2.939 -30.488  1.00  0.00     0.093 C 
BRANCH  26  27
HETATM   27  C   UNL     1      -6.609   2.639 -30.337  1.00  0.00     0.010 C 
HETATM   28  C   UNL     1      -6.294   1.151 -30.413  1.00  0.00     0.006 C 
ENDBRANCH  26  27
ENDBRANCH  24  26
ENDBRANCH   1  24
TORSDOF 8
ENDMDL
MODEL 6
REMARK VINA RESULT:      -7.5      1.705      2.617
REMARK  8 active torsions:
REMARK  status: ('A' for Active; 'I' for Inactive)
REMARK    1  A    between atoms: C_2  and  C_3 
REMARK    2  A    between atoms: C_3  and  N_4 
REMARK    3  A    between atoms: N_4  and  C_5 
REMARK    4  A    between atoms: C_7  and  N_8 
REMARK    5  A    between atoms: N_8  and  C_9 
REMARK    6  A    between atoms: C_9  and  C_10 
REMARK    7  A    between atoms: C_10  and  C_11 
REMARK    8  A    between atoms: C_12  and  O_13 
ROOT
HETATM    1  C   UNL     1      -6.171   0.971 -33.169  1.00  0.00     0.119 A 
HETATM    2  N   UNL     1      -5.217   1.713 -32.573  1.00  0.00    -0.207 NA
HETATM    3  C   UNL     1      -4.008   1.161 -32.416  1.00  0.00     0.181 A 
HETATM    4  N   UNL     1      -3.717  -0.080 -32.793  1.00  0.00    -0.330 N 
HETATM    5  H   UNL     1      -2.798  -0.428 -32.559  1.00  0.00     0.168 HD
HETATM    6  C   UNL     1      -4.617  -0.845 -33.416  1.00  0.00     0.048 A 
HETATM    7  C   UNL     1      -5.909  -0.332 -33.645  1.00  0.00     0.031 A 
HETATM    8  C   UNL     1      -4.271  -2.137 -33.838  1.00  0.00     0.030 A 
HETATM    9  C   UNL     1      -5.204  -2.930 -34.505  1.00  0.00     0.002 A 
HETATM   10  C   UNL     1      -6.481  -2.437 -34.755  1.00  0.00     0.001 A 
HETATM   11  C   UNL     1      -6.834  -1.154 -34.331  1.00  0.00     0.017 A 
ENDROOT
BRANCH   3  12
HETATM   12  N   UNL     1      -3.047   1.897 -31.747  1.00  0.00    -0.262 NA
HETATM   13  H   UNL     1      -2.779   1.331 -30.934  1.00  0.00     0.130 HD
BRANCH  12  14
HETATM   14  C   UNL     1      -3.377   3.278 -31.370  1.00  0.00     0.100 C 
BRANCH  14  15
HETATM   15  C   UNL     1      -2.645   4.314 -32.233  1.00  0.00     0.056 C 
BRANCH  15  16
HETATM   16  C   UNL     1      -1.670   5.267 -31.568  1.00  0.00    -0.024 A 
HETATM   17  C   UNL     1      -2.188   6.412 -30.920  1.00  0.00     0.074 A 
HETATM   18  C   UNL     1      -1.324   7.308 -30.281  1.00  0.00     0.037 A 
HETATM   19  C   UNL     1       0.052   7.086 -30.289  1.00  0.00     0.003 A 
HETATM   20  C   UNL     1       0.573   5.972 -30.936  1.00  0.00     0.001 A 
HETATM   21  C   UNL     1      -0.279   5.069 -31.573  1.00  0.00     0.010 A 
BRANCH  17  22
HETATM   22  O   UNL     1      -3.553   6.551 -30.964  1.00  0.00    -0.355 OA
HETATM   23  C   UNL     1      -4.063   7.819 -31.364  1.00  0.00     0.210 C 
ENDBRANCH  17  22
ENDBRANCH  15  16
ENDBRANCH  14  15
ENDBRANCH  12  14
ENDBRANCH   3  12
BRANCH   1  24
HETATM   24  N   UNL     1      -7.444   1.526 -33.361  1.00  0.00    -0.277 NA
HETATM   25  H   UNL     1      -7.979   0.979 -34.033  1.00  0.00     0.129 HD
BRANCH  24  26
HETATM   26  C   UNL     1      -8.230   1.808 -32.159  1.00  0.00     0.093 C 
BRANCH  26  27
HETATM   27  C   UNL     1      -9.037   0.571 -31.760  1.00  0.00     0.010 C 
HETATM   28  C   UNL     1      -9.972   0.093 -32.862  1.00  0.00     0.006 C 
ENDBRANCH  26  27
ENDBRANCH  24  26
ENDBRANCH   1  24
TORSDOF 8
ENDMDL
MODEL 7
REMARK VINA RESULT:      -7.4      3.466      7.825
REMARK  8 active torsions:
REMARK  status: ('A' for Active; 'I' for Inactive)
REMARK    1  A    between atoms: C_2  and  C_3 
REMARK    2  A    between atoms: C_3  and  N_4 
REMARK    3  A    between atoms: N_4  and  C_5 
REMARK    4  A    between atoms: C_7  and  N_8 
REMARK    5  A    between atoms: N_8  and  C_9 
REMARK    6  A    between atoms: C_9  and  C_10 
REMARK    7  A    between atoms: C_10  and  C_11 
REMARK    8  A    between atoms: C_12  and  O_13 
ROOT
HETATM    1  C   UNL     1      -5.337   0.060 -32.829  1.00  0.00     0.119 A 
HETATM    2  N   UNL     1      -6.454   0.752 -32.530  1.00  0.00    -0.207 NA
HETATM    3  C   UNL     1      -7.626   0.247 -32.936  1.00  0.00     0.181 A 
HETATM    4  N   UNL     1      -7.733  -0.878 -33.634  1.00  0.00    -0.330 N 
HETATM    5  H   UNL     1      -8.656  -1.132 -33.959  1.00  0.00     0.168 HD
HETATM    6  C   UNL     1      -6.660  -1.617 -33.929  1.00  0.00     0.048 A 
HETATM    7  C   UNL     1      -5.389  -1.172 -33.518  1.00  0.00     0.031 A 
HETATM    8  C   UNL     1      -6.807  -2.821 -34.634  1.00  0.00     0.030 A 
HETATM    9  C   UNL     1      -5.691  -3.603 -34.926  1.00  0.00     0.002 A 
HETATM   10  C   UNL     1      -4.427  -3.188 -34.516  1.00  0.00     0.001 A 
HETATM   11  C   UNL     1      -4.274  -1.988 -33.820  1.00  0.00     0.017 A 
ENDROOT
BRANCH   3  12
HETATM   12  N   UNL     1      -8.767   0.988 -32.685  1.00  0.00    -0.262 NA
HETATM   13  H   UNL     1      -8.706   1.268 -31.700  1.00  0.00     0.130 HD
BRANCH  12  14
HETATM   14  C   UNL     1     -10.065   0.380 -33.004  1.00  0.00     0.100 C 
BRANCH  14  15
HETATM   15  C   UNL     1     -10.911   1.256 -33.939  1.00  0.00     0.056 C 
BRANCH  15  16
HETATM   16  C   UNL     1     -12.408   1.340 -33.710  1.00  0.00    -0.024 A 
HETATM   17  C   UNL     1     -12.921   2.464 -33.023  1.00  0.00     0.074 A 
HETATM   18  C   UNL     1     -14.297   2.587 -32.805  1.00  0.00     0.037 A 
HETATM   19  C   UNL     1     -15.171   1.597 -33.252  1.00  0.00     0.003 A 
HETATM   20  C   UNL     1     -14.677   0.480 -33.915  1.00  0.00     0.001 A 
HETATM   21  C   UNL     1     -13.306   0.349 -34.142  1.00  0.00     0.010 A 
BRANCH  17  22
HETATM   22  O   UNL     1     -11.988   3.386 -32.617  1.00  0.00    -0.355 OA
HETATM   23  C   UNL     1     -12.273   4.119 -31.431  1.00  0.00     0.210 C 
ENDBRANCH  17  22
ENDBRANCH  15  16
ENDBRANCH  14  15
ENDBRANCH  12  14
ENDBRANCH   3  12
BRANCH   1  24
HETATM   24  N   UNL     1      -4.097   0.555 -32.405  1.00  0.00    -0.277 NA
HETATM   25  H   UNL     1      -3.566   0.921 -33.194  1.00  0.00     0.129 HD
BRANCH  24  26
HETATM   26  C   UNL     1      -4.110   1.502 -31.289  1.00  0.00     0.093 C 
BRANCH  26  27
HETATM   27  C   UNL     1      -3.262   2.728 -31.633  1.00  0.00     0.010 C 
HETATM   28  C   UNL     1      -3.987   4.042 -31.374  1.00  0.00     0.006 C 
ENDBRANCH  26  27
ENDBRANCH  24  26
ENDBRANCH   1  24
TORSDOF 8
ENDMDL
MODEL 8
REMARK VINA RESULT:      -7.3      3.061      7.813
REMARK  8 active torsions:
REMARK  status: ('A' for Active; 'I' for Inactive)
REMARK    1  A    between atoms: C_2  and  C_3 
REMARK    2  A    between atoms: C_3  and  N_4 
REMARK    3  A    between atoms: N_4  and  C_5 
REMARK    4  A    between atoms: C_7  and  N_8 
REMARK    5  A    between atoms: N_8  and  C_9 
REMARK    6  A    between atoms: C_9  and  C_10 
REMARK    7  A    between atoms: C_10  and  C_11 
REMARK    8  A    between atoms: C_12  and  O_13 
ROOT
HETATM    1  C   UNL     1      -8.224   4.180 -33.988  1.00  0.00     0.119 A 
HETATM    2  N   UNL     1      -7.556   3.079 -33.590  1.00  0.00    -0.207 NA
HETATM    3  C   UNL     1      -8.217   1.916 -33.590  1.00  0.00     0.181 A 
HETATM    4  N   UNL     1      -9.495   1.803 -33.936  1.00  0.00    -0.330 N 
HETATM    5  H   UNL     1      -9.923   0.894 -33.828  1.00  0.00     0.168 HD
HETATM    6  C   UNL     1     -10.193   2.857 -34.369  1.00  0.00     0.048 A 
HETATM    7  C   UNL     1      -9.566   4.117 -34.424  1.00  0.00     0.031 A 
HETATM    8  C   UNL     1     -11.530   2.701 -34.765  1.00  0.00     0.030 A 
HETATM    9  C   UNL     1     -12.253   3.796 -35.235  1.00  0.00     0.002 A 
HETATM   10  C   UNL     1     -11.648   5.047 -35.311  1.00  0.00     0.001 A 
HETATM   11  C   UNL     1     -10.320   5.210 -34.912  1.00  0.00     0.017 A 
ENDROOT
BRANCH   3  12
HETATM   12  N   UNL     1      -7.552   0.798 -33.120  1.00  0.00    -0.262 NA
HETATM   13  H   UNL     1      -6.560   0.957 -33.327  1.00  0.00     0.130 HD
BRANCH  12  14
HETATM   14  C   UNL     1      -8.006  -0.518 -33.587  1.00  0.00     0.100 C 
BRANCH  14  15
HETATM   15  C   UNL     1      -7.198  -1.027 -34.788  1.00  0.00     0.056 C 
BRANCH  15  16
HETATM   16  C   UNL     1      -6.315  -2.248 -34.615  1.00  0.00    -0.024 A 
HETATM   17  C   UNL     1      -5.006  -2.064 -34.112  1.00  0.00     0.074 A 
HETATM   18  C   UNL     1      -4.165  -3.165 -33.923  1.00  0.00     0.037 A 
HETATM   19  C   UNL     1      -4.605  -4.449 -34.239  1.00  0.00     0.003 A 
HETATM   20  C   UNL     1      -5.884  -4.641 -34.749  1.00  0.00     0.001 A 
HETATM   21  C   UNL     1      -6.734  -3.550 -34.937  1.00  0.00     0.010 A 
BRANCH  17  22
HETATM   22  O   UNL     1      -4.658  -0.766 -33.830  1.00  0.00    -0.355 OA
HETATM   23  C   UNL     1      -3.500  -0.565 -33.026  1.00  0.00     0.210 C 
ENDBRANCH  17  22
ENDBRANCH  15  16
ENDBRANCH  14  15
ENDBRANCH  12  14
ENDBRANCH   3  12
BRANCH   1  24
HETATM   24  N   UNL     1      -7.554   5.411 -34.012  1.00  0.00    -0.277 NA
HETATM   25  H   UNL     1      -8.134   6.129 -34.443  1.00  0.00     0.129 HD
BRANCH  24  26
HETATM   26  C   UNL     1      -6.983   5.877 -32.748  1.00  0.00     0.093 C 
BRANCH  26  27
HETATM   27  C   UNL     1      -5.484   6.135 -32.913  1.00  0.00     0.010 C 
HETATM   28  C   UNL     1      -4.640   4.888 -32.690  1.00  0.00     0.006 C 
ENDBRANCH  26  27
ENDBRANCH  24  26
ENDBRANCH   1  24
TORSDOF 8
ENDMDL
MODEL 9
REMARK VINA RESULT:      -7.2      1.469      1.993
REMARK  8 active torsions:
REMARK  status: ('A' for Active; 'I' for Inactive)
REMARK    1  A    between atoms: C_2  and  C_3 
REMARK    2  A    between atoms: C_3  and  N_4 
REMARK    3  A    between atoms: N_4  and  C_5 
REMARK    4  A    between atoms: C_7  and  N_8 
REMARK    5  A    between atoms: N_8  and  C_9 
REMARK    6  A    between atoms: C_9  and  C_10 
REMARK    7  A    between atoms: C_10  and  C_11 
REMARK    8  A    between atoms: C_12  and  O_13 
ROOT
HETATM    1  C   UNL     1      -6.751   0.774 -34.223  1.00  0.00     0.119 A 
HETATM    2  N   UNL     1      -6.235   1.829 -33.563  1.00  0.00    -0.207 NA
HETATM    3  C   UNL     1      -5.093   1.644 -32.891  1.00  0.00     0.181 A 
HETATM    4  N   UNL     1      -4.467   0.474 -32.824  1.00  0.00    -0.330 N 
HETATM    5  H   UNL     1      -3.654   0.421 -32.227  1.00  0.00     0.168 HD
HETATM    6  C   UNL     1      -4.919  -0.594 -33.487  1.00  0.00     0.048 A 
HETATM    7  C   UNL     1      -6.104  -0.481 -34.240  1.00  0.00     0.031 A 
HETATM    8  C   UNL     1      -4.216  -1.808 -33.430  1.00  0.00     0.030 A 
HETATM    9  C   UNL     1      -4.678  -2.918 -34.135  1.00  0.00     0.002 A 
HETATM   10  C   UNL     1      -5.838  -2.823 -34.898  1.00  0.00     0.001 A 
HETATM   11  C   UNL     1      -6.545  -1.620 -34.953  1.00  0.00     0.017 A 
ENDROOT
BRANCH   3  12
HETATM   12  N   UNL     1      -4.596   2.709 -32.160  1.00  0.00    -0.262 NA
HETATM   13  H   UNL     1      -5.404   3.112 -31.673  1.00  0.00     0.130 HD
BRANCH  12  14
HETATM   14  C   UNL     1      -3.819   3.729 -32.875  1.00  0.00     0.100 C 
BRANCH  14  15
HETATM   15  C   UNL     1      -2.516   4.091 -32.149  1.00  0.00     0.056 C 
BRANCH  15  16
HETATM   16  C   UNL     1      -2.242   5.545 -31.814  1.00  0.00    -0.024 A 
HETATM   17  C   UNL     1      -1.134   5.847 -30.988  1.00  0.00     0.074 A 
HETATM   18  C   UNL     1      -0.838   7.175 -30.668  1.00  0.00     0.037 A 
HETATM   19  C   UNL     1      -1.637   8.211 -31.150  1.00  0.00     0.003 A 
HETATM   20  C   UNL     1      -2.736   7.926 -31.951  1.00  0.00     0.001 A 
HETATM   21  C   UNL     1      -3.040   6.604 -32.280  1.00  0.00     0.010 A 
BRANCH  17  22
HETATM   22  O   UNL     1      -0.406   4.765 -30.558  1.00  0.00    -0.355 OA
HETATM   23  C   UNL     1       1.009   4.840 -30.695  1.00  0.00     0.210 C 
ENDBRANCH  17  22
ENDBRANCH  15  16
ENDBRANCH  14  15
ENDBRANCH  12  14
ENDBRANCH   3  12
BRANCH   1  24
HETATM   24  N   UNL     1      -7.939   0.940 -34.948  1.00  0.00    -0.277 NA
HETATM   25  H   UNL     1      -8.168   0.093 -35.466  1.00  0.00     0.129 HD
BRANCH  24  26
HETATM   26  C   UNL     1      -9.100   1.440 -34.209  1.00  0.00     0.093 C 
BRANCH  26  27
HETATM   27  C   UNL     1      -9.677   0.330 -33.328  1.00  0.00     0.010 C 
HETATM   28  C   UNL     1      -9.292   0.478 -31.862  1.00  0.00     0.006 C 
ENDBRANCH  26  27
ENDBRANCH  24  26
ENDBRANCH   1  24
TORSDOF 8
ENDMDL
MODEL 10
REMARK VINA RESULT:      -7.2     14.789     16.339
REMARK  8 active torsions:
REMARK  status: ('A' for Active; 'I' for Inactive)
REMARK    1  A    between atoms: C_2  and  C_3 
REMARK    2  A    between atoms: C_3  and  N_4 
REMARK    3  A    between atoms: N_4  and  C_5 
REMARK    4  A    between atoms: C_7  and  N_8 
REMARK    5  A    between atoms: N_8  and  C_9 
REMARK    6  A    between atoms: C_9  and  C_10 
REMARK    7  A    between atoms: C_10  and  C_11 
REMARK    8  A    between atoms: C_12  and  O_13 
ROOT
HETATM    1  C   UNL     1      -5.628 -12.697 -40.693  1.00  0.00     0.119 A 
HETATM    2  N   UNL     1      -5.105 -12.212 -39.550  1.00  0.00    -0.207 NA
HETATM    3  C   UNL     1      -3.854 -12.571 -39.237  1.00  0.00     0.181 A 
HETATM    4  N   UNL     1      -3.123 -13.395 -39.981  1.00  0.00    -0.330 N 
HETATM    5  H   UNL     1      -2.220 -13.664 -39.618  1.00  0.00     0.168 HD
HETATM    6  C   UNL     1      -3.583 -13.876 -41.139  1.00  0.00     0.048 A 
HETATM    7  C   UNL     1      -4.882 -13.529 -41.557  1.00  0.00     0.031 A 
HETATM    8  C   UNL     1      -2.775 -14.713 -41.924  1.00  0.00     0.030 A 
HETATM    9  C   UNL     1      -3.247 -15.202 -43.141  1.00  0.00     0.002 A 
HETATM   10  C   UNL     1      -4.522 -14.859 -43.580  1.00  0.00     0.001 A 
HETATM   11  C   UNL     1      -5.334 -14.032 -42.800  1.00  0.00     0.017 A 
ENDROOT
BRANCH   3  12
HETATM   12  N   UNL     1      -3.339 -12.127 -38.033  1.00  0.00    -0.262 NA
HETATM   13  H   UNL     1      -2.667 -11.390 -38.273  1.00  0.00     0.130 HD
BRANCH  12  14
HETATM   14  C   UNL     1      -2.760 -13.123 -37.123  1.00  0.00     0.100 C 
BRANCH  14  15
HETATM   15  C   UNL     1      -3.772 -14.198 -36.707  1.00  0.00     0.056 C 
BRANCH  15  16
HETATM   16  C   UNL     1      -4.948 -13.800 -35.833  1.00  0.00    -0.024 A 
HETATM   17  C   UNL     1      -6.255 -14.009 -36.331  1.00  0.00     0.074 A 
HETATM   18  C   UNL     1      -7.365 -13.670 -35.552  1.00  0.00     0.037 A 
HETATM   19  C   UNL     1      -7.193 -13.114 -34.285  1.00  0.00     0.003 A 
HETATM   20  C   UNL     1      -5.913 -12.890 -33.792  1.00  0.00     0.001 A 
HETATM   21  C   UNL     1      -4.797 -13.228 -34.559  1.00  0.00     0.010 A 
BRANCH  17  22
HETATM   22  O   UNL     1      -6.329 -14.559 -37.587  1.00  0.00    -0.355 OA
HETATM   23  C   UNL     1      -7.066 -15.769 -37.723  1.00  0.00     0.210 C 
ENDBRANCH  17  22
ENDBRANCH  15  16
ENDBRANCH  14  15
ENDBRANCH  12  14
ENDBRANCH   3  12
BRANCH   1  24
HETATM   24  N   UNL     1      -6.931 -12.328 -41.055  1.00  0.00    -0.277 NA
HETATM   25  H   UNL     1      -7.038 -12.330 -42.068  1.00  0.00     0.129 HD
BRANCH  24  26
HETATM   26  C   UNL     1      -8.026 -13.048 -40.404  1.00  0.00     0.093 C 
BRANCH  26  27
HETATM   27  C   UNL     1      -9.236 -12.125 -40.243  1.00  0.00     0.010 C 
HETATM   28  C   UNL     1     -10.492 -12.865 -39.804  1.00  0.00     0.006 C 
ENDBRANCH  26  27
ENDBRANCH  24  26
ENDBRANCH   1  24
TORSDOF 8
ENDMDL
