MODEL 1
REMARK VINA RESULT:      -8.9      0.000      0.000
REMARK  9 active torsions:
REMARK  status: ('A' for Active; 'I' for Inactive)
REMARK    1  A    between atoms: C_4  and  C_5 
REMARK    2  A    between atoms: C_8  and  C_9 
REMARK       I    between atoms: C_9  and  N_10 
REMARK    3  A    between atoms: N_10  and  C_26 
REMARK    4  A    between atoms: N_10  and  C_11 
REMARK    5  A    between atoms: C_11  and  C_12 
REMARK    6  A    between atoms: C_11  and  C_21 
REMARK       I    between atoms: C_12  and  N_13 
REMARK    7  A    between atoms: N_13  and  C_14 
REMARK    8  A    between atoms: C_14  and  C_15 
REMARK    9  A    between atoms: C_26  and  C_27 
ROOT
HETATM    1  C   UNL     1      -6.021   1.753 -31.254  1.00  0.00     0.271 C 
HETATM    2  N   UNL     1      -6.623   2.859 -31.865  1.00  0.00    -0.324 N 
HETATM    3  O   UNL     1      -6.097   1.598 -30.035  1.00  0.00    -0.266 OA
ENDROOT
BRANCH   2   4
HETATM    4  C   UNL     1      -6.961   3.983 -30.979  1.00  0.00     0.173 C 
BRANCH   4   5
HETATM    5  C   UNL     1      -8.437   4.180 -30.839  1.00  0.00     0.000 A 
HETATM    6  S   UNL     1      -9.141   5.722 -31.104  1.00  0.00    -0.105 SA
HETATM    7  C   UNL     1     -10.712   5.134 -30.777  1.00  0.00     0.050 A 
HETATM    8  C   UNL     1     -10.703   3.801 -30.434  1.00  0.00     0.008 A 
HETATM    9  C   UNL     1      -9.388   3.254 -30.454  1.00  0.00     0.017 A 
ENDBRANCH   4   5
ENDBRANCH   2   4
BRANCH   2  10
HETATM   10  C   UNL     1      -6.818   3.002 -33.331  1.00  0.00     0.220 C 
BRANCH  10  11
HETATM   11  C   UNL     1      -6.131   4.299 -33.805  1.00  0.00     0.245 C 
HETATM   12  N   UNL     1      -4.765   4.246 -34.003  1.00  0.00    -0.357 N 
HETATM   13  H   UNL     1      -4.256   3.472 -33.587  1.00  0.00     0.162 HD
HETATM   14  O   UNL     1      -6.822   5.253 -34.177  1.00  0.00    -0.271 OA
BRANCH  12  15
HETATM   15  C   UNL     1      -3.999   5.378 -34.494  1.00  0.00     0.154 C 
BRANCH  15  16
HETATM   16  C   UNL     1      -2.490   5.081 -34.557  1.00  0.00     0.139 C 
HETATM   17  O   UNL     1      -2.127   4.138 -33.534  1.00  0.00    -0.384 OA
HETATM   18  C   UNL     1      -1.556   4.850 -32.427  1.00  0.00     0.168 C 
HETATM   19  C   UNL     1      -1.575   6.325 -32.770  1.00  0.00     0.029 C 
HETATM   20  C   UNL     1      -1.649   6.316 -34.277  1.00  0.00     0.035 C 
ENDBRANCH  15  16
ENDBRANCH  12  15
ENDBRANCH  10  11
BRANCH  10  21
HETATM   21  C   UNL     1      -8.235   2.713 -33.784  1.00  0.00     0.014 A 
HETATM   22  S   UNL     1      -8.963   1.161 -33.639  1.00  0.00    -0.104 SA
HETATM   23  C   UNL     1     -10.472   1.722 -34.201  1.00  0.00     0.050 A 
HETATM   24  C   UNL     1     -10.456   3.075 -34.450  1.00  0.00     0.008 A 
HETATM   25  C   UNL     1      -9.181   3.646 -34.187  1.00  0.00     0.017 A 
ENDBRANCH  10  21
ENDBRANCH   2  10
BRANCH   1  26
HETATM   26  C   UNL     1      -5.326   0.773 -32.066  1.00  0.00     0.101 C 
HETATM   27  N   UNL     1      -5.894  -0.262 -32.784  1.00  0.00    -0.351 N 
HETATM   28  C   UNL     1      -4.913  -1.076 -33.313  1.00  0.00     0.043 C 
HETATM   29  H   UNL     1      -6.889  -0.453 -32.842  1.00  0.00     0.166 HD
HETATM   30  C   UNL     1      -3.717  -0.401 -33.144  1.00  0.00     0.033 C 
HETATM   31  C   UNL     1      -3.978   0.760 -32.382  1.00  0.00     0.037 C 
BRANCH  28  32
HETATM   32  C   UNL     1      -5.188  -2.380 -33.916  1.00  0.00    -0.009 A 
HETATM   33  C   UNL     1      -4.235  -3.405 -33.862  1.00  0.00     0.013 A 
HETATM   34  C   UNL     1      -4.519  -4.672 -34.378  1.00  0.00     0.001 A 
HETATM   35  C   UNL     1      -5.764  -4.930 -34.947  1.00  0.00     0.000 A 
HETATM   36  C   UNL     1      -6.722  -3.920 -35.009  1.00  0.00     0.001 A 
HETATM   37  C   UNL     1      -6.434  -2.651 -34.501  1.00  0.00     0.013 A 
ENDBRANCH  28  32
ENDBRANCH   1  26
TORSDOF 9
ENDMDL
MODEL 2
REMARK VINA RESULT:      -8.7      1.177      1.903
REMARK  9 active torsions:
REMARK  status: ('A' for Active; 'I' for Inactive)
REMARK    1  A    between atoms: C_4  and  C_5 
REMARK    2  A    between atoms: C_8  and  C_9 
REMARK       I    between atoms: C_9  and  N_10 
REMARK    3  A    between atoms: N_10  and  C_26 
REMARK    4  A    between atoms: N_10  and  C_11 
REMARK    5  A    between atoms: C_11  and  C_12 
REMARK    6  A    between atoms: C_11  and  C_21 
REMARK       I    between atoms: C_12  and  N_13 
REMARK    7  A    between atoms: N_13  and  C_14 
REMARK    8  A    between atoms: C_14  and  C_15 
REMARK    9  A    between atoms: C_26  and  C_27 
ROOT
HETATM    1  C   UNL     1      -6.644   1.524 -31.318  1.00  0.00     0.271 C 
HETATM    2  N   UNL     1      -7.314   2.596 -31.917  1.00  0.00    -0.324 N 
HETATM    3  O   UNL     1      -6.763   1.312 -30.111  1.00  0.00    -0.266 OA
ENDROOT
BRANCH   2   4
HETATM    4  C   UNL     1      -7.792   3.649 -31.009  1.00  0.00     0.173 C 
BRANCH   4   5
HETATM    5  C   UNL     1      -6.741   4.672 -30.712  1.00  0.00     0.000 A 
HETATM    6  S   UNL     1      -7.061   6.343 -30.937  1.00  0.00    -0.105 SA
HETATM    7  C   UNL     1      -5.494   6.780 -30.417  1.00  0.00     0.050 A 
HETATM    8  C   UNL     1      -4.724   5.680 -30.115  1.00  0.00     0.008 A 
HETATM    9  C   UNL     1      -5.438   4.462 -30.301  1.00  0.00     0.017 A 
ENDBRANCH   4   5
ENDBRANCH   2   4
BRANCH   2  10
HETATM   10  C   UNL     1      -7.452   2.782 -33.385  1.00  0.00     0.220 C 
BRANCH  10  11
HETATM   11  C   UNL     1      -6.683   4.051 -33.806  1.00  0.00     0.245 C 
HETATM   12  N   UNL     1      -5.307   3.953 -33.873  1.00  0.00    -0.357 N 
HETATM   13  H   UNL     1      -4.864   3.169 -33.403  1.00  0.00     0.162 HD
HETATM   14  O   UNL     1      -7.305   5.021 -34.251  1.00  0.00    -0.271 OA
BRANCH  12  15
HETATM   15  C   UNL     1      -4.462   5.054 -34.302  1.00  0.00     0.154 C 
BRANCH  15  16
HETATM   16  C   UNL     1      -3.295   5.308 -33.332  1.00  0.00     0.139 C 
HETATM   17  O   UNL     1      -2.917   6.696 -33.363  1.00  0.00    -0.384 OA
HETATM   18  C   UNL     1      -1.758   6.843 -34.197  1.00  0.00     0.168 C 
HETATM   19  C   UNL     1      -1.397   5.471 -34.730  1.00  0.00     0.029 C 
HETATM   20  C   UNL     1      -2.041   4.545 -33.728  1.00  0.00     0.035 C 
ENDBRANCH  15  16
ENDBRANCH  12  15
ENDBRANCH  10  11
BRANCH  10  21
HETATM   21  C   UNL     1      -8.868   2.580 -33.889  1.00  0.00     0.014 A 
HETATM   22  S   UNL     1      -9.678   1.065 -33.809  1.00  0.00    -0.104 SA
HETATM   23  C   UNL     1     -11.137   1.719 -34.403  1.00  0.00     0.050 A 
HETATM   24  C   UNL     1     -11.044   3.075 -34.615  1.00  0.00     0.008 A 
HETATM   25  C   UNL     1      -9.750   3.571 -34.296  1.00  0.00     0.017 A 
ENDBRANCH  10  21
ENDBRANCH   2  10
BRANCH   1  26
HETATM   26  C   UNL     1      -5.827   0.643 -32.130  1.00  0.00     0.101 C 
HETATM   27  N   UNL     1      -6.254  -0.457 -32.849  1.00  0.00    -0.351 N 
HETATM   28  C   UNL     1      -5.176  -1.136 -33.377  1.00  0.00     0.043 C 
HETATM   29  H   UNL     1      -7.217  -0.777 -32.907  1.00  0.00     0.166 HD
HETATM   30  C   UNL     1      -4.078  -0.311 -33.209  1.00  0.00     0.033 C 
HETATM   31  C   UNL     1      -4.489   0.806 -32.446  1.00  0.00     0.037 C 
BRANCH  28  32
HETATM   32  C   UNL     1      -5.278  -2.465 -33.980  1.00  0.00    -0.009 A 
HETATM   33  C   UNL     1      -4.248  -3.401 -33.820  1.00  0.00     0.013 A 
HETATM   34  C   UNL     1      -4.370  -4.692 -34.339  1.00  0.00     0.001 A 
HETATM   35  C   UNL     1      -5.530  -5.066 -35.016  1.00  0.00     0.000 A 
HETATM   36  C   UNL     1      -6.561  -4.145 -35.185  1.00  0.00     0.001 A 
HETATM   37  C   UNL     1      -6.435  -2.851 -34.674  1.00  0.00     0.013 A 
ENDBRANCH  28  32
ENDBRANCH   1  26
TORSDOF 9
ENDMDL
MODEL 3
REMARK VINA RESULT:      -8.5      1.724      2.308
REMARK  9 active torsions:
REMARK  status: ('A' for Active; 'I' for Inactive)
REMARK    1  A    between atoms: C_4  and  C_5 
REMARK    2  A    between atoms: C_8  and  C_9 
REMARK       I    between atoms: C_9  and  N_10 
REMARK    3  A    between atoms: N_10  and  C_26 
REMARK    4  A    between atoms: N_10  and  C_11 
REMARK    5  A    between atoms: C_11  and  C_12 
REMARK    6  A    between atoms: C_11  and  C_21 
REMARK       I    between atoms: C_12  and  N_13 
REMARK    7  A    between atoms: N_13  and  C_14 
REMARK    8  A    between atoms: C_14  and  C_15 
REMARK    9  A    between atoms: C_26  and  C_27 
ROOT
HETATM    1  C   UNL     1      -5.301   1.508 -30.658  1.00  0.00     0.271 C 
HETATM    2  N   UNL     1      -5.348   2.872 -30.966  1.00  0.00    -0.324 N 
HETATM    3  O   UNL     1      -5.735   1.098 -29.581  1.00  0.00    -0.266 OA
ENDROOT
BRANCH   2   4
HETATM    4  C   UNL     1      -5.534   3.786 -29.829  1.00  0.00     0.173 C 
BRANCH   4   5
HETATM    5  C   UNL     1      -6.847   4.502 -29.878  1.00  0.00     0.000 A 
HETATM    6  S   UNL     1      -8.318   3.621 -29.956  1.00  0.00    -0.105 SA
HETATM    7  C   UNL     1      -9.250   5.053 -29.973  1.00  0.00     0.050 A 
HETATM    8  C   UNL     1      -8.463   6.182 -29.960  1.00  0.00     0.008 A 
HETATM    9  C   UNL     1      -7.075   5.864 -29.921  1.00  0.00     0.017 A 
ENDBRANCH   4   5
ENDBRANCH   2   4
BRANCH   2  10
HETATM   10  C   UNL     1      -5.102   3.433 -32.320  1.00  0.00     0.220 C 
BRANCH  10  11
HETATM   11  C   UNL     1      -3.967   4.476 -32.233  1.00  0.00     0.245 C 
HETATM   12  N   UNL     1      -2.676   4.004 -32.366  1.00  0.00    -0.357 N 
HETATM   13  H   UNL     1      -2.521   3.008 -32.246  1.00  0.00     0.162 HD
HETATM   14  O   UNL     1      -4.243   5.679 -32.253  1.00  0.00    -0.271 OA
BRANCH  12  15
HETATM   15  C   UNL     1      -1.517   4.880 -32.354  1.00  0.00     0.154 C 
BRANCH  15  16
HETATM   16  C   UNL     1      -0.924   5.046 -30.943  1.00  0.00     0.139 C 
HETATM   17  O   UNL     1      -1.540   6.160 -30.273  1.00  0.00    -0.384 OA
HETATM   18  C   UNL     1      -0.666   7.295 -30.362  1.00  0.00     0.168 C 
HETATM   19  C   UNL     1       0.561   6.872 -31.143  1.00  0.00     0.029 C 
HETATM   20  C   UNL     1       0.561   5.373 -30.977  1.00  0.00     0.035 C 
ENDBRANCH  15  16
ENDBRANCH  12  15
ENDBRANCH  10  11
BRANCH  10  21
HETATM   21  C   UNL     1      -6.372   3.791 -33.067  1.00  0.00     0.014 A 
HETATM   22  S   UNL     1      -7.583   2.632 -33.452  1.00  0.00    -0.104 SA
HETATM   23  C   UNL     1      -8.627   3.815 -34.100  1.00  0.00     0.050 A 
HETATM   24  C   UNL     1      -8.103   5.081 -33.986  1.00  0.00     0.008 A 
HETATM   25  C   UNL     1      -6.820   5.068 -33.371  1.00  0.00     0.017 A 
ENDBRANCH  10  21
ENDBRANCH   2  10
BRANCH   1  26
HETATM   26  C   UNL     1      -4.763   0.571 -31.625  1.00  0.00     0.101 C 
HETATM   27  N   UNL     1      -5.476  -0.323 -32.401  1.00  0.00    -0.351 N 
HETATM   28  C   UNL     1      -4.617  -1.152 -33.092  1.00  0.00     0.043 C 
HETATM   29  H   UNL     1      -6.486  -0.420 -32.397  1.00  0.00     0.166 HD
HETATM   30  C   UNL     1      -3.354  -0.606 -32.952  1.00  0.00     0.033 C 
HETATM   31  C   UNL     1      -3.448   0.479 -32.051  1.00  0.00     0.037 C 
BRANCH  28  32
HETATM   32  C   UNL     1      -5.057  -2.351 -33.807  1.00  0.00    -0.009 A 
HETATM   33  C   UNL     1      -4.237  -3.484 -33.868  1.00  0.00     0.013 A 
HETATM   34  C   UNL     1      -4.680  -4.653 -34.492  1.00  0.00     0.001 A 
HETATM   35  C   UNL     1      -5.953  -4.704 -35.056  1.00  0.00     0.000 A 
HETATM   36  C   UNL     1      -6.779  -3.583 -35.004  1.00  0.00     0.001 A 
HETATM   37  C   UNL     1      -6.332  -2.412 -34.387  1.00  0.00     0.013 A 
ENDBRANCH  28  32
ENDBRANCH   1  26
TORSDOF 9
ENDMDL
MODEL 4
REMARK VINA RESULT:      -8.2      1.870      3.127
REMARK  9 active torsions:
REMARK  status: ('A' for Active; 'I' for Inactive)
REMARK    1  A    between atoms: C_4  and  C_5 
REMARK    2  A    between atoms: C_8  and  C_9 
REMARK       I    between atoms: C_9  and  N_10 
REMARK    3  A    between atoms: N_10  and  C_26 
REMARK    4  A    between atoms: N_10  and  C_11 
REMARK    5  A    between atoms: C_11  and  C_12 
REMARK    6  A    between atoms: C_11  and  C_21 
REMARK       I    between atoms: C_12  and  N_13 
REMARK    7  A    between atoms: N_13  and  C_14 
REMARK    8  A    between atoms: C_14  and  C_15 
REMARK    9  A    between atoms: C_26  and  C_27 
ROOT
HETATM    1  C   UNL     1      -9.191   1.336 -32.795  1.00  0.00     0.271 C 
HETATM    2  N   UNL     1      -8.641   2.164 -31.810  1.00  0.00    -0.324 N 
HETATM    3  O   UNL     1     -10.413   1.243 -32.918  1.00  0.00    -0.266 OA
ENDROOT
BRANCH   2   4
HETATM    4  C   UNL     1      -9.543   2.557 -30.717  1.00  0.00     0.173 C 
BRANCH   4   5
HETATM    5  C   UNL     1      -9.864   4.018 -30.734  1.00  0.00     0.000 A 
HETATM    6  S   UNL     1     -11.082   4.632 -31.775  1.00  0.00    -0.105 SA
HETATM    7  C   UNL     1     -10.840   6.231 -31.223  1.00  0.00     0.050 A 
HETATM    8  C   UNL     1      -9.827   6.309 -30.295  1.00  0.00     0.008 A 
HETATM    9  C   UNL     1      -9.252   5.034 -30.024  1.00  0.00     0.017 A 
ENDBRANCH   4   5
ENDBRANCH   2   4
BRANCH   2  10
HETATM   10  C   UNL     1      -7.208   2.552 -31.748  1.00  0.00     0.220 C 
BRANCH  10  11
HETATM   11  C   UNL     1      -6.916   3.579 -32.861  1.00  0.00     0.245 C 
HETATM   12  N   UNL     1      -5.618   3.641 -33.327  1.00  0.00    -0.357 N 
HETATM   13  H   UNL     1      -4.889   3.223 -32.756  1.00  0.00     0.162 HD
HETATM   14  O   UNL     1      -7.855   4.150 -33.426  1.00  0.00    -0.271 OA
BRANCH  12  15
HETATM   15  C   UNL     1      -5.213   4.527 -34.405  1.00  0.00     0.154 C 
BRANCH  15  16
HETATM   16  C   UNL     1      -4.196   5.586 -33.943  1.00  0.00     0.139 C 
HETATM   17  O   UNL     1      -3.293   5.909 -35.014  1.00  0.00    -0.384 OA
HETATM   18  C   UNL     1      -2.065   5.193 -34.818  1.00  0.00     0.168 C 
HETATM   19  C   UNL     1      -2.212   4.364 -33.559  1.00  0.00     0.029 C 
HETATM   20  C   UNL     1      -3.311   5.081 -32.814  1.00  0.00     0.035 C 
ENDBRANCH  15  16
ENDBRANCH  12  15
ENDBRANCH  10  11
BRANCH  10  21
HETATM   21  C   UNL     1      -6.270   1.374 -31.571  1.00  0.00     0.014 A 
HETATM   22  S   UNL     1      -4.752   1.264 -32.372  1.00  0.00    -0.104 SA
HETATM   23  C   UNL     1      -4.333  -0.176 -31.558  1.00  0.00     0.050 A 
HETATM   24  C   UNL     1      -5.295  -0.552 -30.651  1.00  0.00     0.008 A 
HETATM   25  C   UNL     1      -6.394   0.351 -30.641  1.00  0.00     0.017 A 
ENDBRANCH  10  21
ENDBRANCH   2  10
BRANCH   1  26
HETATM   26  C   UNL     1      -8.316   0.606 -33.691  1.00  0.00     0.101 C 
HETATM   27  N   UNL     1      -7.949  -0.723 -33.594  1.00  0.00    -0.351 N 
HETATM   28  C   UNL     1      -6.989  -1.027 -34.536  1.00  0.00     0.043 C 
HETATM   29  H   UNL     1      -8.271  -1.364 -32.876  1.00  0.00     0.166 HD
HETATM   30  C   UNL     1      -6.940   0.050 -35.403  1.00  0.00     0.033 C 
HETATM   31  C   UNL     1      -7.781   1.062 -34.885  1.00  0.00     0.037 C 
BRANCH  28  32
HETATM   32  C   UNL     1      -6.228  -2.277 -34.535  1.00  0.00    -0.009 A 
HETATM   33  C   UNL     1      -4.877  -2.287 -34.167  1.00  0.00     0.013 A 
HETATM   34  C   UNL     1      -4.164  -3.486 -34.101  1.00  0.00     0.001 A 
HETATM   35  C   UNL     1      -4.798  -4.692 -34.393  1.00  0.00     0.000 A 
HETATM   36  C   UNL     1      -6.142  -4.697 -34.762  1.00  0.00     0.001 A 
HETATM   37  C   UNL     1      -6.852  -3.496 -34.836  1.00  0.00     0.013 A 
ENDBRANCH  28  32
ENDBRANCH   1  26
TORSDOF 9
ENDMDL
MODEL 5
REMARK VINA RESULT:      -8.1      1.999      4.813
REMARK  9 active torsions:
REMARK  status: ('A' for Active; 'I' for Inactive)
REMARK    1  A    between atoms: C_4  and  C_5 
REMARK    2  A    between atoms: C_8  and  C_9 
REMARK       I    between atoms: C_9  and  N_10 
REMARK    3  A    between atoms: N_10  and  C_26 
REMARK    4  A    between atoms: N_10  and  C_11 
REMARK    5  A    between atoms: C_11  and  C_12 
REMARK    6  A    between atoms: C_11  and  C_21 
REMARK       I    between atoms: C_12  and  N_13 
REMARK    7  A    between atoms: N_13  and  C_14 
REMARK    8  A    between atoms: C_14  and  C_15 
REMARK    9  A    between atoms: C_26  and  C_27 
ROOT
HETATM    1  C   UNL     1      -5.297   2.805 -30.872  1.00  0.00     0.271 C 
HETATM    2  N   UNL     1      -5.521   4.080 -31.403  1.00  0.00    -0.324 N 
HETATM    3  O   UNL     1      -5.545   2.571 -29.689  1.00  0.00    -0.266 OA
ENDROOT
BRANCH   2   4
HETATM    4  C   UNL     1      -5.652   5.173 -30.427  1.00  0.00     0.173 C 
BRANCH   4   5
HETATM    5  C   UNL     1      -7.003   5.817 -30.465  1.00  0.00     0.000 A 
HETATM    6  S   UNL     1      -8.380   4.990 -29.862  1.00  0.00    -0.105 SA
HETATM    7  C   UNL     1      -9.412   6.299 -30.240  1.00  0.00     0.050 A 
HETATM    8  C   UNL     1      -8.735   7.330 -30.850  1.00  0.00     0.008 A 
HETATM    9  C   UNL     1      -7.347   7.046 -30.995  1.00  0.00     0.017 A 
ENDBRANCH   4   5
ENDBRANCH   2   4
BRANCH   2  10
HETATM   10  C   UNL     1      -5.510   4.396 -32.854  1.00  0.00     0.220 C 
BRANCH  10  11
HETATM   11  C   UNL     1      -6.488   3.452 -33.583  1.00  0.00     0.245 C 
HETATM   12  N   UNL     1      -7.826   3.571 -33.260  1.00  0.00    -0.357 N 
HETATM   13  H   UNL     1      -8.065   4.059 -32.403  1.00  0.00     0.162 HD
HETATM   14  O   UNL     1      -6.091   2.785 -34.544  1.00  0.00    -0.271 OA
BRANCH  12  15
HETATM   15  C   UNL     1      -8.861   2.780 -33.904  1.00  0.00     0.154 C 
BRANCH  15  16
HETATM   16  C   UNL     1      -9.923   2.284 -32.907  1.00  0.00     0.139 C 
HETATM   17  O   UNL     1      -9.301   1.899 -31.668  1.00  0.00    -0.384 OA
HETATM   18  C   UNL     1      -9.159   0.471 -31.644  1.00  0.00     0.168 C 
HETATM   19  C   UNL     1      -9.711  -0.068 -32.948  1.00  0.00     0.029 C 
HETATM   20  C   UNL     1     -10.636   1.035 -33.400  1.00  0.00     0.035 C 
ENDBRANCH  15  16
ENDBRANCH  12  15
ENDBRANCH  10  11
BRANCH  10  21
HETATM   21  C   UNL     1      -4.116   4.589 -33.420  1.00  0.00     0.014 A 
HETATM   22  S   UNL     1      -3.829   5.074 -35.045  1.00  0.00    -0.104 SA
HETATM   23  C   UNL     1      -2.144   5.178 -34.805  1.00  0.00     0.050 A 
HETATM   24  C   UNL     1      -1.792   4.903 -33.505  1.00  0.00     0.008 A 
HETATM   25  C   UNL     1      -2.926   4.590 -32.706  1.00  0.00     0.017 A 
ENDBRANCH  10  21
ENDBRANCH   2  10
BRANCH   1  26
HETATM   26  C   UNL     1      -4.794   1.749 -31.729  1.00  0.00     0.101 C 
HETATM   27  N   UNL     1      -5.542   0.867 -32.487  1.00  0.00    -0.351 N 
HETATM   28  C   UNL     1      -4.728  -0.091 -33.054  1.00  0.00     0.043 C 
HETATM   29  H   UNL     1      -6.556   0.867 -32.547  1.00  0.00     0.166 HD
HETATM   30  C   UNL     1      -3.428   0.343 -32.865  1.00  0.00     0.033 C 
HETATM   31  C   UNL     1      -3.471   1.499 -32.053  1.00  0.00     0.037 C 
BRANCH  28  32
HETATM   32  C   UNL     1      -5.239  -1.295 -33.710  1.00  0.00    -0.009 A 
HETATM   33  C   UNL     1      -4.391  -2.379 -33.968  1.00  0.00     0.013 A 
HETATM   34  C   UNL     1      -4.888  -3.555 -34.534  1.00  0.00     0.001 A 
HETATM   35  C   UNL     1      -6.244  -3.664 -34.841  1.00  0.00     0.000 A 
HETATM   36  C   UNL     1      -7.099  -2.593 -34.591  1.00  0.00     0.001 A 
HETATM   37  C   UNL     1      -6.599  -1.413 -34.033  1.00  0.00     0.013 A 
ENDBRANCH  28  32
ENDBRANCH   1  26
TORSDOF 9
ENDMDL
MODEL 6
REMARK VINA RESULT:      -7.9      2.837      7.999
REMARK  9 active torsions:
REMARK  status: ('A' for Active; 'I' for Inactive)
REMARK    1  A    between atoms: C_4  and  C_5 
REMARK    2  A    between atoms: C_8  and  C_9 
REMARK       I    between atoms: C_9  and  N_10 
REMARK    3  A    between atoms: N_10  and  C_26 
REMARK    4  A    between atoms: N_10  and  C_11 
REMARK    5  A    between atoms: C_11  and  C_12 
REMARK    6  A    between atoms: C_11  and  C_21 
REMARK       I    between atoms: C_12  and  N_13 
REMARK    7  A    between atoms: N_13  and  C_14 
REMARK    8  A    between atoms: C_14  and  C_15 
REMARK    9  A    between atoms: C_26  and  C_27 
ROOT
HETATM    1  C   UNL     1      -3.584   5.297 -33.138  1.00  0.00     0.271 C 
HETATM    2  N   UNL     1      -4.445   4.258 -32.769  1.00  0.00    -0.324 N 
HETATM    3  O   UNL     1      -3.834   5.992 -34.123  1.00  0.00    -0.266 OA
ENDROOT
BRANCH   2   4
HETATM    4  C   UNL     1      -5.379   3.792 -33.806  1.00  0.00     0.173 C 
BRANCH   4   5
HETATM    5  C   UNL     1      -6.778   4.272 -33.576  1.00  0.00     0.000 A 
HETATM    6  S   UNL     1      -8.095   3.173 -33.625  1.00  0.00    -0.105 SA
HETATM    7  C   UNL     1      -9.224   4.411 -33.288  1.00  0.00     0.050 A 
HETATM    8  C   UNL     1      -8.622   5.644 -33.180  1.00  0.00     0.008 A 
HETATM    9  C   UNL     1      -7.211   5.566 -33.362  1.00  0.00     0.017 A 
ENDBRANCH   4   5
ENDBRANCH   2   4
BRANCH   2  10
HETATM   10  C   UNL     1      -4.383   3.540 -31.470  1.00  0.00     0.220 C 
BRANCH  10  11
HETATM   11  C   UNL     1      -3.925   2.088 -31.719  1.00  0.00     0.245 C 
HETATM   12  N   UNL     1      -4.619   1.371 -32.673  1.00  0.00    -0.357 N 
HETATM   13  H   UNL     1      -5.528   1.719 -32.960  1.00  0.00     0.162 HD
HETATM   14  O   UNL     1      -2.864   1.691 -31.226  1.00  0.00    -0.271 OA
BRANCH  12  15
HETATM   15  C   UNL     1      -4.263   0.011 -33.043  1.00  0.00     0.154 C 
BRANCH  15  16
HETATM   16  C   UNL     1      -5.409  -0.984 -32.785  1.00  0.00     0.139 C 
HETATM   17  O   UNL     1      -5.249  -2.151 -33.610  1.00  0.00    -0.384 OA
HETATM   18  C   UNL     1      -6.112  -2.036 -34.751  1.00  0.00     0.168 C 
HETATM   19  C   UNL     1      -6.846  -0.715 -34.641  1.00  0.00     0.029 C 
HETATM   20  C   UNL     1      -6.766  -0.411 -33.165  1.00  0.00     0.035 C 
ENDBRANCH  15  16
ENDBRANCH  12  15
ENDBRANCH  10  11
BRANCH  10  21
HETATM   21  C   UNL     1      -5.588   3.788 -30.583  1.00  0.00     0.014 A 
HETATM   22  S   UNL     1      -5.967   5.337 -29.938  1.00  0.00    -0.104 SA
HETATM   23  C   UNL     1      -7.427   4.785 -29.249  1.00  0.00     0.050 A 
HETATM   24  C   UNL     1      -7.663   3.462 -29.538  1.00  0.00     0.008 A 
HETATM   25  C   UNL     1      -6.621   2.898 -30.324  1.00  0.00     0.017 A 
ENDBRANCH  10  21
ENDBRANCH   2  10
BRANCH   1  26
HETATM   26  C   UNL     1      -2.405   5.571 -32.339  1.00  0.00     0.101 C 
HETATM   27  N   UNL     1      -2.344   6.320 -31.179  1.00  0.00    -0.351 N 
HETATM   28  C   UNL     1      -1.034   6.485 -30.782  1.00  0.00     0.043 C 
HETATM   29  H   UNL     1      -3.139   6.764 -30.731  1.00  0.00     0.166 HD
HETATM   30  C   UNL     1      -0.282   5.615 -31.551  1.00  0.00     0.033 C 
HETATM   31  C   UNL     1      -1.141   5.032 -32.511  1.00  0.00     0.037 C 
BRANCH  28  32
HETATM   32  C   UNL     1      -0.622   7.422 -29.736  1.00  0.00    -0.009 A 
HETATM   33  C   UNL     1      -1.524   8.368 -29.233  1.00  0.00     0.013 A 
HETATM   34  C   UNL     1      -1.155   9.221 -28.190  1.00  0.00     0.001 A 
HETATM   35  C   UNL     1       0.119   9.131 -27.631  1.00  0.00     0.000 A 
HETATM   36  C   UNL     1       1.026   8.195 -28.123  1.00  0.00     0.001 A 
HETATM   37  C   UNL     1       0.660   7.349 -29.172  1.00  0.00     0.013 A 
ENDBRANCH  28  32
ENDBRANCH   1  26
TORSDOF 9
ENDMDL
MODEL 7
REMARK VINA RESULT:      -7.9      2.396      5.779
REMARK  9 active torsions:
REMARK  status: ('A' for Active; 'I' for Inactive)
REMARK    1  A    between atoms: C_4  and  C_5 
REMARK    2  A    between atoms: C_8  and  C_9 
REMARK       I    between atoms: C_9  and  N_10 
REMARK    3  A    between atoms: N_10  and  C_26 
REMARK    4  A    between atoms: N_10  and  C_11 
REMARK    5  A    between atoms: C_11  and  C_12 
REMARK    6  A    between atoms: C_11  and  C_21 
REMARK       I    between atoms: C_12  and  N_13 
REMARK    7  A    between atoms: N_13  and  C_14 
REMARK    8  A    between atoms: C_14  and  C_15 
REMARK    9  A    between atoms: C_26  and  C_27 
ROOT
HETATM    1  C   UNL     1      -3.555   3.073 -31.248  1.00  0.00     0.271 C 
HETATM    2  N   UNL     1      -4.275   4.267 -31.137  1.00  0.00    -0.324 N 
HETATM    3  O   UNL     1      -2.324   3.088 -31.260  1.00  0.00    -0.266 OA
ENDROOT
BRANCH   2   4
HETATM    4  C   UNL     1      -3.537   5.500 -31.450  1.00  0.00     0.173 C 
BRANCH   4   5
HETATM    5  C   UNL     1      -2.865   5.442 -32.786  1.00  0.00     0.000 A 
HETATM    6  S   UNL     1      -1.239   5.961 -32.968  1.00  0.00    -0.105 SA
HETATM    7  C   UNL     1      -1.240   5.595 -34.637  1.00  0.00     0.050 A 
HETATM    8  C   UNL     1      -2.462   5.125 -35.062  1.00  0.00     0.008 A 
HETATM    9  C   UNL     1      -3.405   5.051 -33.997  1.00  0.00     0.017 A 
ENDBRANCH   4   5
ENDBRANCH   2   4
BRANCH   2  10
HETATM   10  C   UNL     1      -5.731   4.343 -30.849  1.00  0.00     0.220 C 
BRANCH  10  11
HETATM   11  C   UNL     1      -6.506   4.361 -32.183  1.00  0.00     0.245 C 
HETATM   12  N   UNL     1      -7.328   3.282 -32.440  1.00  0.00    -0.357 N 
HETATM   13  H   UNL     1      -7.184   2.436 -31.896  1.00  0.00     0.162 HD
HETATM   14  O   UNL     1      -6.529   5.393 -32.861  1.00  0.00    -0.271 OA
BRANCH  12  15
HETATM   15  C   UNL     1      -8.152   3.191 -33.633  1.00  0.00     0.154 C 
BRANCH  15  16
HETATM   16  C   UNL     1      -9.582   2.713 -33.322  1.00  0.00     0.139 C 
HETATM   17  O   UNL     1      -9.636   2.131 -32.008  1.00  0.00    -0.384 OA
HETATM   18  C   UNL     1      -9.592   0.702 -32.131  1.00  0.00     0.168 C 
HETATM   19  C   UNL     1      -9.490   0.370 -33.605  1.00  0.00     0.029 C 
HETATM   20  C   UNL     1     -10.039   1.611 -34.265  1.00  0.00     0.035 C 
ENDBRANCH  15  16
ENDBRANCH  12  15
ENDBRANCH  10  11
BRANCH  10  21
HETATM   21  C   UNL     1      -6.084   5.359 -29.780  1.00  0.00     0.014 A 
HETATM   22  S   UNL     1      -7.428   6.424 -29.915  1.00  0.00    -0.104 SA
HETATM   23  C   UNL     1      -7.190   7.057 -28.349  1.00  0.00     0.050 A 
HETATM   24  C   UNL     1      -6.144   6.445 -27.701  1.00  0.00     0.008 A 
HETATM   25  C   UNL     1      -5.526   5.454 -28.513  1.00  0.00     0.017 A 
ENDBRANCH  10  21
ENDBRANCH   2  10
BRANCH   1  26
HETATM   26  C   UNL     1      -4.264   1.811 -31.324  1.00  0.00     0.101 C 
HETATM   27  N   UNL     1      -4.093   0.817 -32.269  1.00  0.00    -0.351 N 
HETATM   28  C   UNL     1      -5.044  -0.169 -32.110  1.00  0.00     0.043 C 
HETATM   29  H   UNL     1      -3.422   0.848 -33.031  1.00  0.00     0.166 HD
HETATM   30  C   UNL     1      -5.656   0.076 -30.894  1.00  0.00     0.033 C 
HETATM   31  C   UNL     1      -5.157   1.302 -30.396  1.00  0.00     0.037 C 
BRANCH  28  32
HETATM   32  C   UNL     1      -5.279  -1.227 -33.093  1.00  0.00    -0.009 A 
HETATM   33  C   UNL     1      -6.548  -1.404 -33.658  1.00  0.00     0.013 A 
HETATM   34  C   UNL     1      -6.761  -2.370 -34.645  1.00  0.00     0.001 A 
HETATM   35  C   UNL     1      -5.704  -3.165 -35.084  1.00  0.00     0.000 A 
HETATM   36  C   UNL     1      -4.437  -3.001 -34.529  1.00  0.00     0.001 A 
HETATM   37  C   UNL     1      -4.226  -2.041 -33.536  1.00  0.00     0.013 A 
ENDBRANCH  28  32
ENDBRANCH   1  26
TORSDOF 9
ENDMDL
MODEL 8
REMARK VINA RESULT:      -7.7      1.911      2.475
REMARK  9 active torsions:
REMARK  status: ('A' for Active; 'I' for Inactive)
REMARK    1  A    between atoms: C_4  and  C_5 
REMARK    2  A    between atoms: C_8  and  C_9 
REMARK       I    between atoms: C_9  and  N_10 
REMARK    3  A    between atoms: N_10  and  C_26 
REMARK    4  A    between atoms: N_10  and  C_11 
REMARK    5  A    between atoms: C_11  and  C_12 
REMARK    6  A    between atoms: C_11  and  C_21 
REMARK       I    between atoms: C_12  and  N_13 
REMARK    7  A    between atoms: N_13  and  C_14 
REMARK    8  A    between atoms: C_14  and  C_15 
REMARK    9  A    between atoms: C_26  and  C_27 
ROOT
HETATM    1  C   UNL     1      -7.010   2.902 -30.496  1.00  0.00     0.271 C 
HETATM    2  N   UNL     1      -6.778   4.144 -31.097  1.00  0.00    -0.324 N 
HETATM    3  O   UNL     1      -6.954   2.784 -29.272  1.00  0.00    -0.266 OA
ENDROOT
BRANCH   2   4
HETATM    4  C   UNL     1      -6.082   5.143 -30.272  1.00  0.00     0.173 C 
BRANCH   4   5
HETATM    5  C   UNL     1      -7.025   6.091 -29.601  1.00  0.00     0.000 A 
HETATM    6  S   UNL     1      -7.121   7.729 -30.104  1.00  0.00    -0.105 SA
HETATM    7  C   UNL     1      -8.321   8.084 -28.940  1.00  0.00     0.050 A 
HETATM    8  C   UNL     1      -8.618   6.993 -28.156  1.00  0.00     0.008 A 
HETATM    9  C   UNL     1      -7.859   5.846 -28.526  1.00  0.00     0.017 A 
ENDBRANCH   4   5
ENDBRANCH   2   4
BRANCH   2  10
HETATM   10  C   UNL     1      -7.077   4.454 -32.520  1.00  0.00     0.220 C 
BRANCH  10  11
HETATM   11  C   UNL     1      -5.975   5.380 -33.075  1.00  0.00     0.245 C 
HETATM   12  N   UNL     1      -4.877   4.769 -33.648  1.00  0.00    -0.357 N 
HETATM   13  H   UNL     1      -4.722   3.786 -33.445  1.00  0.00     0.162 HD
HETATM   14  O   UNL     1      -6.189   6.593 -33.172  1.00  0.00    -0.271 OA
BRANCH  12  15
HETATM   15  C   UNL     1      -3.790   5.518 -34.253  1.00  0.00     0.154 C 
BRANCH  15  16
HETATM   16  C   UNL     1      -2.463   4.739 -34.238  1.00  0.00     0.139 C 
HETATM   17  O   UNL     1      -2.221   4.193 -32.930  1.00  0.00    -0.384 OA
HETATM   18  C   UNL     1      -1.293   5.040 -32.237  1.00  0.00     0.168 C 
HETATM   19  C   UNL     1      -0.943   6.190 -33.159  1.00  0.00     0.029 C 
HETATM   20  C   UNL     1      -1.266   5.633 -34.524  1.00  0.00     0.035 C 
ENDBRANCH  15  16
ENDBRANCH  12  15
ENDBRANCH  10  11
BRANCH  10  21
HETATM   21  C   UNL     1      -8.530   4.810 -32.769  1.00  0.00     0.014 A 
HETATM   22  S   UNL     1      -9.354   4.397 -34.221  1.00  0.00    -0.104 SA
HETATM   23  C   UNL     1     -10.844   4.993 -33.643  1.00  0.00     0.050 A 
HETATM   24  C   UNL     1     -10.747   5.455 -32.352  1.00  0.00     0.008 A 
HETATM   25  C   UNL     1      -9.425   5.326 -31.843  1.00  0.00     0.017 A 
ENDBRANCH  10  21
ENDBRANCH   2  10
BRANCH   1  26
HETATM   26  C   UNL     1      -7.343   1.756 -31.319  1.00  0.00     0.101 C 
HETATM   27  N   UNL     1      -6.488   0.750 -31.727  1.00  0.00    -0.351 N 
HETATM   28  C   UNL     1      -7.122  -0.089 -32.620  1.00  0.00     0.043 C 
HETATM   29  H   UNL     1      -5.506   0.684 -31.478  1.00  0.00     0.166 HD
HETATM   30  C   UNL     1      -8.465   0.241 -32.575  1.00  0.00     0.033 C 
HETATM   31  C   UNL     1      -8.604   1.380 -31.750  1.00  0.00     0.037 C 
BRANCH  28  32
HETATM   32  C   UNL     1      -6.421  -1.100 -33.411  1.00  0.00    -0.009 A 
HETATM   33  C   UNL     1      -5.024  -1.190 -33.374  1.00  0.00     0.013 A 
HETATM   34  C   UNL     1      -4.354  -2.196 -34.076  1.00  0.00     0.001 A 
HETATM   35  C   UNL     1      -5.077  -3.129 -34.818  1.00  0.00     0.000 A 
HETATM   36  C   UNL     1      -6.467  -3.050 -34.865  1.00  0.00     0.001 A 
HETATM   37  C   UNL     1      -7.135  -2.039 -34.170  1.00  0.00     0.013 A 
ENDBRANCH  28  32
ENDBRANCH   1  26
TORSDOF 9
ENDMDL
MODEL 9
REMARK VINA RESULT:      -7.6      2.231      5.469
REMARK  9 active torsions:
REMARK  status: ('A' for Active; 'I' for Inactive)
REMARK    1  A    between atoms: C_4  and  C_5 
REMARK    2  A    between atoms: C_8  and  C_9 
REMARK       I    between atoms: C_9  and  N_10 
REMARK    3  A    between atoms: N_10  and  C_26 
REMARK    4  A    between atoms: N_10  and  C_11 
REMARK    5  A    between atoms: C_11  and  C_12 
REMARK    6  A    between atoms: C_11  and  C_21 
REMARK       I    between atoms: C_12  and  N_13 
REMARK    7  A    between atoms: N_13  and  C_14 
REMARK    8  A    between atoms: C_14  and  C_15 
REMARK    9  A    between atoms: C_26  and  C_27 
ROOT
HETATM    1  C   UNL     1      -3.499   3.086 -32.312  1.00  0.00     0.271 C 
HETATM    2  N   UNL     1      -4.600   3.943 -32.201  1.00  0.00    -0.324 N 
HETATM    3  O   UNL     1      -2.366   3.546 -32.464  1.00  0.00    -0.266 OA
ENDROOT
BRANCH   2   4
HETATM    4  C   UNL     1      -4.400   5.319 -32.681  1.00  0.00     0.173 C 
BRANCH   4   5
HETATM    5  C   UNL     1      -3.534   6.126 -31.765  1.00  0.00     0.000 A 
HETATM    6  S   UNL     1      -2.310   7.148 -32.398  1.00  0.00    -0.105 SA
HETATM    7  C   UNL     1      -1.838   7.659 -30.837  1.00  0.00     0.050 A 
HETATM    8  C   UNL     1      -2.566   7.037 -29.849  1.00  0.00     0.008 A 
HETATM    9  C   UNL     1      -3.534   6.140 -30.383  1.00  0.00     0.017 A 
ENDBRANCH   4   5
ENDBRANCH   2   4
BRANCH   2  10
HETATM   10  C   UNL     1      -5.951   3.515 -31.756  1.00  0.00     0.220 C 
BRANCH  10  11
HETATM   11  C   UNL     1      -6.789   3.128 -32.992  1.00  0.00     0.245 C 
HETATM   12  N   UNL     1      -7.728   2.130 -32.820  1.00  0.00    -0.357 N 
HETATM   13  H   UNL     1      -7.643   1.534 -32.002  1.00  0.00     0.162 HD
HETATM   14  O   UNL     1      -6.741   3.832 -34.006  1.00  0.00    -0.271 OA
BRANCH  12  15
HETATM   15  C   UNL     1      -8.617   1.699 -33.885  1.00  0.00     0.154 C 
BRANCH  15  16
HETATM   16  C   UNL     1     -10.072   1.545 -33.406  1.00  0.00     0.139 C 
HETATM   17  O   UNL     1     -10.952   1.386 -34.533  1.00  0.00    -0.384 OA
HETATM   18  C   UNL     1     -11.578   2.646 -34.814  1.00  0.00     0.168 C 
HETATM   19  C   UNL     1     -11.050   3.655 -33.815  1.00  0.00     0.029 C 
HETATM   20  C   UNL     1     -10.574   2.783 -32.680  1.00  0.00     0.035 C 
ENDBRANCH  15  16
ENDBRANCH  12  15
ENDBRANCH  10  11
BRANCH  10  21
HETATM   21  C   UNL     1      -6.562   4.430 -30.712  1.00  0.00     0.014 A 
HETATM   22  S   UNL     1      -7.827   5.539 -31.071  1.00  0.00    -0.104 SA
HETATM   23  C   UNL     1      -7.992   6.009 -29.440  1.00  0.00     0.050 A 
HETATM   24  C   UNL     1      -7.144   5.308 -28.615  1.00  0.00     0.008 A 
HETATM   25  C   UNL     1      -6.342   4.386 -29.343  1.00  0.00     0.017 A 
ENDBRANCH  10  21
ENDBRANCH   2  10
BRANCH   1  26
HETATM   26  C   UNL     1      -3.692   1.653 -32.219  1.00  0.00     0.101 C 
HETATM   27  N   UNL     1      -4.099   0.803 -33.230  1.00  0.00    -0.351 N 
HETATM   28  C   UNL     1      -4.315  -0.466 -32.735  1.00  0.00     0.043 C 
HETATM   29  H   UNL     1      -4.301   1.088 -34.184  1.00  0.00     0.166 HD
HETATM   30  C   UNL     1      -3.788  -0.478 -31.456  1.00  0.00     0.033 C 
HETATM   31  C   UNL     1      -3.384   0.840 -31.141  1.00  0.00     0.037 C 
BRANCH  28  32
HETATM   32  C   UNL     1      -4.977  -1.526 -33.496  1.00  0.00    -0.009 A 
HETATM   33  C   UNL     1      -4.287  -2.696 -33.836  1.00  0.00     0.013 A 
HETATM   34  C   UNL     1      -4.935  -3.738 -34.505  1.00  0.00     0.001 A 
HETATM   35  C   UNL     1      -6.284  -3.623 -34.835  1.00  0.00     0.000 A 
HETATM   36  C   UNL     1      -6.982  -2.464 -34.506  1.00  0.00     0.001 A 
HETATM   37  C   UNL     1      -6.332  -1.419 -33.844  1.00  0.00     0.013 A 
ENDBRANCH  28  32
ENDBRANCH   1  26
TORSDOF 9
ENDMDL
MODEL 10
REMARK VINA RESULT:      -7.6     16.282     18.863
REMARK  9 active torsions:
REMARK  status: ('A' for Active; 'I' for Inactive)
REMARK    1  A    between atoms: C_4  and  C_5 
REMARK    2  A    between atoms: C_8  and  C_9 
REMARK       I    between atoms: C_9  and  N_10 
REMARK    3  A    between atoms: N_10  and  C_26 
REMARK    4  A    between atoms: N_10  and  C_11 
REMARK    5  A    between atoms: C_11  and  C_12 
REMARK    6  A    between atoms: C_11  and  C_21 
REMARK       I    between atoms: C_12  and  N_13 
REMARK    7  A    between atoms: N_13  and  C_14 
REMARK    8  A    between atoms: C_14  and  C_15 
REMARK    9  A    between atoms: C_26  and  C_27 
ROOT
HETATM    1  C   UNL     1      -3.818 -12.689 -38.397  1.00  0.00     0.271 C 
HETATM    2  N   UNL     1      -3.430 -14.003 -38.110  1.00  0.00    -0.324 N 
HETATM    3  O   UNL     1      -3.154 -11.740 -37.980  1.00  0.00    -0.266 OA
ENDROOT
BRANCH   2   4
HETATM    4  C   UNL     1      -2.490 -14.170 -36.991  1.00  0.00     0.173 C 
BRANCH   4   5
HETATM    5  C   UNL     1      -1.107 -14.511 -37.449  1.00  0.00     0.000 A 
HETATM    6  S   UNL     1      -0.229 -15.782 -36.702  1.00  0.00    -0.105 SA
HETATM    7  C   UNL     1       1.120 -15.538 -37.723  1.00  0.00     0.050 A 
HETATM    8  C   UNL     1       0.928 -14.486 -38.590  1.00  0.00     0.008 A 
HETATM    9  C   UNL     1      -0.351 -13.883 -38.421  1.00  0.00     0.017 A 
ENDBRANCH   4   5
ENDBRANCH   2   4
BRANCH   2  10
HETATM   10  C   UNL     1      -3.995 -15.206 -38.773  1.00  0.00     0.220 C 
BRANCH  10  11
HETATM   11  C   UNL     1      -4.494 -16.188 -37.692  1.00  0.00     0.245 C 
HETATM   12  N   UNL     1      -5.319 -15.670 -36.713  1.00  0.00    -0.357 N 
HETATM   13  H   UNL     1      -5.339 -14.661 -36.595  1.00  0.00     0.162 HD
HETATM   14  O   UNL     1      -4.318 -17.401 -37.842  1.00  0.00    -0.271 OA
BRANCH  12  15
HETATM   15  C   UNL     1      -5.901 -16.489 -35.664  1.00  0.00     0.154 C 
BRANCH  15  16
HETATM   16  C   UNL     1      -7.205 -15.890 -35.108  1.00  0.00     0.139 C 
HETATM   17  O   UNL     1      -7.199 -14.460 -35.260  1.00  0.00    -0.384 OA
HETATM   18  C   UNL     1      -6.835 -13.861 -34.007  1.00  0.00     0.168 C 
HETATM   19  C   UNL     1      -6.586 -14.980 -33.017  1.00  0.00     0.029 C 
HETATM   20  C   UNL     1      -7.359 -16.131 -33.614  1.00  0.00     0.035 C 
ENDBRANCH  15  16
ENDBRANCH  12  15
ENDBRANCH  10  11
BRANCH  10  21
HETATM   21  C   UNL     1      -3.134 -15.735 -39.903  1.00  0.00     0.014 A 
HETATM   22  S   UNL     1      -3.019 -14.953 -41.431  1.00  0.00    -0.104 SA
HETATM   23  C   UNL     1      -1.832 -16.041 -41.993  1.00  0.00     0.050 A 
HETATM   24  C   UNL     1      -1.479 -16.958 -41.031  1.00  0.00     0.008 A 
HETATM   25  C   UNL     1      -2.208 -16.766 -39.825  1.00  0.00     0.017 A 
ENDBRANCH  10  21
ENDBRANCH   2  10
BRANCH   1  26
HETATM   26  C   UNL     1      -4.993 -12.449 -39.211  1.00  0.00     0.101 C 
HETATM   27  N   UNL     1      -6.305 -12.734 -38.881  1.00  0.00    -0.351 N 
HETATM   28  C   UNL     1      -7.134 -12.506 -39.959  1.00  0.00     0.043 C 
HETATM   29  H   UNL     1      -6.608 -13.140 -38.000  1.00  0.00     0.166 HD
HETATM   30  C   UNL     1      -6.375 -11.824 -40.894  1.00  0.00     0.033 C 
HETATM   31  C   UNL     1      -5.044 -11.774 -40.419  1.00  0.00     0.037 C 
BRANCH  28  32
HETATM   32  C   UNL     1      -8.531 -12.937 -40.006  1.00  0.00    -0.009 A 
HETATM   33  C   UNL     1      -9.561 -11.998 -40.140  1.00  0.00     0.013 A 
HETATM   34  C   UNL     1     -10.892 -12.410 -40.251  1.00  0.00     0.001 A 
HETATM   35  C   UNL     1     -11.206 -13.768 -40.238  1.00  0.00     0.000 A 
HETATM   36  C   UNL     1     -10.191 -14.712 -40.103  1.00  0.00     0.001 A 
HETATM   37  C   UNL     1      -8.861 -14.300 -39.984  1.00  0.00     0.013 A 
ENDBRANCH  28  32
ENDBRANCH   1  26
TORSDOF 9
ENDMDL
