MODEL 1
REMARK VINA RESULT:      -9.4      0.000      0.000
REMARK  9 active torsions:
REMARK  status: ('A' for Active; 'I' for Inactive)
REMARK    1  A    between atoms: C_2  and  N_3 
REMARK    2  A    between atoms: C_2  and  C_11 
REMARK    3  A    between atoms: N_3  and  C_4 
REMARK    4  A    between atoms: N_12  and  C_13 
REMARK    5  A    between atoms: C_19  and  S_20 
REMARK    6  A    between atoms: S_20  and  C_21 
REMARK    7  A    between atoms: C_21  and  C_22 
REMARK       I    between atoms: C_22  and  N_23 
REMARK    8  A    between atoms: N_23  and  C_24 
REMARK    9  A    between atoms: C_26  and  N_27 
REMARK       I    between atoms: N_27  and  C_28 
ROOT
HETATM    1  C   UNL     1      -5.948   2.294 -30.932  1.00  0.00     0.158 A 
HETATM    2  N   UNL     1      -7.130   2.857 -31.415  1.00  0.00    -0.274 N 
HETATM    3  C   UNL     1      -7.118   4.141 -30.893  1.00  0.00     0.196 A 
HETATM    4  N   UNL     1      -6.089   4.301 -30.092  1.00  0.00    -0.122 NA
HETATM    5  N   UNL     1      -5.359   3.155 -30.117  1.00  0.00    -0.131 NA
ENDROOT
BRANCH   3   6
HETATM    6  S   UNL     1      -8.366   5.333 -31.075  1.00  0.00    -0.080 SA
BRANCH   6   7
HETATM    7  C   UNL     1      -7.891   6.098 -32.656  1.00  0.00     0.185 C 
BRANCH   7   8
HETATM    8  C   UNL     1      -6.385   6.298 -32.707  1.00  0.00     0.231 C 
HETATM    9  N   UNL     1      -5.720   5.336 -33.453  1.00  0.00    -0.326 N 
HETATM   10  H   UNL     1      -6.295   4.592 -33.849  1.00  0.00     0.169 HD
HETATM   11  O   UNL     1      -5.868   7.239 -32.109  1.00  0.00    -0.272 OA
BRANCH   9  12
HETATM   12  C   UNL     1      -4.326   5.218 -33.650  1.00  0.00     0.036 A 
HETATM   13  C   UNL     1      -3.537   4.939 -32.517  1.00  0.00     0.059 A 
HETATM   14  C   UNL     1      -2.146   4.820 -32.616  1.00  0.00     0.036 A 
HETATM   15  C   UNL     1      -1.550   5.000 -33.870  1.00  0.00     0.029 A 
HETATM   16  C   UNL     1      -2.320   5.267 -34.998  1.00  0.00     0.004 A 
HETATM   17  C   UNL     1      -3.705   5.373 -34.888  1.00  0.00     0.029 A 
BRANCH  14  18
HETATM   18  N   UNL     1      -1.264   4.561 -31.551  1.00  0.00    -0.327 N 
HETATM   19  C   UNL     1      -0.259   5.256 -30.950  1.00  0.00     0.218 C 
HETATM   20  C   UNL     1       0.056   6.674 -31.316  1.00  0.00     0.117 C 
HETATM   21  O   UNL     1       0.381   4.686 -30.061  1.00  0.00    -0.274 OA
HETATM   22  H   UNL     1      -1.373   3.660 -31.098  1.00  0.00     0.169 HD
ENDBRANCH  14  18
ENDBRANCH   9  12
ENDBRANCH   7   8
ENDBRANCH   6   7
ENDBRANCH   3   6
BRANCH   2  23
HETATM   23  C   UNL     1      -8.109   2.246 -32.242  1.00  0.00     0.043 A 
HETATM   24  C   UNL     1      -8.209   2.608 -33.592  1.00  0.00     0.030 A 
HETATM   25  C   UNL     1      -9.176   2.013 -34.404  1.00  0.00     0.002 A 
HETATM   26  C   UNL     1     -10.040   1.055 -33.879  1.00  0.00     0.000 A 
HETATM   27  C   UNL     1      -9.938   0.686 -32.539  1.00  0.00     0.002 A 
HETATM   28  C   UNL     1      -8.975   1.278 -31.718  1.00  0.00     0.030 A 
ENDBRANCH   2  23
BRANCH   1  29
HETATM   29  C   UNL     1      -5.328   0.982 -31.370  1.00  0.00     0.150 C 
HETATM   30  C   UNL     1      -6.093  -0.204 -30.763  1.00  0.00     0.040 C 
BRANCH  29  31
HETATM   31  N   UNL     1      -5.360   0.849 -32.836  1.00  0.00    -0.379 N 
HETATM   32  H   UNL     1      -5.823   1.644 -33.273  1.00  0.00     0.160 HD
BRANCH  31  33
HETATM   33  C   UNL     1      -5.549  -0.359 -33.492  1.00  0.00     0.028 A 
HETATM   34  C   UNL     1      -4.481  -1.268 -33.558  1.00  0.00     0.030 A 
HETATM   35  C   UNL     1      -4.626  -2.525 -34.154  1.00  0.00     0.021 A 
HETATM   36  C   UNL     1      -5.860  -2.899 -34.672  1.00  0.00     0.011 A 
HETATM   37 BR   UNL     1      -6.075  -4.605 -35.456  1.00  0.00    -0.051 Br
HETATM   38  C   UNL     1      -6.941  -2.026 -34.600  1.00  0.00     0.021 A 
HETATM   39  C   UNL     1      -6.782  -0.766 -34.012  1.00  0.00     0.030 A 
ENDBRANCH  31  33
ENDBRANCH  29  31
ENDBRANCH   1  29
TORSDOF 9
ENDMDL
MODEL 2
REMARK VINA RESULT:      -9.4      3.129      6.518
REMARK  9 active torsions:
REMARK  status: ('A' for Active; 'I' for Inactive)
REMARK    1  A    between atoms: C_2  and  N_3 
REMARK    2  A    between atoms: C_2  and  C_11 
REMARK    3  A    between atoms: N_3  and  C_4 
REMARK    4  A    between atoms: N_12  and  C_13 
REMARK    5  A    between atoms: C_19  and  S_20 
REMARK    6  A    between atoms: S_20  and  C_21 
REMARK    7  A    between atoms: C_21  and  C_22 
REMARK       I    between atoms: C_22  and  N_23 
REMARK    8  A    between atoms: N_23  and  C_24 
REMARK    9  A    between atoms: C_26  and  N_27 
REMARK       I    between atoms: N_27  and  C_28 
ROOT
HETATM    1  C   UNL     1      -5.552   2.364 -31.332  1.00  0.00     0.158 A 
HETATM    2  N   UNL     1      -6.930   2.579 -31.381  1.00  0.00    -0.274 N 
HETATM    3  C   UNL     1      -7.149   3.524 -30.390  1.00  0.00     0.196 A 
HETATM    4  N   UNL     1      -6.035   3.773 -29.741  1.00  0.00    -0.122 NA
HETATM    5  N   UNL     1      -5.040   3.055 -30.325  1.00  0.00    -0.131 NA
ENDROOT
BRANCH   3   6
HETATM    6  S   UNL     1      -8.688   4.160 -29.904  1.00  0.00    -0.080 SA
BRANCH   6   7
HETATM    7  C   UNL     1      -8.641   5.811 -30.668  1.00  0.00     0.185 C 
BRANCH   7   8
HETATM    8  C   UNL     1      -9.526   5.838 -31.905  1.00  0.00     0.231 C 
HETATM    9  N   UNL     1     -10.077   4.606 -32.222  1.00  0.00    -0.326 N 
HETATM   10  H   UNL     1      -9.807   3.822 -31.627  1.00  0.00     0.169 HD
HETATM   11  O   UNL     1      -9.684   6.886 -32.526  1.00  0.00    -0.272 OA
BRANCH   9  12
HETATM   12  C   UNL     1     -10.897   4.294 -33.330  1.00  0.00     0.036 A 
HETATM   13  C   UNL     1     -12.100   3.609 -33.069  1.00  0.00     0.059 A 
HETATM   14  C   UNL     1     -12.965   3.247 -34.108  1.00  0.00     0.036 A 
HETATM   15  C   UNL     1     -12.601   3.568 -35.421  1.00  0.00     0.029 A 
HETATM   16  C   UNL     1     -11.418   4.253 -35.690  1.00  0.00     0.004 A 
HETATM   17  C   UNL     1     -10.570   4.616 -34.646  1.00  0.00     0.029 A 
BRANCH  14  18
HETATM   18  N   UNL     1     -14.179   2.551 -33.963  1.00  0.00    -0.327 N 
HETATM   19  C   UNL     1     -14.531   1.236 -33.942  1.00  0.00     0.218 C 
HETATM   20  C   UNL     1     -13.511   0.140 -33.974  1.00  0.00     0.117 C 
HETATM   21  O   UNL     1     -15.734   0.965 -33.868  1.00  0.00    -0.274 OA
HETATM   22  H   UNL     1     -15.005   3.127 -33.839  1.00  0.00     0.169 HD
ENDBRANCH  14  18
ENDBRANCH   9  12
ENDBRANCH   7   8
ENDBRANCH   6   7
ENDBRANCH   3   6
BRANCH   2  23
HETATM   23  C   UNL     1      -7.875   1.965 -32.244  1.00  0.00     0.043 A 
HETATM   24  C   UNL     1      -8.846   1.103 -31.718  1.00  0.00     0.030 A 
HETATM   25  C   UNL     1      -9.771   0.493 -32.568  1.00  0.00     0.002 A 
HETATM   26  C   UNL     1      -9.735   0.742 -33.938  1.00  0.00     0.000 A 
HETATM   27  C   UNL     1      -8.774   1.604 -34.464  1.00  0.00     0.002 A 
HETATM   28  C   UNL     1      -7.845   2.218 -33.622  1.00  0.00     0.030 A 
ENDBRANCH   2  23
BRANCH   1  29
HETATM   29  C   UNL     1      -4.721   1.598 -32.343  1.00  0.00     0.150 C 
HETATM   30  C   UNL     1      -3.287   2.146 -32.387  1.00  0.00     0.040 C 
BRANCH  29  31
HETATM   31  N   UNL     1      -4.659   0.169 -31.996  1.00  0.00    -0.379 N 
HETATM   32  H   UNL     1      -3.824  -0.048 -31.456  1.00  0.00     0.160 HD
BRANCH  31  33
HETATM   33  C   UNL     1      -5.072  -0.845 -32.850  1.00  0.00     0.028 A 
HETATM   34  C   UNL     1      -4.147  -1.833 -33.225  1.00  0.00     0.030 A 
HETATM   35  C   UNL     1      -4.516  -2.911 -34.035  1.00  0.00     0.021 A 
HETATM   36  C   UNL     1      -5.834  -3.029 -34.460  1.00  0.00     0.011 A 
HETATM   37 BR   UNL     1      -6.351  -4.496 -35.532  1.00  0.00    -0.051 Br
HETATM   38  C   UNL     1      -6.776  -2.076 -34.085  1.00  0.00     0.021 A 
HETATM   39  C   UNL     1      -6.393  -0.994 -33.283  1.00  0.00     0.030 A 
ENDBRANCH  31  33
ENDBRANCH  29  31
ENDBRANCH   1  29
TORSDOF 9
ENDMDL
MODEL 3
REMARK VINA RESULT:      -9.3      2.310      6.405
REMARK  9 active torsions:
REMARK  status: ('A' for Active; 'I' for Inactive)
REMARK    1  A    between atoms: C_2  and  N_3 
REMARK    2  A    between atoms: C_2  and  C_11 
REMARK    3  A    between atoms: N_3  and  C_4 
REMARK    4  A    between atoms: N_12  and  C_13 
REMARK    5  A    between atoms: C_19  and  S_20 
REMARK    6  A    between atoms: S_20  and  C_21 
REMARK    7  A    between atoms: C_21  and  C_22 
REMARK       I    between atoms: C_22  and  N_23 
REMARK    8  A    between atoms: N_23  and  C_24 
REMARK    9  A    between atoms: C_26  and  N_27 
REMARK       I    between atoms: N_27  and  C_28 
ROOT
HETATM    1  C   UNL     1      -4.463   2.353 -31.166  1.00  0.00     0.158 A 
HETATM    2  N   UNL     1      -4.382   3.702 -31.514  1.00  0.00    -0.274 N 
HETATM    3  C   UNL     1      -5.159   4.334 -30.556  1.00  0.00     0.196 A 
HETATM    4  N   UNL     1      -5.735   3.448 -29.776  1.00  0.00    -0.122 NA
HETATM    5  N   UNL     1      -5.302   2.216 -30.151  1.00  0.00    -0.131 NA
ENDROOT
BRANCH   3   6
HETATM    6  S   UNL     1      -5.517   6.030 -30.484  1.00  0.00    -0.080 SA
BRANCH   6   7
HETATM    7  C   UNL     1      -7.329   6.012 -30.648  1.00  0.00     0.185 C 
BRANCH   7   8
HETATM    8  C   UNL     1      -7.747   5.003 -31.706  1.00  0.00     0.231 C 
HETATM    9  N   UNL     1      -8.449   3.921 -31.197  1.00  0.00    -0.326 N 
HETATM   10  H   UNL     1      -8.576   3.898 -30.185  1.00  0.00     0.169 HD
HETATM   11  O   UNL     1      -7.446   5.185 -32.883  1.00  0.00    -0.272 OA
BRANCH   9  12
HETATM   12  C   UNL     1      -8.928   2.799 -31.910  1.00  0.00     0.036 A 
HETATM   13  C   UNL     1      -9.656   3.049 -33.090  1.00  0.00     0.059 A 
HETATM   14  C   UNL     1     -10.181   1.999 -33.852  1.00  0.00     0.036 A 
HETATM   15  C   UNL     1      -9.980   0.687 -33.406  1.00  0.00     0.029 A 
HETATM   16  C   UNL     1      -9.254   0.428 -32.246  1.00  0.00     0.004 A 
HETATM   17  C   UNL     1      -8.729   1.482 -31.502  1.00  0.00     0.029 A 
BRANCH  14  18
HETATM   18  N   UNL     1     -10.934   2.134 -35.033  1.00  0.00    -0.327 N 
HETATM   19  C   UNL     1     -12.261   2.244 -35.314  1.00  0.00     0.218 C 
HETATM   20  C   UNL     1     -13.295   2.356 -34.237  1.00  0.00     0.117 C 
HETATM   21  O   UNL     1     -12.596   2.275 -36.503  1.00  0.00    -0.274 OA
HETATM   22  H   UNL     1     -10.399   2.166 -35.894  1.00  0.00     0.169 HD
ENDBRANCH  14  18
ENDBRANCH   9  12
ENDBRANCH   7   8
ENDBRANCH   6   7
ENDBRANCH   3   6
BRANCH   2  23
HETATM   23  C   UNL     1      -3.671   4.278 -32.599  1.00  0.00     0.043 A 
HETATM   24  C   UNL     1      -2.300   4.543 -32.475  1.00  0.00     0.030 A 
HETATM   25  C   UNL     1      -1.601   5.116 -33.539  1.00  0.00     0.002 A 
HETATM   26  C   UNL     1      -2.261   5.421 -34.728  1.00  0.00     0.000 A 
HETATM   27  C   UNL     1      -3.622   5.152 -34.858  1.00  0.00     0.002 A 
HETATM   28  C   UNL     1      -4.329   4.580 -33.798  1.00  0.00     0.030 A 
ENDBRANCH   2  23
BRANCH   1  29
HETATM   29  C   UNL     1      -3.624   1.223 -31.730  1.00  0.00     0.150 C 
HETATM   30  C   UNL     1      -3.782  -0.044 -30.876  1.00  0.00     0.040 C 
BRANCH  29  31
HETATM   31  N   UNL     1      -4.031   0.904 -33.109  1.00  0.00    -0.379 N 
HETATM   32  H   UNL     1      -4.415   1.720 -33.583  1.00  0.00     0.160 HD
BRANCH  31  33
HETATM   33  C   UNL     1      -4.612  -0.301 -33.477  1.00  0.00     0.028 A 
HETATM   34  C   UNL     1      -5.991  -0.337 -33.736  1.00  0.00     0.030 A 
HETATM   35  C   UNL     1      -6.624  -1.508 -34.167  1.00  0.00     0.021 A 
HETATM   36  C   UNL     1      -5.872  -2.658 -34.370  1.00  0.00     0.011 A 
HETATM   37 BR   UNL     1      -6.711  -4.238 -34.978  1.00  0.00    -0.051 Br
HETATM   38  C   UNL     1      -4.500  -2.644 -34.143  1.00  0.00     0.021 A 
HETATM   39  C   UNL     1      -3.877  -1.470 -33.700  1.00  0.00     0.030 A 
ENDBRANCH  31  33
ENDBRANCH  29  31
ENDBRANCH   1  29
TORSDOF 9
ENDMDL
MODEL 4
REMARK VINA RESULT:      -9.2      4.008      7.672
REMARK  9 active torsions:
REMARK  status: ('A' for Active; 'I' for Inactive)
REMARK    1  A    between atoms: C_2  and  N_3 
REMARK    2  A    between atoms: C_2  and  C_11 
REMARK    3  A    between atoms: N_3  and  C_4 
REMARK    4  A    between atoms: N_12  and  C_13 
REMARK    5  A    between atoms: C_19  and  S_20 
REMARK    6  A    between atoms: S_20  and  C_21 
REMARK    7  A    between atoms: C_21  and  C_22 
REMARK       I    between atoms: C_22  and  N_23 
REMARK    8  A    between atoms: N_23  and  C_24 
REMARK    9  A    between atoms: C_26  and  N_27 
REMARK       I    between atoms: N_27  and  C_28 
ROOT
HETATM    1  C   UNL     1      -5.325   2.576 -31.380  1.00  0.00     0.158 A 
HETATM    2  N   UNL     1      -6.636   2.249 -31.732  1.00  0.00    -0.274 N 
HETATM    3  C   UNL     1      -7.406   2.975 -30.837  1.00  0.00     0.196 A 
HETATM    4  N   UNL     1      -6.639   3.590 -29.966  1.00  0.00    -0.122 NA
HETATM    5  N   UNL     1      -5.345   3.346 -30.302  1.00  0.00    -0.131 NA
ENDROOT
BRANCH   3   6
HETATM    6  S   UNL     1      -9.136   2.940 -30.712  1.00  0.00    -0.080 SA
BRANCH   6   7
HETATM    7  C   UNL     1      -9.585   4.412 -31.684  1.00  0.00     0.185 C 
BRANCH   7   8
HETATM    8  C   UNL     1     -10.747   4.091 -32.611  1.00  0.00     0.231 C 
HETATM    9  N   UNL     1     -11.308   2.842 -32.387  1.00  0.00    -0.326 N 
HETATM   10  H   UNL     1     -10.868   2.269 -31.667  1.00  0.00     0.169 HD
HETATM   11  O   UNL     1     -11.097   4.902 -33.464  1.00  0.00    -0.272 OA
BRANCH   9  12
HETATM   12  C   UNL     1     -12.361   2.235 -33.108  1.00  0.00     0.036 A 
HETATM   13  C   UNL     1     -13.663   2.383 -32.593  1.00  0.00     0.059 A 
HETATM   14  C   UNL     1     -14.764   1.804 -33.233  1.00  0.00     0.036 A 
HETATM   15  C   UNL     1     -14.542   1.056 -34.396  1.00  0.00     0.029 A 
HETATM   16  C   UNL     1     -13.260   0.910 -34.919  1.00  0.00     0.004 A 
HETATM   17  C   UNL     1     -12.173   1.501 -34.277  1.00  0.00     0.029 A 
BRANCH  14  18
HETATM   18  N   UNL     1     -16.101   1.874 -32.799  1.00  0.00    -0.327 N 
HETATM   19  C   UNL     1     -16.862   2.829 -32.198  1.00  0.00     0.218 C 
HETATM   20  C   UNL     1     -16.351   4.215 -31.951  1.00  0.00     0.117 C 
HETATM   21  O   UNL     1     -18.017   2.526 -31.879  1.00  0.00    -0.274 OA
HETATM   22  H   UNL     1     -16.660   1.042 -32.957  1.00  0.00     0.169 HD
ENDBRANCH  14  18
ENDBRANCH   9  12
ENDBRANCH   7   8
ENDBRANCH   6   7
ENDBRANCH   3   6
BRANCH   2  23
HETATM   23  C   UNL     1      -7.065   1.376 -32.766  1.00  0.00     0.043 A 
HETATM   24  C   UNL     1      -6.997   1.788 -34.103  1.00  0.00     0.030 A 
HETATM   25  C   UNL     1      -7.426   0.932 -35.120  1.00  0.00     0.002 A 
HETATM   26  C   UNL     1      -7.917  -0.334 -34.810  1.00  0.00     0.000 A 
HETATM   27  C   UNL     1      -7.979  -0.750 -33.482  1.00  0.00     0.002 A 
HETATM   28  C   UNL     1      -7.553   0.100 -32.458  1.00  0.00     0.030 A 
ENDBRANCH   2  23
BRANCH   1  29
HETATM   29  C   UNL     1      -4.071   2.252 -32.166  1.00  0.00     0.150 C 
HETATM   30  C   UNL     1      -3.084   3.428 -32.114  1.00  0.00     0.040 C 
BRANCH  29  31
HETATM   31  N   UNL     1      -3.401   1.061 -31.619  1.00  0.00    -0.379 N 
HETATM   32  H   UNL     1      -2.481   1.289 -31.244  1.00  0.00     0.160 HD
BRANCH  31  33
HETATM   33  C   UNL     1      -3.492  -0.200 -32.190  1.00  0.00     0.028 A 
HETATM   34  C   UNL     1      -2.978  -1.301 -31.487  1.00  0.00     0.030 A 
HETATM   35  C   UNL     1      -3.091  -2.604 -31.983  1.00  0.00     0.021 A 
HETATM   36  C   UNL     1      -3.750  -2.824 -33.186  1.00  0.00     0.011 A 
HETATM   37 BR   UNL     1      -3.933  -4.582 -33.853  1.00  0.00    -0.051 Br
HETATM   38  C   UNL     1      -4.288  -1.754 -33.893  1.00  0.00     0.021 A 
HETATM   39  C   UNL     1      -4.159  -0.452 -33.393  1.00  0.00     0.030 A 
ENDBRANCH  31  33
ENDBRANCH  29  31
ENDBRANCH   1  29
TORSDOF 9
ENDMDL
MODEL 5
REMARK VINA RESULT:      -9.2      2.782      4.389
REMARK  9 active torsions:
REMARK  status: ('A' for Active; 'I' for Inactive)
REMARK    1  A    between atoms: C_2  and  N_3 
REMARK    2  A    between atoms: C_2  and  C_11 
REMARK    3  A    between atoms: N_3  and  C_4 
REMARK    4  A    between atoms: N_12  and  C_13 
REMARK    5  A    between atoms: C_19  and  S_20 
REMARK    6  A    between atoms: S_20  and  C_21 
REMARK    7  A    between atoms: C_21  and  C_22 
REMARK       I    between atoms: C_22  and  N_23 
REMARK    8  A    between atoms: N_23  and  C_24 
REMARK    9  A    between atoms: C_26  and  N_27 
REMARK       I    between atoms: N_27  and  C_28 
ROOT
HETATM    1  C   UNL     1      -7.101   3.793 -33.410  1.00  0.00     0.158 A 
HETATM    2  N   UNL     1      -5.844   3.406 -32.943  1.00  0.00    -0.274 N 
HETATM    3  C   UNL     1      -4.999   4.398 -33.417  1.00  0.00     0.196 A 
HETATM    4  N   UNL     1      -5.661   5.237 -34.181  1.00  0.00    -0.122 NA
HETATM    5  N   UNL     1      -6.968   4.864 -34.177  1.00  0.00    -0.131 NA
ENDROOT
BRANCH   3   6
HETATM    6  S   UNL     1      -3.275   4.450 -33.229  1.00  0.00    -0.080 SA
BRANCH   6   7
HETATM    7  C   UNL     1      -2.857   5.901 -34.246  1.00  0.00     0.185 C 
BRANCH   7   8
HETATM    8  C   UNL     1      -2.272   6.999 -33.372  1.00  0.00     0.231 C 
HETATM    9  N   UNL     1      -2.707   6.954 -32.056  1.00  0.00    -0.326 N 
HETATM   10  H   UNL     1      -3.387   6.229 -31.828  1.00  0.00     0.169 HD
HETATM   11  O   UNL     1      -1.501   7.824 -33.855  1.00  0.00    -0.272 OA
BRANCH   9  12
HETATM   12  C   UNL     1      -2.387   7.857 -31.018  1.00  0.00     0.036 A 
HETATM   13  C   UNL     1      -1.709   7.337 -29.898  1.00  0.00     0.059 A 
HETATM   14  C   UNL     1      -1.365   8.155 -28.817  1.00  0.00     0.036 A 
HETATM   15  C   UNL     1      -1.725   9.508 -28.863  1.00  0.00     0.029 A 
HETATM   16  C   UNL     1      -2.388  10.035 -29.969  1.00  0.00     0.004 A 
HETATM   17  C   UNL     1      -2.715   9.211 -31.044  1.00  0.00     0.029 A 
BRANCH  14  18
HETATM   18  N   UNL     1      -0.704   7.740 -27.646  1.00  0.00    -0.327 N 
HETATM   19  C   UNL     1       0.571   7.838 -27.181  1.00  0.00     0.218 C 
HETATM   20  C   UNL     1       1.625   8.614 -27.909  1.00  0.00     0.117 C 
HETATM   21  O   UNL     1       0.837   7.282 -26.110  1.00  0.00    -0.274 OA
HETATM   22  H   UNL     1      -1.279   7.255 -26.964  1.00  0.00     0.169 HD
ENDBRANCH  14  18
ENDBRANCH   9  12
ENDBRANCH   7   8
ENDBRANCH   6   7
ENDBRANCH   3   6
BRANCH   2  23
HETATM   23  C   UNL     1      -5.520   2.261 -32.168  1.00  0.00     0.043 A 
HETATM   24  C   UNL     1      -4.778   1.218 -32.737  1.00  0.00     0.030 A 
HETATM   25  C   UNL     1      -4.466   0.089 -31.978  1.00  0.00     0.002 A 
HETATM   26  C   UNL     1      -4.886  -0.003 -30.653  1.00  0.00     0.000 A 
HETATM   27  C   UNL     1      -5.619   1.035 -30.082  1.00  0.00     0.002 A 
HETATM   28  C   UNL     1      -5.937   2.168 -30.834  1.00  0.00     0.030 A 
ENDBRANCH   2  23
BRANCH   1  29
HETATM   29  C   UNL     1      -8.437   3.203 -33.003  1.00  0.00     0.150 C 
HETATM   30  C   UNL     1      -9.508   4.301 -32.923  1.00  0.00     0.040 C 
BRANCH  29  31
HETATM   31  N   UNL     1      -8.883   2.192 -33.975  1.00  0.00    -0.379 N 
HETATM   32  H   UNL     1      -9.897   2.183 -34.066  1.00  0.00     0.160 HD
BRANCH  31  33
HETATM   33  C   UNL     1      -8.282   0.949 -34.118  1.00  0.00     0.028 A 
HETATM   34  C   UNL     1      -7.474   0.713 -35.242  1.00  0.00     0.030 A 
HETATM   35  C   UNL     1      -6.795  -0.499 -35.413  1.00  0.00     0.021 A 
HETATM   36  C   UNL     1      -6.897  -1.484 -34.440  1.00  0.00     0.011 A 
HETATM   37 BR   UNL     1      -5.963  -3.114 -34.647  1.00  0.00    -0.051 Br
HETATM   38  C   UNL     1      -7.672  -1.268 -33.305  1.00  0.00     0.021 A 
HETATM   39  C   UNL     1      -8.357  -0.057 -33.149  1.00  0.00     0.030 A 
ENDBRANCH  31  33
ENDBRANCH  29  31
ENDBRANCH   1  29
TORSDOF 9
ENDMDL
MODEL 6
REMARK VINA RESULT:      -9.0      1.252      1.599
REMARK  9 active torsions:
REMARK  status: ('A' for Active; 'I' for Inactive)
REMARK    1  A    between atoms: C_2  and  N_3 
REMARK    2  A    between atoms: C_2  and  C_11 
REMARK    3  A    between atoms: N_3  and  C_4 
REMARK    4  A    between atoms: N_12  and  C_13 
REMARK    5  A    between atoms: C_19  and  S_20 
REMARK    6  A    between atoms: S_20  and  C_21 
REMARK    7  A    between atoms: C_21  and  C_22 
REMARK       I    between atoms: C_22  and  N_23 
REMARK    8  A    between atoms: N_23  and  C_24 
REMARK    9  A    between atoms: C_26  and  N_27 
REMARK       I    between atoms: N_27  and  C_28 
ROOT
HETATM    1  C   UNL     1      -5.548   2.109 -30.998  1.00  0.00     0.158 A 
HETATM    2  N   UNL     1      -6.654   2.792 -31.505  1.00  0.00    -0.274 N 
HETATM    3  C   UNL     1      -6.466   4.093 -31.065  1.00  0.00     0.196 A 
HETATM    4  N   UNL     1      -5.413   4.164 -30.283  1.00  0.00    -0.122 NA
HETATM    5  N   UNL     1      -4.839   2.932 -30.241  1.00  0.00    -0.131 NA
ENDROOT
BRANCH   3   6
HETATM    6  S   UNL     1      -7.551   5.424 -31.311  1.00  0.00    -0.080 SA
BRANCH   6   7
HETATM    7  C   UNL     1      -7.070   5.962 -32.982  1.00  0.00     0.185 C 
BRANCH   7   8
HETATM    8  C   UNL     1      -5.586   5.716 -33.202  1.00  0.00     0.231 C 
HETATM    9  N   UNL     1      -4.768   6.484 -32.387  1.00  0.00    -0.326 N 
HETATM   10  H   UNL     1      -5.237   7.145 -31.767  1.00  0.00     0.169 HD
HETATM   11  O   UNL     1      -5.215   4.907 -34.048  1.00  0.00    -0.272 OA
BRANCH   9  12
HETATM   12  C   UNL     1      -3.355   6.522 -32.385  1.00  0.00     0.036 A 
HETATM   13  C   UNL     1      -2.698   6.001 -31.253  1.00  0.00     0.059 A 
HETATM   14  C   UNL     1      -1.303   6.012 -31.159  1.00  0.00     0.036 A 
HETATM   15  C   UNL     1      -0.567   6.569 -32.213  1.00  0.00     0.029 A 
HETATM   16  C   UNL     1      -1.206   7.079 -33.340  1.00  0.00     0.004 A 
HETATM   17  C   UNL     1      -2.596   7.053 -33.426  1.00  0.00     0.029 A 
BRANCH  14  18
HETATM   18  N   UNL     1      -0.546   5.534 -30.072  1.00  0.00    -0.327 N 
HETATM   19  C   UNL     1       0.218   6.118 -29.109  1.00  0.00     0.218 C 
HETATM   20  C   UNL     1       0.316   7.606 -28.964  1.00  0.00     0.117 C 
HETATM   21  O   UNL     1       0.821   5.376 -28.326  1.00  0.00    -0.274 OA
HETATM   22  H   UNL     1      -0.551   4.529 -29.941  1.00  0.00     0.169 HD
ENDBRANCH  14  18
ENDBRANCH   9  12
ENDBRANCH   7   8
ENDBRANCH   6   7
ENDBRANCH   3   6
BRANCH   2  23
HETATM   23  C   UNL     1      -7.717   2.265 -32.285  1.00  0.00     0.043 A 
HETATM   24  C   UNL     1      -8.741   1.534 -31.669  1.00  0.00     0.030 A 
HETATM   25  C   UNL     1      -9.783   1.009 -32.436  1.00  0.00     0.002 A 
HETATM   26  C   UNL     1      -9.810   1.214 -33.814  1.00  0.00     0.000 A 
HETATM   27  C   UNL     1      -8.797   1.946 -34.429  1.00  0.00     0.002 A 
HETATM   28  C   UNL     1      -7.751   2.473 -33.670  1.00  0.00     0.030 A 
ENDBRANCH   2  23
BRANCH   1  29
HETATM   29  C   UNL     1      -5.112   0.702 -31.357  1.00  0.00     0.150 C 
HETATM   30  C   UNL     1      -6.126  -0.327 -30.834  1.00  0.00     0.040 C 
BRANCH  29  31
HETATM   31  N   UNL     1      -5.005   0.543 -32.817  1.00  0.00    -0.379 N 
HETATM   32  H   UNL     1      -5.288   1.390 -33.307  1.00  0.00     0.160 HD
BRANCH  31  33
HETATM   33  C   UNL     1      -5.307  -0.636 -33.484  1.00  0.00     0.028 A 
HETATM   34  C   UNL     1      -4.316  -1.623 -33.598  1.00  0.00     0.030 A 
HETATM   35  C   UNL     1      -4.576  -2.855 -34.207  1.00  0.00     0.021 A 
HETATM   36  C   UNL     1      -5.852  -3.125 -34.688  1.00  0.00     0.011 A 
HETATM   37 BR   UNL     1      -6.223  -4.796 -35.488  1.00  0.00    -0.051 Br
HETATM   38  C   UNL     1      -6.859  -2.174 -34.567  1.00  0.00     0.021 A 
HETATM   39  C   UNL     1      -6.585  -0.939 -33.967  1.00  0.00     0.030 A 
ENDBRANCH  31  33
ENDBRANCH  29  31
ENDBRANCH   1  29
TORSDOF 9
ENDMDL
MODEL 7
REMARK VINA RESULT:      -9.0      4.018      8.214
REMARK  9 active torsions:
REMARK  status: ('A' for Active; 'I' for Inactive)
REMARK    1  A    between atoms: C_2  and  N_3 
REMARK    2  A    between atoms: C_2  and  C_11 
REMARK    3  A    between atoms: N_3  and  C_4 
REMARK    4  A    between atoms: N_12  and  C_13 
REMARK    5  A    between atoms: C_19  and  S_20 
REMARK    6  A    between atoms: S_20  and  C_21 
REMARK    7  A    between atoms: C_21  and  C_22 
REMARK       I    between atoms: C_22  and  N_23 
REMARK    8  A    between atoms: N_23  and  C_24 
REMARK    9  A    between atoms: C_26  and  N_27 
REMARK       I    between atoms: N_27  and  C_28 
ROOT
HETATM    1  C   UNL     1      -0.936   6.931 -27.291  1.00  0.00     0.158 A 
HETATM    2  N   UNL     1      -2.176   7.416 -27.709  1.00  0.00    -0.274 N 
HETATM    3  C   UNL     1      -3.034   7.050 -26.683  1.00  0.00     0.196 A 
HETATM    4  N   UNL     1      -2.397   6.327 -25.790  1.00  0.00    -0.122 NA
HETATM    5  N   UNL     1      -1.093   6.253 -26.164  1.00  0.00    -0.131 NA
ENDROOT
BRANCH   3   6
HETATM    6  S   UNL     1      -4.749   7.307 -26.642  1.00  0.00    -0.080 SA
BRANCH   6   7
HETATM    7  C   UNL     1      -5.362   5.626 -26.977  1.00  0.00     0.185 C 
BRANCH   7   8
HETATM    8  C   UNL     1      -5.718   5.484 -28.448  1.00  0.00     0.231 C 
HETATM    9  N   UNL     1      -5.271   4.301 -29.018  1.00  0.00    -0.326 N 
HETATM   10  H   UNL     1      -4.730   3.683 -28.413  1.00  0.00     0.169 HD
HETATM   11  O   UNL     1      -6.336   6.378 -29.021  1.00  0.00    -0.272 OA
BRANCH   9  12
HETATM   12  C   UNL     1      -5.399   3.899 -30.366  1.00  0.00     0.036 A 
HETATM   13  C   UNL     1      -6.409   2.964 -30.666  1.00  0.00     0.059 A 
HETATM   14  C   UNL     1      -6.598   2.498 -31.972  1.00  0.00     0.036 A 
HETATM   15  C   UNL     1      -5.748   2.972 -32.978  1.00  0.00     0.029 A 
HETATM   16  C   UNL     1      -4.751   3.903 -32.695  1.00  0.00     0.004 A 
HETATM   17  C   UNL     1      -4.580   4.366 -31.392  1.00  0.00     0.029 A 
BRANCH  14  18
HETATM   18  N   UNL     1      -7.562   1.557 -32.379  1.00  0.00    -0.327 N 
HETATM   19  C   UNL     1      -7.538   0.227 -32.665  1.00  0.00     0.218 C 
HETATM   20  C   UNL     1      -6.311  -0.608 -32.464  1.00  0.00     0.117 C 
HETATM   21  O   UNL     1      -8.582  -0.291 -33.076  1.00  0.00    -0.274 OA
HETATM   22  H   UNL     1      -8.505   1.914 -32.493  1.00  0.00     0.169 HD
ENDBRANCH  14  18
ENDBRANCH   9  12
ENDBRANCH   7   8
ENDBRANCH   6   7
ENDBRANCH   3   6
BRANCH   2  23
HETATM   23  C   UNL     1      -2.476   8.115 -28.908  1.00  0.00     0.043 A 
HETATM   24  C   UNL     1      -2.099   9.457 -29.048  1.00  0.00     0.030 A 
HETATM   25  C   UNL     1      -2.400  10.148 -30.224  1.00  0.00     0.002 A 
HETATM   26  C   UNL     1      -3.070   9.505 -31.262  1.00  0.00     0.000 A 
HETATM   27  C   UNL     1      -3.440   8.168 -31.129  1.00  0.00     0.002 A 
HETATM   28  C   UNL     1      -3.144   7.470 -29.957  1.00  0.00     0.030 A 
ENDBRANCH   2  23
BRANCH   1  29
HETATM   29  C   UNL     1       0.411   7.243 -27.911  1.00  0.00     0.150 C 
HETATM   30  C   UNL     1       1.496   7.332 -26.827  1.00  0.00     0.040 C 
BRANCH  29  31
HETATM   31  N   UNL     1       0.802   6.197 -28.871  1.00  0.00    -0.379 N 
HETATM   32  H   UNL     1       1.795   5.980 -28.804  1.00  0.00     0.160 HD
BRANCH  31  33
HETATM   33  C   UNL     1       0.276   6.097 -30.151  1.00  0.00     0.028 A 
HETATM   34  C   UNL     1      -0.471   4.958 -30.490  1.00  0.00     0.030 A 
HETATM   35  C   UNL     1      -1.075   4.825 -31.745  1.00  0.00     0.021 A 
HETATM   36  C   UNL     1      -0.959   5.852 -32.673  1.00  0.00     0.011 A 
HETATM   37 BR   UNL     1      -1.793   5.696 -34.361  1.00  0.00    -0.051 Br
HETATM   38  C   UNL     1      -0.243   7.002 -32.355  1.00  0.00     0.021 A 
HETATM   39  C   UNL     1       0.367   7.120 -31.101  1.00  0.00     0.030 A 
ENDBRANCH  31  33
ENDBRANCH  29  31
ENDBRANCH   1  29
TORSDOF 9
ENDMDL
MODEL 8
REMARK VINA RESULT:      -8.8      2.959      6.880
REMARK  9 active torsions:
REMARK  status: ('A' for Active; 'I' for Inactive)
REMARK    1  A    between atoms: C_2  and  N_3 
REMARK    2  A    between atoms: C_2  and  C_11 
REMARK    3  A    between atoms: N_3  and  C_4 
REMARK    4  A    between atoms: N_12  and  C_13 
REMARK    5  A    between atoms: C_19  and  S_20 
REMARK    6  A    between atoms: S_20  and  C_21 
REMARK    7  A    between atoms: C_21  and  C_22 
REMARK       I    between atoms: C_22  and  N_23 
REMARK    8  A    between atoms: N_23  and  C_24 
REMARK    9  A    between atoms: C_26  and  N_27 
REMARK       I    between atoms: N_27  and  C_28 
ROOT
HETATM    1  C   UNL     1      -5.874   2.824 -31.556  1.00  0.00     0.158 A 
HETATM    2  N   UNL     1      -5.613   4.072 -32.122  1.00  0.00    -0.274 N 
HETATM    3  C   UNL     1      -6.607   4.884 -31.600  1.00  0.00     0.196 A 
HETATM    4  N   UNL     1      -7.445   4.175 -30.878  1.00  0.00    -0.122 NA
HETATM    5  N   UNL     1      -6.990   2.895 -30.847  1.00  0.00    -0.131 NA
ENDROOT
BRANCH   3   6
HETATM    6  S   UNL     1      -6.871   6.556 -31.982  1.00  0.00    -0.080 SA
BRANCH   6   7
HETATM    7  C   UNL     1      -8.684   6.599 -32.127  1.00  0.00     0.185 C 
BRANCH   7   8
HETATM    8  C   UNL     1      -9.137   5.714 -33.278  1.00  0.00     0.231 C 
HETATM    9  N   UNL     1     -10.415   5.202 -33.117  1.00  0.00    -0.326 N 
HETATM   10  H   UNL     1     -10.891   5.436 -32.246  1.00  0.00     0.169 HD
HETATM   11  O   UNL     1      -8.384   5.505 -34.227  1.00  0.00    -0.272 OA
BRANCH   9  12
HETATM   12  C   UNL     1     -11.097   4.315 -33.980  1.00  0.00     0.036 A 
HETATM   13  C   UNL     1     -11.368   3.022 -33.492  1.00  0.00     0.059 A 
HETATM   14  C   UNL     1     -12.026   2.074 -34.283  1.00  0.00     0.036 A 
HETATM   15  C   UNL     1     -12.397   2.433 -35.585  1.00  0.00     0.029 A 
HETATM   16  C   UNL     1     -12.142   3.712 -36.075  1.00  0.00     0.004 A 
HETATM   17  C   UNL     1     -11.495   4.650 -35.273  1.00  0.00     0.029 A 
BRANCH  14  18
HETATM   18  N   UNL     1     -12.332   0.753 -33.904  1.00  0.00    -0.327 N 
HETATM   19  C   UNL     1     -13.485   0.048 -33.742  1.00  0.00     0.218 C 
HETATM   20  C   UNL     1     -14.824   0.621 -34.091  1.00  0.00     0.117 C 
HETATM   21  O   UNL     1     -13.395  -1.108 -33.315  1.00  0.00    -0.274 OA
HETATM   22  H   UNL     1     -11.536   0.158 -33.701  1.00  0.00     0.169 HD
ENDBRANCH  14  18
ENDBRANCH   9  12
ENDBRANCH   7   8
ENDBRANCH   6   7
ENDBRANCH   3   6
BRANCH   2  23
HETATM   23  C   UNL     1      -4.571   4.415 -33.024  1.00  0.00     0.043 A 
HETATM   24  C   UNL     1      -3.241   4.430 -32.582  1.00  0.00     0.030 A 
HETATM   25  C   UNL     1      -2.216   4.775 -33.466  1.00  0.00     0.002 A 
HETATM   26  C   UNL     1      -2.511   5.099 -34.788  1.00  0.00     0.000 A 
HETATM   27  C   UNL     1      -3.831   5.077 -35.233  1.00  0.00     0.002 A 
HETATM   28  C   UNL     1      -4.862   4.735 -34.356  1.00  0.00     0.030 A 
ENDBRANCH   2  23
BRANCH   1  29
HETATM   29  C   UNL     1      -4.971   1.608 -31.593  1.00  0.00     0.150 C 
HETATM   30  C   UNL     1      -5.617   0.432 -30.844  1.00  0.00     0.040 C 
BRANCH  29  31
HETATM   31  N   UNL     1      -4.715   1.186 -32.980  1.00  0.00    -0.379 N 
HETATM   32  H   UNL     1      -4.761   1.974 -33.624  1.00  0.00     0.160 HD
BRANCH  31  33
HETATM   33  C   UNL     1      -5.160  -0.017 -33.510  1.00  0.00     0.028 A 
HETATM   34  C   UNL     1      -4.291  -1.120 -33.511  1.00  0.00     0.030 A 
HETATM   35  C   UNL     1      -4.700  -2.373 -33.978  1.00  0.00     0.021 A 
HETATM   36  C   UNL     1      -6.004  -2.545 -34.426  1.00  0.00     0.011 A 
HETATM   37 BR   UNL     1      -6.576  -4.240 -35.033  1.00  0.00    -0.051 Br
HETATM   38  C   UNL     1      -6.893  -1.475 -34.415  1.00  0.00     0.021 A 
HETATM   39  C   UNL     1      -6.470  -0.221 -33.957  1.00  0.00     0.030 A 
ENDBRANCH  31  33
ENDBRANCH  29  31
ENDBRANCH   1  29
TORSDOF 9
ENDMDL
MODEL 9
REMARK VINA RESULT:      -8.8      2.286      4.220
REMARK  9 active torsions:
REMARK  status: ('A' for Active; 'I' for Inactive)
REMARK    1  A    between atoms: C_2  and  N_3 
REMARK    2  A    between atoms: C_2  and  C_11 
REMARK    3  A    between atoms: N_3  and  C_4 
REMARK    4  A    between atoms: N_12  and  C_13 
REMARK    5  A    between atoms: C_19  and  S_20 
REMARK    6  A    between atoms: S_20  and  C_21 
REMARK    7  A    between atoms: C_21  and  C_22 
REMARK       I    between atoms: C_22  and  N_23 
REMARK    8  A    between atoms: N_23  and  C_24 
REMARK    9  A    between atoms: C_26  and  N_27 
REMARK       I    between atoms: N_27  and  C_28 
ROOT
HETATM    1  C   UNL     1      -6.088   3.078 -31.757  1.00  0.00     0.158 A 
HETATM    2  N   UNL     1      -5.633   4.326 -32.184  1.00  0.00    -0.274 N 
HETATM    3  C   UNL     1      -6.501   5.217 -31.573  1.00  0.00     0.196 A 
HETATM    4  N   UNL     1      -7.447   4.569 -30.933  1.00  0.00    -0.122 NA
HETATM    5  N   UNL     1      -7.191   3.239 -31.043  1.00  0.00    -0.131 NA
ENDROOT
BRANCH   3   6
HETATM    6  S   UNL     1      -6.504   6.941 -31.769  1.00  0.00    -0.080 SA
BRANCH   6   7
HETATM    7  C   UNL     1      -6.899   7.484 -30.078  1.00  0.00     0.185 C 
BRANCH   7   8
HETATM    8  C   UNL     1      -5.658   7.412 -29.203  1.00  0.00     0.231 C 
HETATM    9  N   UNL     1      -4.590   8.153 -29.690  1.00  0.00    -0.326 N 
HETATM   10  H   UNL     1      -4.736   8.626 -30.582  1.00  0.00     0.169 HD
HETATM   11  O   UNL     1      -5.663   6.731 -28.181  1.00  0.00    -0.272 OA
BRANCH   9  12
HETATM   12  C   UNL     1      -3.294   8.250 -29.138  1.00  0.00     0.036 A 
HETATM   13  C   UNL     1      -2.469   7.111 -29.227  1.00  0.00     0.059 A 
HETATM   14  C   UNL     1      -1.175   7.113 -28.694  1.00  0.00     0.036 A 
HETATM   15  C   UNL     1      -0.720   8.271 -28.052  1.00  0.00     0.029 A 
HETATM   16  C   UNL     1      -1.523   9.405 -27.965  1.00  0.00     0.004 A 
HETATM   17  C   UNL     1      -2.806   9.394 -28.509  1.00  0.00     0.029 A 
BRANCH  14  18
HETATM   18  N   UNL     1      -0.275   6.031 -28.713  1.00  0.00    -0.327 N 
HETATM   19  C   UNL     1       0.473   5.427 -29.675  1.00  0.00     0.218 C 
HETATM   20  C   UNL     1       0.551   5.958 -31.073  1.00  0.00     0.117 C 
HETATM   21  O   UNL     1       1.120   4.424 -29.355  1.00  0.00    -0.274 OA
HETATM   22  H   UNL     1      -0.118   5.574 -27.821  1.00  0.00     0.169 HD
ENDBRANCH  14  18
ENDBRANCH   9  12
ENDBRANCH   7   8
ENDBRANCH   6   7
ENDBRANCH   3   6
BRANCH   2  23
HETATM   23  C   UNL     1      -4.538   4.603 -33.043  1.00  0.00     0.043 A 
HETATM   24  C   UNL     1      -4.770   4.968 -34.376  1.00  0.00     0.030 A 
HETATM   25  C   UNL     1      -3.693   5.234 -35.225  1.00  0.00     0.002 A 
HETATM   26  C   UNL     1      -2.387   5.142 -34.749  1.00  0.00     0.000 A 
HETATM   27  C   UNL     1      -2.152   4.787 -33.422  1.00  0.00     0.002 A 
HETATM   28  C   UNL     1      -3.223   4.518 -32.567  1.00  0.00     0.030 A 
ENDBRANCH   2  23
BRANCH   1  29
HETATM   29  C   UNL     1      -5.377   1.750 -31.929  1.00  0.00     0.150 C 
HETATM   30  C   UNL     1      -5.988   0.688 -31.003  1.00  0.00     0.040 C 
BRANCH  29  31
HETATM   31  N   UNL     1      -5.488   1.271 -33.317  1.00  0.00    -0.379 N 
HETATM   32  H   UNL     1      -6.059   1.897 -33.883  1.00  0.00     0.160 HD
BRANCH  31  33
HETATM   33  C   UNL     1      -5.592  -0.070 -33.659  1.00  0.00     0.028 A 
HETATM   34  C   UNL     1      -6.743  -0.510 -34.331  1.00  0.00     0.030 A 
HETATM   35  C   UNL     1      -6.882  -1.837 -34.753  1.00  0.00     0.021 A 
HETATM   36  C   UNL     1      -5.848  -2.738 -34.530  1.00  0.00     0.011 A 
HETATM   37 BR   UNL     1      -6.012  -4.525 -35.119  1.00  0.00    -0.051 Br
HETATM   38  C   UNL     1      -4.687  -2.323 -33.886  1.00  0.00     0.021 A 
HETATM   39  C   UNL     1      -4.563  -0.995 -33.457  1.00  0.00     0.030 A 
ENDBRANCH  31  33
ENDBRANCH  29  31
ENDBRANCH   1  29
TORSDOF 9
ENDMDL
MODEL 10
REMARK VINA RESULT:      -8.7      2.846      4.555
REMARK  9 active torsions:
REMARK  status: ('A' for Active; 'I' for Inactive)
REMARK    1  A    between atoms: C_2  and  N_3 
REMARK    2  A    between atoms: C_2  and  C_11 
REMARK    3  A    between atoms: N_3  and  C_4 
REMARK    4  A    between atoms: N_12  and  C_13 
REMARK    5  A    between atoms: C_19  and  S_20 
REMARK    6  A    between atoms: S_20  and  C_21 
REMARK    7  A    between atoms: C_21  and  C_22 
REMARK       I    between atoms: C_22  and  N_23 
REMARK    8  A    between atoms: N_23  and  C_24 
REMARK    9  A    between atoms: C_26  and  N_27 
REMARK       I    between atoms: N_27  and  C_28 
ROOT
HETATM    1  C   UNL     1      -4.052   3.230 -31.814  1.00  0.00     0.158 A 
HETATM    2  N   UNL     1      -4.424   4.251 -32.689  1.00  0.00    -0.274 N 
HETATM    3  C   UNL     1      -3.252   4.543 -33.369  1.00  0.00     0.196 A 
HETATM    4  N   UNL     1      -2.252   3.846 -32.879  1.00  0.00    -0.122 NA
HETATM    5  N   UNL     1      -2.747   3.027 -31.914  1.00  0.00    -0.131 NA
ENDROOT
BRANCH   3   6
HETATM    6  S   UNL     1      -3.041   5.790 -34.558  1.00  0.00    -0.080 SA
BRANCH   6   7
HETATM    7  C   UNL     1      -1.339   6.327 -34.202  1.00  0.00     0.185 C 
BRANCH   7   8
HETATM    8  C   UNL     1      -1.304   7.120 -32.904  1.00  0.00     0.231 C 
HETATM    9  N   UNL     1      -0.838   6.391 -31.820  1.00  0.00    -0.326 N 
HETATM   10  H   UNL     1      -0.610   5.412 -31.995  1.00  0.00     0.169 HD
HETATM   11  O   UNL     1      -1.678   8.290 -32.886  1.00  0.00    -0.272 OA
BRANCH   9  12
HETATM   12  C   UNL     1      -0.733   6.824 -30.479  1.00  0.00     0.036 A 
HETATM   13  C   UNL     1      -1.865   6.658 -29.658  1.00  0.00     0.059 A 
HETATM   14  C   UNL     1      -1.856   7.073 -28.321  1.00  0.00     0.036 A 
HETATM   15  C   UNL     1      -0.695   7.673 -27.818  1.00  0.00     0.029 A 
HETATM   16  C   UNL     1       0.433   7.835 -28.618  1.00  0.00     0.004 A 
HETATM   17  C   UNL     1       0.413   7.408 -29.945  1.00  0.00     0.029 A 
BRANCH  14  18
HETATM   18  N   UNL     1      -2.931   6.970 -27.419  1.00  0.00    -0.327 N 
HETATM   19  C   UNL     1      -3.973   7.776 -27.079  1.00  0.00     0.218 C 
HETATM   20  C   UNL     1      -4.249   9.064 -27.791  1.00  0.00     0.117 C 
HETATM   21  O   UNL     1      -4.717   7.399 -26.167  1.00  0.00    -0.274 OA
HETATM   22  H   UNL     1      -2.976   6.110 -26.884  1.00  0.00     0.169 HD
ENDBRANCH  14  18
ENDBRANCH   9  12
ENDBRANCH   7   8
ENDBRANCH   6   7
ENDBRANCH   3   6
BRANCH   2  23
HETATM   23  C   UNL     1      -5.706   4.843 -32.837  1.00  0.00     0.043 A 
HETATM   24  C   UNL     1      -6.063   5.943 -32.046  1.00  0.00     0.030 A 
HETATM   25  C   UNL     1      -7.327   6.522 -32.185  1.00  0.00     0.002 A 
HETATM   26  C   UNL     1      -8.233   6.012 -33.112  1.00  0.00     0.000 A 
HETATM   27  C   UNL     1      -7.879   4.922 -33.905  1.00  0.00     0.002 A 
HETATM   28  C   UNL     1      -6.618   4.337 -33.772  1.00  0.00     0.030 A 
ENDBRANCH   2  23
BRANCH   1  29
HETATM   29  C   UNL     1      -4.982   2.366 -30.986  1.00  0.00     0.150 C 
HETATM   30  C   UNL     1      -5.603   3.184 -29.844  1.00  0.00     0.040 C 
BRANCH  29  31
HETATM   31  N   UNL     1      -6.073   1.826 -31.814  1.00  0.00    -0.379 N 
HETATM   32  H   UNL     1      -6.974   1.912 -31.347  1.00  0.00     0.160 HD
BRANCH  31  33
HETATM   33  C   UNL     1      -5.944   0.697 -32.611  1.00  0.00     0.028 A 
HETATM   34  C   UNL     1      -4.997  -0.277 -32.256  1.00  0.00     0.030 A 
HETATM   35  C   UNL     1      -4.859  -1.463 -32.985  1.00  0.00     0.021 A 
HETATM   36  C   UNL     1      -5.694  -1.701 -34.070  1.00  0.00     0.011 A 
HETATM   37 BR   UNL     1      -5.535  -3.311 -35.046  1.00  0.00    -0.051 Br
HETATM   38  C   UNL     1      -6.656  -0.763 -34.430  1.00  0.00     0.021 A 
HETATM   39  C   UNL     1      -6.778   0.427 -33.701  1.00  0.00     0.030 A 
ENDBRANCH  31  33
ENDBRANCH  29  31
ENDBRANCH   1  29
TORSDOF 9
ENDMDL
