MODEL 1
REMARK VINA RESULT:      -9.9      0.000      0.000
REMARK  5 active torsions:
REMARK  status: ('A' for Active; 'I' for Inactive)
REMARK    1  A    between atoms: C_11  and  C_12 
REMARK    2  A    between atoms: C_15  and  N_16 
REMARK    3  A    between atoms: N_16  and  C_17 
REMARK    4  A    between atoms: C_18  and  O_19 
REMARK    5  A    between atoms: O_19  and  C_20 
ROOT
HETATM    1  C   UNL     1      -4.442   3.642 -31.600  1.00  0.00     0.077 C 
HETATM    2  C   UNL     1      -5.207   4.372 -30.508  1.00  0.00     0.023 C 
HETATM    3  N   UNL     1      -5.841   4.977 -29.602  1.00  0.00    -0.096 N 
HETATM    4  C   UNL     1      -3.109   3.851 -31.660  1.00  0.00     0.087 C 
ENDROOT
BRANCH   1   5
HETATM    5  C   UNL     1      -5.146   2.837 -32.549  1.00  0.00     0.118 A 
HETATM    6  N   UNL     1      -5.059   1.521 -32.665  1.00  0.00    -0.239 NA
HETATM    7  C   UNL     1      -5.898   1.035 -33.665  1.00  0.00     0.081 A 
HETATM    8  C   UNL     1      -5.912  -0.381 -33.940  1.00  0.00     0.070 A 
HETATM    9  C   UNL     1      -6.610   2.006 -34.332  1.00  0.00     0.084 A 
HETATM   10  C   UNL     1      -7.099  -0.999 -34.618  1.00  0.00     0.301 A 
HETATM   11  C   UNL     1      -4.875  -1.169 -33.594  1.00  0.00     0.034 A 
HETATM   12  O   UNL     1      -7.034  -2.357 -34.922  1.00  0.00    -0.274 OA
HETATM   13  O   UNL     1      -8.105  -0.360 -34.913  1.00  0.00    -0.259 OA
HETATM   14  C   UNL     1      -5.933  -3.147 -34.565  1.00  0.00     0.089 A 
HETATM   15  C   UNL     1      -4.853  -2.589 -33.895  1.00  0.00    -0.001 A 
HETATM   16  C   UNL     1      -5.971  -4.497 -34.904  1.00  0.00     0.038 A 
HETATM   17  C   UNL     1      -3.777  -3.410 -33.553  1.00  0.00     0.014 A 
HETATM   18  C   UNL     1      -3.798  -4.768 -33.886  1.00  0.00     0.001 A 
HETATM   19  C   UNL     1      -4.894  -5.311 -34.562  1.00  0.00     0.003 A 
HETATM   20  S   UNL     1      -6.273   3.543 -33.674  1.00  0.00    -0.078 SA
ENDBRANCH   1   5
BRANCH   4  21
HETATM   21  N   UNL     1      -2.353   4.649 -30.819  1.00  0.00    -0.266 NA
HETATM   22  H   UNL     1      -2.553   4.486 -29.827  1.00  0.00     0.133 HD
BRANCH  21  23
HETATM   23  C   UNL     1      -2.231   6.060 -30.976  1.00  0.00     0.046 A 
HETATM   24  C   UNL     1      -1.595   6.555 -32.131  1.00  0.00     0.096 A 
HETATM   25  C   UNL     1      -1.418   7.922 -32.342  1.00  0.00     0.039 A 
HETATM   26  C   UNL     1      -1.929   8.826 -31.416  1.00  0.00     0.003 A 
HETATM   27  C   UNL     1      -2.611   8.360 -30.291  1.00  0.00     0.002 A 
HETATM   28  C   UNL     1      -2.770   6.986 -30.077  1.00  0.00     0.026 A 
BRANCH  24  29
HETATM   29  O   UNL     1      -1.110   5.670 -33.061  1.00  0.00    -0.288 OA
BRANCH  29  30
HETATM   30  C   UNL     1      -1.578   6.052 -34.352  1.00  0.00     0.505 C 
HETATM   31  F   UNL     1      -0.936   5.296 -35.279  1.00  0.00    -0.184 F 
HETATM   32  F   UNL     1      -2.889   5.709 -34.416  1.00  0.00    -0.184 F 
ENDBRANCH  29  30
ENDBRANCH  24  29
ENDBRANCH  21  23
ENDBRANCH   4  21
TORSDOF 5
ENDMDL
MODEL 2
REMARK VINA RESULT:      -9.8      3.413      9.156
REMARK  5 active torsions:
REMARK  status: ('A' for Active; 'I' for Inactive)
REMARK    1  A    between atoms: C_11  and  C_12 
REMARK    2  A    between atoms: C_15  and  N_16 
REMARK    3  A    between atoms: N_16  and  C_17 
REMARK    4  A    between atoms: C_18  and  O_19 
REMARK    5  A    between atoms: O_19  and  C_20 
ROOT
HETATM    1  C   UNL     1      -6.474   1.052 -33.124  1.00  0.00     0.077 C 
HETATM    2  C   UNL     1      -7.848   0.403 -33.143  1.00  0.00     0.023 C 
HETATM    3  N   UNL     1      -8.989  -0.135 -33.159  1.00  0.00    -0.096 N 
HETATM    4  C   UNL     1      -5.434   0.299 -33.543  1.00  0.00     0.087 C 
ENDROOT
BRANCH   1   5
HETATM    5  C   UNL     1      -6.317   2.377 -32.609  1.00  0.00     0.118 A 
HETATM    6  N   UNL     1      -5.169   3.017 -32.455  1.00  0.00    -0.239 NA
HETATM    7  C   UNL     1      -5.359   4.305 -31.961  1.00  0.00     0.081 A 
HETATM    8  C   UNL     1      -4.207   5.137 -31.713  1.00  0.00     0.070 A 
HETATM    9  C   UNL     1      -6.673   4.631 -31.714  1.00  0.00     0.084 A 
HETATM   10  C   UNL     1      -4.359   6.629 -31.665  1.00  0.00     0.301 A 
HETATM   11  C   UNL     1      -2.985   4.599 -31.525  1.00  0.00     0.034 A 
HETATM   12  O   UNL     1      -3.229   7.382 -31.355  1.00  0.00    -0.274 OA
HETATM   13  O   UNL     1      -5.425   7.198 -31.881  1.00  0.00    -0.259 OA
HETATM   14  C   UNL     1      -1.975   6.793 -31.147  1.00  0.00     0.089 A 
HETATM   15  C   UNL     1      -1.820   5.416 -31.237  1.00  0.00    -0.001 A 
HETATM   16  C   UNL     1      -0.907   7.636 -30.853  1.00  0.00     0.038 A 
HETATM   17  C   UNL     1      -0.554   4.866 -31.028  1.00  0.00     0.014 A 
HETATM   18  C   UNL     1       0.530   5.699 -30.732  1.00  0.00     0.001 A 
HETATM   19  C   UNL     1       0.355   7.082 -30.643  1.00  0.00     0.003 A 
HETATM   20  S   UNL     1      -7.696   3.337 -32.150  1.00  0.00    -0.078 SA
ENDBRANCH   1   5
BRANCH   4  21
HETATM   21  N   UNL     1      -5.484  -1.004 -34.010  1.00  0.00    -0.266 NA
HETATM   22  H   UNL     1      -6.439  -1.376 -34.055  1.00  0.00     0.133 HD
BRANCH  21  23
HETATM   23  C   UNL     1      -4.670  -2.053 -33.494  1.00  0.00     0.046 A 
HETATM   24  C   UNL     1      -4.681  -3.298 -34.152  1.00  0.00     0.096 A 
HETATM   25  C   UNL     1      -3.929  -4.379 -33.692  1.00  0.00     0.039 A 
HETATM   26  C   UNL     1      -3.103  -4.212 -32.585  1.00  0.00     0.003 A 
HETATM   27  C   UNL     1      -3.033  -2.971 -31.950  1.00  0.00     0.002 A 
HETATM   28  C   UNL     1      -3.804  -1.896 -32.407  1.00  0.00     0.026 A 
BRANCH  24  29
HETATM   29  O   UNL     1      -5.477  -3.464 -35.258  1.00  0.00    -0.288 OA
BRANCH  29  30
HETATM   30  C   UNL     1      -6.523  -4.380 -34.943  1.00  0.00     0.505 C 
HETATM   31  F   UNL     1      -7.440  -3.732 -34.179  1.00  0.00    -0.184 F 
HETATM   32  F   UNL     1      -7.144  -4.689 -36.109  1.00  0.00    -0.184 F 
ENDBRANCH  29  30
ENDBRANCH  24  29
ENDBRANCH  21  23
ENDBRANCH   4  21
TORSDOF 5
ENDMDL
MODEL 3
REMARK VINA RESULT:      -9.7      5.424      8.175
REMARK  5 active torsions:
REMARK  status: ('A' for Active; 'I' for Inactive)
REMARK    1  A    between atoms: C_11  and  C_12 
REMARK    2  A    between atoms: C_15  and  N_16 
REMARK    3  A    between atoms: N_16  and  C_17 
REMARK    4  A    between atoms: C_18  and  O_19 
REMARK    5  A    between atoms: O_19  and  C_20 
ROOT
HETATM    1  C   UNL     1      -9.505   3.309 -33.836  1.00  0.00     0.077 C 
HETATM    2  C   UNL     1      -9.543   4.820 -33.993  1.00  0.00     0.023 C 
HETATM    3  N   UNL     1      -9.575   6.074 -34.123  1.00  0.00    -0.096 N 
HETATM    4  C   UNL     1     -10.649   2.636 -34.092  1.00  0.00     0.087 C 
ENDROOT
BRANCH   1   5
HETATM    5  C   UNL     1      -8.315   2.669 -33.367  1.00  0.00     0.118 A 
HETATM    6  N   UNL     1      -7.857   1.494 -33.770  1.00  0.00    -0.239 NA
HETATM    7  C   UNL     1      -6.657   1.167 -33.144  1.00  0.00     0.081 A 
HETATM    8  C   UNL     1      -6.027  -0.093 -33.453  1.00  0.00     0.070 A 
HETATM    9  C   UNL     1      -6.217   2.101 -32.233  1.00  0.00     0.084 A 
HETATM   10  C   UNL     1      -4.557  -0.274 -33.211  1.00  0.00     0.301 A 
HETATM   11  C   UNL     1      -6.735  -1.121 -33.962  1.00  0.00     0.034 A 
HETATM   12  O   UNL     1      -4.012  -1.530 -33.461  1.00  0.00    -0.274 OA
HETATM   13  O   UNL     1      -3.833   0.630 -32.803  1.00  0.00    -0.259 OA
HETATM   14  C   UNL     1      -4.778  -2.585 -33.975  1.00  0.00     0.089 A 
HETATM   15  C   UNL     1      -6.128  -2.409 -34.245  1.00  0.00    -0.001 A 
HETATM   16  C   UNL     1      -4.134  -3.799 -34.201  1.00  0.00     0.038 A 
HETATM   17  C   UNL     1      -6.857  -3.483 -34.759  1.00  0.00     0.014 A 
HETATM   18  C   UNL     1      -6.226  -4.710 -34.992  1.00  0.00     0.001 A 
HETATM   19  C   UNL     1      -4.867  -4.868 -34.713  1.00  0.00     0.003 A 
HETATM   20  S   UNL     1      -7.283   3.432 -32.190  1.00  0.00    -0.078 SA
ENDBRANCH   1   5
BRANCH   4  21
HETATM   21  N   UNL     1     -11.857   3.174 -34.501  1.00  0.00    -0.266 NA
HETATM   22  H   UNL     1     -11.768   4.130 -34.860  1.00  0.00     0.133 HD
BRANCH  21  23
HETATM   23  C   UNL     1     -13.035   3.157 -33.699  1.00  0.00     0.046 A 
HETATM   24  C   UNL     1     -13.791   1.971 -33.641  1.00  0.00     0.096 A 
HETATM   25  C   UNL     1     -14.967   1.885 -32.896  1.00  0.00     0.039 A 
HETATM   26  C   UNL     1     -15.380   2.983 -32.147  1.00  0.00     0.003 A 
HETATM   27  C   UNL     1     -14.617   4.151 -32.145  1.00  0.00     0.002 A 
HETATM   28  C   UNL     1     -13.446   4.235 -32.908  1.00  0.00     0.026 A 
BRANCH  24  29
HETATM   29  O   UNL     1     -13.378   0.876 -34.359  1.00  0.00    -0.288 OA
BRANCH  29  30
HETATM   30  C   UNL     1     -13.128  -0.201 -33.458  1.00  0.00     0.505 C 
HETATM   31  F   UNL     1     -13.387  -1.366 -34.106  1.00  0.00    -0.184 F 
HETATM   32  F   UNL     1     -11.797  -0.195 -33.194  1.00  0.00    -0.184 F 
ENDBRANCH  29  30
ENDBRANCH  24  29
ENDBRANCH  21  23
ENDBRANCH   4  21
TORSDOF 5
ENDMDL
MODEL 4
REMARK VINA RESULT:      -9.6      5.394      8.132
REMARK  5 active torsions:
REMARK  status: ('A' for Active; 'I' for Inactive)
REMARK    1  A    between atoms: C_11  and  C_12 
REMARK    2  A    between atoms: C_15  and  N_16 
REMARK    3  A    between atoms: N_16  and  C_17 
REMARK    4  A    between atoms: C_18  and  O_19 
REMARK    5  A    between atoms: O_19  and  C_20 
ROOT
HETATM    1  C   UNL     1      -9.453   3.331 -32.956  1.00  0.00     0.077 C 
HETATM    2  C   UNL     1      -9.752   4.675 -32.313  1.00  0.00     0.023 C 
HETATM    3  N   UNL     1     -10.000   5.791 -31.779  1.00  0.00    -0.096 N 
HETATM    4  C   UNL     1     -10.415   2.798 -33.739  1.00  0.00     0.087 C 
ENDROOT
BRANCH   1   5
HETATM    5  C   UNL     1      -8.226   2.657 -32.664  1.00  0.00     0.118 A 
HETATM    6  N   UNL     1      -7.823   1.514 -33.197  1.00  0.00    -0.239 NA
HETATM    7  C   UNL     1      -6.567   1.141 -32.728  1.00  0.00     0.081 A 
HETATM    8  C   UNL     1      -5.985  -0.095 -33.192  1.00  0.00     0.070 A 
HETATM    9  C   UNL     1      -6.024   2.005 -31.804  1.00  0.00     0.084 A 
HETATM   10  C   UNL     1      -4.500  -0.295 -33.122  1.00  0.00     0.301 A 
HETATM   11  C   UNL     1      -6.752  -1.081 -33.695  1.00  0.00     0.034 A 
HETATM   12  O   UNL     1      -3.995  -1.531 -33.519  1.00  0.00    -0.274 OA
HETATM   13  O   UNL     1      -3.728   0.576 -32.729  1.00  0.00    -0.259 OA
HETATM   14  C   UNL     1      -4.821  -2.544 -34.022  1.00  0.00     0.089 A 
HETATM   15  C   UNL     1      -6.191  -2.347 -34.133  1.00  0.00    -0.001 A 
HETATM   16  C   UNL     1      -4.217  -3.740 -34.402  1.00  0.00     0.038 A 
HETATM   17  C   UNL     1      -6.980  -3.380 -34.643  1.00  0.00     0.014 A 
HETATM   18  C   UNL     1      -6.390  -4.587 -35.030  1.00  0.00     0.001 A 
HETATM   19  C   UNL     1      -5.010  -4.768 -34.909  1.00  0.00     0.003 A 
HETATM   20  S   UNL     1      -7.067   3.331 -31.551  1.00  0.00    -0.078 SA
ENDBRANCH   1   5
BRANCH   4  21
HETATM   21  N   UNL     1     -11.648   3.352 -34.038  1.00  0.00    -0.266 NA
HETATM   22  H   UNL     1     -11.745   4.316 -33.701  1.00  0.00     0.133 HD
BRANCH  21  23
HETATM   23  C   UNL     1     -12.887   2.706 -33.760  1.00  0.00     0.046 A 
HETATM   24  C   UNL     1     -13.679   3.197 -32.704  1.00  0.00     0.096 A 
HETATM   25  C   UNL     1     -14.892   2.602 -32.358  1.00  0.00     0.039 A 
HETATM   26  C   UNL     1     -15.362   1.527 -33.106  1.00  0.00     0.003 A 
HETATM   27  C   UNL     1     -14.620   1.058 -34.191  1.00  0.00     0.002 A 
HETATM   28  C   UNL     1     -13.395   1.649 -34.522  1.00  0.00     0.026 A 
BRANCH  24  29
HETATM   29  O   UNL     1     -13.234   4.272 -31.976  1.00  0.00    -0.288 OA
BRANCH  29  30
HETATM   30  C   UNL     1     -13.316   3.956 -30.588  1.00  0.00     0.505 C 
HETATM   31  F   UNL     1     -12.053   3.849 -30.100  1.00  0.00    -0.184 F 
HETATM   32  F   UNL     1     -13.878   5.026 -29.970  1.00  0.00    -0.184 F 
ENDBRANCH  29  30
ENDBRANCH  24  29
ENDBRANCH  21  23
ENDBRANCH   4  21
TORSDOF 5
ENDMDL
MODEL 5
REMARK VINA RESULT:      -9.5      2.529      2.938
REMARK  5 active torsions:
REMARK  status: ('A' for Active; 'I' for Inactive)
REMARK    1  A    between atoms: C_11  and  C_12 
REMARK    2  A    between atoms: C_15  and  N_16 
REMARK    3  A    between atoms: N_16  and  C_17 
REMARK    4  A    between atoms: C_18  and  O_19 
REMARK    5  A    between atoms: O_19  and  C_20 
ROOT
HETATM    1  C   UNL     1      -5.032   3.867 -31.478  1.00  0.00     0.077 C 
HETATM    2  C   UNL     1      -5.879   4.160 -30.250  1.00  0.00     0.023 C 
HETATM    3  N   UNL     1      -6.582   4.402 -29.232  1.00  0.00    -0.096 N 
HETATM    4  C   UNL     1      -3.836   4.489 -31.560  1.00  0.00     0.087 C 
ENDROOT
BRANCH   1   5
HETATM    5  C   UNL     1      -5.542   3.023 -32.513  1.00  0.00     0.118 A 
HETATM    6  N   UNL     1      -5.378   1.712 -32.596  1.00  0.00    -0.239 NA
HETATM    7  C   UNL     1      -6.028   1.181 -33.707  1.00  0.00     0.081 A 
HETATM    8  C   UNL     1      -5.934  -0.236 -33.962  1.00  0.00     0.070 A 
HETATM    9  C   UNL     1      -6.672   2.112 -34.490  1.00  0.00     0.084 A 
HETATM   10  C   UNL     1      -6.971  -0.915 -34.807  1.00  0.00     0.301 A 
HETATM   11  C   UNL     1      -4.927  -0.972 -33.449  1.00  0.00     0.034 A 
HETATM   12  O   UNL     1      -6.797  -2.269 -35.079  1.00  0.00    -0.274 OA
HETATM   13  O   UNL     1      -7.948  -0.327 -35.263  1.00  0.00    -0.259 OA
HETATM   14  C   UNL     1      -5.730  -3.004 -34.545  1.00  0.00     0.089 A 
HETATM   15  C   UNL     1      -4.794  -2.391 -33.724  1.00  0.00    -0.001 A 
HETATM   16  C   UNL     1      -5.652  -4.356 -34.868  1.00  0.00     0.038 A 
HETATM   17  C   UNL     1      -3.747  -3.158 -33.208  1.00  0.00     0.014 A 
HETATM   18  C   UNL     1      -3.654  -4.518 -33.522  1.00  0.00     0.001 A 
HETATM   19  C   UNL     1      -4.605  -5.117 -34.353  1.00  0.00     0.003 A 
HETATM   20  S   UNL     1      -6.512   3.668 -33.808  1.00  0.00    -0.078 SA
ENDBRANCH   1   5
BRANCH   4  21
HETATM   21  N   UNL     1      -3.283   5.357 -30.634  1.00  0.00    -0.266 NA
HETATM   22  H   UNL     1      -3.869   6.180 -30.459  1.00  0.00     0.133 HD
BRANCH  21  23
HETATM   23  C   UNL     1      -1.941   5.830 -30.707  1.00  0.00     0.046 A 
HETATM   24  C   UNL     1      -1.498   6.745 -29.733  1.00  0.00     0.096 A 
HETATM   25  C   UNL     1      -0.206   7.270 -29.752  1.00  0.00     0.039 A 
HETATM   26  C   UNL     1       0.689   6.842 -30.727  1.00  0.00     0.003 A 
HETATM   27  C   UNL     1       0.289   5.894 -31.670  1.00  0.00     0.002 A 
HETATM   28  C   UNL     1      -1.014   5.384 -31.655  1.00  0.00     0.026 A 
BRANCH  24  29
HETATM   29  O   UNL     1      -2.368   7.156 -28.753  1.00  0.00    -0.288 OA
BRANCH  29  30
HETATM   30  C   UNL     1      -1.619   7.696 -27.666  1.00  0.00     0.505 C 
HETATM   31  F   UNL     1      -2.197   8.866 -27.291  1.00  0.00    -0.184 F 
HETATM   32  F   UNL     1      -1.765   6.843 -26.621  1.00  0.00    -0.184 F 
ENDBRANCH  29  30
ENDBRANCH  24  29
ENDBRANCH  21  23
ENDBRANCH   4  21
TORSDOF 5
ENDMDL
MODEL 6
REMARK VINA RESULT:      -9.2      3.646      5.891
REMARK  5 active torsions:
REMARK  status: ('A' for Active; 'I' for Inactive)
REMARK    1  A    between atoms: C_11  and  C_12 
REMARK    2  A    between atoms: C_15  and  N_16 
REMARK    3  A    between atoms: N_16  and  C_17 
REMARK    4  A    between atoms: C_18  and  O_19 
REMARK    5  A    between atoms: O_19  and  C_20 
ROOT
HETATM    1  C   UNL     1      -4.526   1.690 -31.792  1.00  0.00     0.077 C 
HETATM    2  C   UNL     1      -3.496   0.599 -31.546  1.00  0.00     0.023 C 
HETATM    3  N   UNL     1      -2.642  -0.306 -31.342  1.00  0.00    -0.096 N 
HETATM    4  C   UNL     1      -4.064   2.954 -31.911  1.00  0.00     0.087 C 
ENDROOT
BRANCH   1   5
HETATM    5  C   UNL     1      -5.918   1.365 -31.819  1.00  0.00     0.118 A 
HETATM    6  N   UNL     1      -6.837   1.952 -32.569  1.00  0.00    -0.239 NA
HETATM    7  C   UNL     1      -8.094   1.382 -32.386  1.00  0.00     0.081 A 
HETATM    8  C   UNL     1      -9.219   1.917 -33.113  1.00  0.00     0.070 A 
HETATM    9  C   UNL     1      -8.127   0.363 -31.460  1.00  0.00     0.084 A 
HETATM   10  C   UNL     1     -10.437   1.071 -33.335  1.00  0.00     0.301 A 
HETATM   11  C   UNL     1      -9.197   3.171 -33.606  1.00  0.00     0.034 A 
HETATM   12  O   UNL     1     -11.521   1.657 -33.984  1.00  0.00    -0.274 OA
HETATM   13  O   UNL     1     -10.512  -0.099 -32.968  1.00  0.00    -0.259 OA
HETATM   14  C   UNL     1     -11.475   2.970 -34.470  1.00  0.00     0.089 A 
HETATM   15  C   UNL     1     -10.333   3.742 -34.309  1.00  0.00    -0.001 A 
HETATM   16  C   UNL     1     -12.609   3.459 -35.114  1.00  0.00     0.038 A 
HETATM   17  C   UNL     1     -10.325   5.045 -34.810  1.00  0.00     0.014 A 
HETATM   18  C   UNL     1     -11.455   5.552 -35.460  1.00  0.00     0.001 A 
HETATM   19  C   UNL     1     -12.596   4.761 -35.612  1.00  0.00     0.003 A 
HETATM   20  S   UNL     1      -6.563   0.073 -30.845  1.00  0.00    -0.078 SA
ENDBRANCH   1   5
BRANCH   4  21
HETATM   21  N   UNL     1      -2.744   3.367 -31.850  1.00  0.00    -0.266 NA
HETATM   22  H   UNL     1      -2.358   3.331 -30.901  1.00  0.00     0.133 HD
BRANCH  21  23
HETATM   23  C   UNL     1      -2.276   4.583 -32.427  1.00  0.00     0.046 A 
HETATM   24  C   UNL     1      -1.095   5.157 -31.919  1.00  0.00     0.096 A 
HETATM   25  C   UNL     1      -0.588   6.357 -32.416  1.00  0.00     0.039 A 
HETATM   26  C   UNL     1      -1.235   6.981 -33.478  1.00  0.00     0.003 A 
HETATM   27  C   UNL     1      -2.376   6.403 -34.035  1.00  0.00     0.002 A 
HETATM   28  C   UNL     1      -2.889   5.207 -33.519  1.00  0.00     0.026 A 
BRANCH  24  29
HETATM   29  O   UNL     1      -0.438   4.535 -30.886  1.00  0.00    -0.288 OA
BRANCH  29  30
HETATM   30  C   UNL     1       0.767   5.246 -30.609  1.00  0.00     0.505 C 
HETATM   31  F   UNL     1       0.893   5.363 -29.262  1.00  0.00    -0.184 F 
HETATM   32  F   UNL     1       1.794   4.462 -31.024  1.00  0.00    -0.184 F 
ENDBRANCH  29  30
ENDBRANCH  24  29
ENDBRANCH  21  23
ENDBRANCH   4  21
TORSDOF 5
ENDMDL
MODEL 7
REMARK VINA RESULT:      -9.1      2.024      2.532
REMARK  5 active torsions:
REMARK  status: ('A' for Active; 'I' for Inactive)
REMARK    1  A    between atoms: C_11  and  C_12 
REMARK    2  A    between atoms: C_15  and  N_16 
REMARK    3  A    between atoms: N_16  and  C_17 
REMARK    4  A    between atoms: C_18  and  O_19 
REMARK    5  A    between atoms: O_19  and  C_20 
ROOT
HETATM    1  C   UNL     1      -4.265   4.403 -31.914  1.00  0.00     0.077 C 
HETATM    2  C   UNL     1      -2.825   4.541 -32.381  1.00  0.00     0.023 C 
HETATM    3  N   UNL     1      -1.631   4.656 -32.769  1.00  0.00    -0.096 N 
HETATM    4  C   UNL     1      -4.587   4.984 -30.738  1.00  0.00     0.087 C 
ENDROOT
BRANCH   1   5
HETATM    5  C   UNL     1      -5.191   3.622 -32.675  1.00  0.00     0.118 A 
HETATM    6  N   UNL     1      -5.169   2.306 -32.809  1.00  0.00    -0.239 NA
HETATM    7  C   UNL     1      -6.229   1.849 -33.588  1.00  0.00     0.081 A 
HETATM    8  C   UNL     1      -6.344   0.436 -33.853  1.00  0.00     0.070 A 
HETATM    9  C   UNL     1      -7.049   2.843 -34.071  1.00  0.00     0.084 A 
HETATM   10  C   UNL     1      -7.672  -0.146 -34.239  1.00  0.00     0.301 A 
HETATM   11  C   UNL     1      -5.277  -0.382 -33.757  1.00  0.00     0.034 A 
HETATM   12  O   UNL     1      -7.716  -1.503 -34.551  1.00  0.00    -0.274 OA
HETATM   13  O   UNL     1      -8.702   0.521 -34.293  1.00  0.00    -0.259 OA
HETATM   14  C   UNL     1      -6.585  -2.324 -34.459  1.00  0.00     0.089 A 
HETATM   15  C   UNL     1      -5.364  -1.800 -34.056  1.00  0.00    -0.001 A 
HETATM   16  C   UNL     1      -6.736  -3.670 -34.781  1.00  0.00     0.038 A 
HETATM   17  C   UNL     1      -4.260  -2.651 -33.973  1.00  0.00     0.014 A 
HETATM   18  C   UNL     1      -4.395  -4.006 -34.293  1.00  0.00     0.001 A 
HETATM   19  C   UNL     1      -5.632  -4.515 -34.698  1.00  0.00     0.003 A 
HETATM   20  S   UNL     1      -6.528   4.366 -33.508  1.00  0.00    -0.078 SA
ENDBRANCH   1   5
BRANCH   4  21
HETATM   21  N   UNL     1      -3.748   5.713 -29.913  1.00  0.00    -0.266 NA
HETATM   22  H   UNL     1      -3.943   5.567 -28.916  1.00  0.00     0.133 HD
BRANCH  21  23
HETATM   23  C   UNL     1      -3.509   7.109 -30.073  1.00  0.00     0.046 A 
HETATM   24  C   UNL     1      -2.247   7.620 -29.714  1.00  0.00     0.096 A 
HETATM   25  C   UNL     1      -1.947   8.978 -29.821  1.00  0.00     0.039 A 
HETATM   26  C   UNL     1      -2.899   9.846 -30.346  1.00  0.00     0.003 A 
HETATM   27  C   UNL     1      -4.138   9.353 -30.760  1.00  0.00     0.002 A 
HETATM   28  C   UNL     1      -4.438   7.992 -30.633  1.00  0.00     0.026 A 
BRANCH  24  29
HETATM   29  O   UNL     1      -1.295   6.766 -29.217  1.00  0.00    -0.288 OA
BRANCH  29  30
HETATM   30  C   UNL     1      -0.139   6.825 -30.052  1.00  0.00     0.505 C 
HETATM   31  F   UNL     1       0.860   7.424 -29.354  1.00  0.00    -0.184 F 
HETATM   32  F   UNL     1       0.258   5.546 -30.270  1.00  0.00    -0.184 F 
ENDBRANCH  29  30
ENDBRANCH  24  29
ENDBRANCH  21  23
ENDBRANCH   4  21
TORSDOF 5
ENDMDL
MODEL 8
REMARK VINA RESULT:      -9.1      4.435      6.410
REMARK  5 active torsions:
REMARK  status: ('A' for Active; 'I' for Inactive)
REMARK    1  A    between atoms: C_11  and  C_12 
REMARK    2  A    between atoms: C_15  and  N_16 
REMARK    3  A    between atoms: N_16  and  C_17 
REMARK    4  A    between atoms: C_18  and  O_19 
REMARK    5  A    between atoms: O_19  and  C_20 
ROOT
HETATM    1  C   UNL     1      -7.490   4.309 -32.698  1.00  0.00     0.077 C 
HETATM    2  C   UNL     1      -8.279   5.002 -31.600  1.00  0.00     0.023 C 
HETATM    3  N   UNL     1      -8.933   5.578 -30.688  1.00  0.00    -0.096 N 
HETATM    4  C   UNL     1      -7.779   4.653 -33.972  1.00  0.00     0.087 C 
ENDROOT
BRANCH   1   5
HETATM    5  C   UNL     1      -6.543   3.290 -32.364  1.00  0.00     0.118 A 
HETATM    6  N   UNL     1      -6.445   2.104 -32.942  1.00  0.00    -0.239 NA
HETATM    7  C   UNL     1      -5.399   1.356 -32.409  1.00  0.00     0.081 A 
HETATM    8  C   UNL     1      -5.163   0.024 -32.912  1.00  0.00     0.070 A 
HETATM    9  C   UNL     1      -4.713   1.980 -31.392  1.00  0.00     0.084 A 
HETATM   10  C   UNL     1      -3.813  -0.609 -32.748  1.00  0.00     0.301 A 
HETATM   11  C   UNL     1      -6.136  -0.669 -33.536  1.00  0.00     0.034 A 
HETATM   12  O   UNL     1      -3.656  -1.920 -33.190  1.00  0.00    -0.274 OA
HETATM   13  O   UNL     1      -2.859  -0.023 -32.242  1.00  0.00    -0.259 OA
HETATM   14  C   UNL     1      -4.693  -2.622 -33.819  1.00  0.00     0.089 A 
HETATM   15  C   UNL     1      -5.930  -2.023 -34.016  1.00  0.00    -0.001 A 
HETATM   16  C   UNL     1      -4.431  -3.924 -34.235  1.00  0.00     0.038 A 
HETATM   17  C   UNL     1      -6.937  -2.753 -34.651  1.00  0.00     0.014 A 
HETATM   18  C   UNL     1      -6.691  -4.063 -35.075  1.00  0.00     0.001 A 
HETATM   19  C   UNL     1      -5.440  -4.649 -34.866  1.00  0.00     0.003 A 
HETATM   20  S   UNL     1      -5.343   3.543 -31.127  1.00  0.00    -0.078 SA
ENDBRANCH   1   5
BRANCH   4  21
HETATM   21  N   UNL     1      -8.710   5.588 -34.391  1.00  0.00    -0.266 NA
HETATM   22  H   UNL     1      -8.792   6.384 -33.750  1.00  0.00     0.133 HD
BRANCH  21  23
HETATM   23  C   UNL     1     -10.037   5.252 -34.784  1.00  0.00     0.046 A 
HETATM   24  C   UNL     1     -10.913   6.291 -35.151  1.00  0.00     0.096 A 
HETATM   25  C   UNL     1     -12.234   6.042 -35.524  1.00  0.00     0.039 A 
HETATM   26  C   UNL     1     -12.687   4.728 -35.588  1.00  0.00     0.003 A 
HETATM   27  C   UNL     1     -11.820   3.677 -35.282  1.00  0.00     0.002 A 
HETATM   28  C   UNL     1     -10.501   3.936 -34.892  1.00  0.00     0.026 A 
BRANCH  24  29
HETATM   29  O   UNL     1     -10.467   7.589 -35.113  1.00  0.00    -0.288 OA
BRANCH  29  30
HETATM   30  C   UNL     1     -10.732   8.206 -36.371  1.00  0.00     0.505 C 
HETATM   31  F   UNL     1     -10.539   9.544 -36.238  1.00  0.00    -0.184 F 
HETATM   32  F   UNL     1      -9.785   7.765 -37.237  1.00  0.00    -0.184 F 
ENDBRANCH  29  30
ENDBRANCH  24  29
ENDBRANCH  21  23
ENDBRANCH   4  21
TORSDOF 5
ENDMDL
MODEL 9
REMARK VINA RESULT:      -8.9      3.035      3.634
REMARK  5 active torsions:
REMARK  status: ('A' for Active; 'I' for Inactive)
REMARK    1  A    between atoms: C_11  and  C_12 
REMARK    2  A    between atoms: C_15  and  N_16 
REMARK    3  A    between atoms: N_16  and  C_17 
REMARK    4  A    between atoms: C_18  and  O_19 
REMARK    5  A    between atoms: O_19  and  C_20 
ROOT
HETATM    1  C   UNL     1      -5.520   5.184 -30.111  1.00  0.00     0.077 C 
HETATM    2  C   UNL     1      -6.062   5.955 -28.918  1.00  0.00     0.023 C 
HETATM    3  N   UNL     1      -6.511   6.594 -27.928  1.00  0.00    -0.096 N 
HETATM    4  C   UNL     1      -4.216   5.361 -30.415  1.00  0.00     0.087 C 
ENDROOT
BRANCH   1   5
HETATM    5  C   UNL     1      -6.399   4.374 -30.896  1.00  0.00     0.118 A 
HETATM    6  N   UNL     1      -6.148   3.145 -31.320  1.00  0.00    -0.239 NA
HETATM    7  C   UNL     1      -7.221   2.617 -32.034  1.00  0.00     0.081 A 
HETATM    8  C   UNL     1      -7.109   1.290 -32.588  1.00  0.00     0.070 A 
HETATM    9  C   UNL     1      -8.289   3.474 -32.173  1.00  0.00     0.084 A 
HETATM   10  C   UNL     1      -8.346   0.509 -32.914  1.00  0.00     0.301 A 
HETATM   11  C   UNL     1      -5.904   0.730 -32.817  1.00  0.00     0.034 A 
HETATM   12  O   UNL     1      -8.183  -0.740 -33.510  1.00  0.00    -0.274 OA
HETATM   13  O   UNL     1      -9.478   0.925 -32.683  1.00  0.00    -0.259 OA
HETATM   14  C   UNL     1      -6.917  -1.289 -33.752  1.00  0.00     0.089 A 
HETATM   15  C   UNL     1      -5.769  -0.589 -33.408  1.00  0.00    -0.001 A 
HETATM   16  C   UNL     1      -6.863  -2.549 -34.342  1.00  0.00     0.038 A 
HETATM   17  C   UNL     1      -4.525  -1.172 -33.662  1.00  0.00     0.014 A 
HETATM   18  C   UNL     1      -4.452  -2.437 -34.254  1.00  0.00     0.001 A 
HETATM   19  C   UNL     1      -5.619  -3.125 -34.595  1.00  0.00     0.003 A 
HETATM   20  S   UNL     1      -7.979   4.942 -31.360  1.00  0.00    -0.078 SA
ENDBRANCH   1   5
BRANCH   4  21
HETATM   21  N   UNL     1      -3.306   6.160 -29.745  1.00  0.00    -0.266 NA
HETATM   22  H   UNL     1      -3.702   7.061 -29.457  1.00  0.00     0.133 HD
BRANCH  21  23
HETATM   23  C   UNL     1      -1.996   6.436 -30.233  1.00  0.00     0.046 A 
HETATM   24  C   UNL     1      -0.990   6.767 -29.305  1.00  0.00     0.096 A 
HETATM   25  C   UNL     1       0.310   7.073 -29.709  1.00  0.00     0.039 A 
HETATM   26  C   UNL     1       0.638   6.997 -31.059  1.00  0.00     0.003 A 
HETATM   27  C   UNL     1      -0.329   6.617 -31.991  1.00  0.00     0.002 A 
HETATM   28  C   UNL     1      -1.635   6.329 -31.580  1.00  0.00     0.026 A 
BRANCH  24  29
HETATM   29  O   UNL     1      -1.300   6.822 -27.969  1.00  0.00    -0.288 OA
BRANCH  29  30
HETATM   30  C   UNL     1      -0.181   6.360 -27.215  1.00  0.00     0.505 C 
HETATM   31  F   UNL     1       0.346   7.418 -26.545  1.00  0.00    -0.184 F 
HETATM   32  F   UNL     1      -0.662   5.509 -26.273  1.00  0.00    -0.184 F 
ENDBRANCH  29  30
ENDBRANCH  24  29
ENDBRANCH  21  23
ENDBRANCH   4  21
TORSDOF 5
ENDMDL
MODEL 10
REMARK VINA RESULT:      -8.8      4.141      6.222
REMARK  5 active torsions:
REMARK  status: ('A' for Active; 'I' for Inactive)
REMARK    1  A    between atoms: C_11  and  C_12 
REMARK    2  A    between atoms: C_15  and  N_16 
REMARK    3  A    between atoms: N_16  and  C_17 
REMARK    4  A    between atoms: C_18  and  O_19 
REMARK    5  A    between atoms: O_19  and  C_20 
ROOT
HETATM    1  C   UNL     1      -6.622   4.227 -32.869  1.00  0.00     0.077 C 
HETATM    2  C   UNL     1      -6.449   5.574 -32.187  1.00  0.00     0.023 C 
HETATM    3  N   UNL     1      -6.304   6.692 -31.621  1.00  0.00    -0.096 N 
HETATM    4  C   UNL     1      -7.579   4.139 -33.819  1.00  0.00     0.087 C 
ENDROOT
BRANCH   1   5
HETATM    5  C   UNL     1      -5.840   3.106 -32.447  1.00  0.00     0.118 A 
HETATM    6  N   UNL     1      -5.827   1.912 -33.017  1.00  0.00    -0.239 NA
HETATM    7  C   UNL     1      -4.934   1.050 -32.386  1.00  0.00     0.081 A 
HETATM    8  C   UNL     1      -4.809  -0.304 -32.868  1.00  0.00     0.070 A 
HETATM    9  C   UNL     1      -4.282   1.597 -31.305  1.00  0.00     0.084 A 
HETATM   10  C   UNL     1      -3.566  -1.091 -32.575  1.00  0.00     0.301 A 
HETATM   11  C   UNL     1      -5.792  -0.882 -33.586  1.00  0.00     0.034 A 
HETATM   12  O   UNL     1      -3.524  -2.415 -33.003  1.00  0.00    -0.274 OA
HETATM   13  O   UNL     1      -2.603  -0.617 -31.977  1.00  0.00    -0.259 OA
HETATM   14  C   UNL     1      -4.570  -2.994 -33.734  1.00  0.00     0.089 A 
HETATM   15  C   UNL     1      -5.702  -2.256 -34.049  1.00  0.00    -0.001 A 
HETATM   16  C   UNL     1      -4.425  -4.322 -34.126  1.00  0.00     0.038 A 
HETATM   17  C   UNL     1      -6.722  -2.867 -34.781  1.00  0.00     0.014 A 
HETATM   18  C   UNL     1      -6.593  -4.200 -35.183  1.00  0.00     0.001 A 
HETATM   19  C   UNL     1      -5.446  -4.928 -34.855  1.00  0.00     0.003 A 
HETATM   20  S   UNL     1      -4.745   3.226 -31.097  1.00  0.00    -0.078 SA
ENDBRANCH   1   5
BRANCH   4  21
HETATM   21  N   UNL     1      -8.413   5.153 -34.256  1.00  0.00    -0.266 NA
HETATM   22  H   UNL     1      -8.234   6.048 -33.788  1.00  0.00     0.133 HD
BRANCH  21  23
HETATM   23  C   UNL     1      -9.830   5.022 -34.338  1.00  0.00     0.046 A 
HETATM   24  C   UNL     1     -10.612   5.487 -33.263  1.00  0.00     0.096 A 
HETATM   25  C   UNL     1     -12.001   5.372 -33.261  1.00  0.00     0.039 A 
HETATM   26  C   UNL     1     -12.641   4.832 -34.373  1.00  0.00     0.003 A 
HETATM   27  C   UNL     1     -11.891   4.416 -35.474  1.00  0.00     0.002 A 
HETATM   28  C   UNL     1     -10.495   4.519 -35.461  1.00  0.00     0.026 A 
BRANCH  24  29
HETATM   29  O   UNL     1      -9.989   6.041 -32.172  1.00  0.00    -0.288 OA
BRANCH  29  30
HETATM   30  C   UNL     1     -10.312   5.273 -31.015  1.00  0.00     0.505 C 
HETATM   31  F   UNL     1      -9.154   4.823 -30.466  1.00  0.00    -0.184 F 
HETATM   32  F   UNL     1     -10.859   6.126 -30.113  1.00  0.00    -0.184 F 
ENDBRANCH  29  30
ENDBRANCH  24  29
ENDBRANCH  21  23
ENDBRANCH   4  21
TORSDOF 5
ENDMDL
