MODEL 1
REMARK VINA RESULT:      -9.3      0.000      0.000
REMARK  10 active torsions:
REMARK  status: ('A' for Active; 'I' for Inactive)
REMARK    1  A    between atoms: N_2  and  C_4 
REMARK    2  A    between atoms: C_4  and  C_5 
REMARK    3  A    between atoms: N_6  and  C_7 
REMARK    4  A    between atoms: C_11  and  N_12 
REMARK    5  A    between atoms: C_15  and  C_16 
REMARK       I    between atoms: C_16  and  N_17 
REMARK    6  A    between atoms: N_17  and  N_18 
REMARK    7  A    between atoms: C_19  and  C_20 
REMARK    8  A    between atoms: C_21  and  O_22 
REMARK    9  A    between atoms: O_22  and  C_23 
REMARK   10  A    between atoms: C_23  and  C_24 
ROOT
HETATM    1  C   UNL     1      -2.055   4.550 -31.830  1.00  0.00     0.293 C 
HETATM    2  N   UNL     1      -2.945   3.652 -31.266  1.00  0.00    -0.242 N 
HETATM    3  O   UNL     1      -2.111   4.971 -32.984  1.00  0.00    -0.264 OA
HETATM    4  H   UNL     1      -2.904   3.420 -30.276  1.00  0.00     0.192 HD
ENDROOT
BRANCH   1   5
HETATM    5  C   UNL     1      -1.040   5.057 -30.921  1.00  0.00     0.170 A 
HETATM    6  C   UNL     1      -1.191   6.092 -30.009  1.00  0.00     0.096 A 
HETATM    7  N   UNL     1       0.030   6.145 -29.342  1.00  0.00    -0.215 N 
HETATM    8  N   UNL     1       0.873   5.240 -29.906  1.00  0.00     0.012 NA
HETATM    9  N   UNL     1       0.224   4.555 -30.833  1.00  0.00    -0.152 NA
BRANCH   6  10
HETATM   10  C   UNL     1      -2.326   7.024 -29.800  1.00  0.00     0.295 C 
BRANCH  10  11
HETATM   11  N   UNL     1      -3.433   6.488 -28.924  1.00  0.00    -0.073 N 
HETATM   12  C   UNL     1      -4.740   6.301 -29.647  1.00  0.00     0.269 C 
HETATM   13  H   UNL     1      -3.121   5.572 -28.573  1.00  0.00     0.279 HD
HETATM   14  C   UNL     1      -3.622   7.351 -27.705  1.00  0.00     0.269 C 
ENDBRANCH  10  11
ENDBRANCH   6  10
BRANCH   7  15
HETATM   15  C   UNL     1       0.393   6.930 -28.222  1.00  0.00     0.225 A 
HETATM   16  N   UNL     1       1.093   8.054 -28.396  1.00  0.00    -0.081 NA
HETATM   17  O   UNL     1       1.243   8.551 -27.096  1.00  0.00    -0.103 OA
HETATM   18  N   UNL     1       0.607   7.737 -26.171  1.00  0.00    -0.083 NA
HETATM   19  C   UNL     1       0.078   6.732 -26.867  1.00  0.00     0.201 A 
BRANCH  19  20
HETATM   20  N   UNL     1      -0.622   5.720 -26.334  1.00  0.00    -0.379 N 
HETATM   21  H   UNL     1      -0.143   4.911 -25.947  1.00  0.00     0.158 HD
HETATM   22  H   UNL     1      -1.621   5.757 -26.142  1.00  0.00     0.158 HD
ENDBRANCH  19  20
ENDBRANCH   7  15
ENDBRANCH   1   5
BRANCH   2  23
HETATM   23  N   UNL     1      -3.958   3.199 -32.043  1.00  0.00    -0.183 NA
HETATM   24  C   UNL     1      -4.741   2.295 -31.557  1.00  0.00     0.153 C 
BRANCH  24  25
HETATM   25  C   UNL     1      -5.867   1.780 -32.355  1.00  0.00     0.016 A 
HETATM   26  C   UNL     1      -6.114   0.425 -32.640  1.00  0.00     0.080 A 
HETATM   27  C   UNL     1      -7.215   0.101 -33.445  1.00  0.00     0.037 A 
HETATM   28  C   UNL     1      -8.069   1.091 -33.937  1.00  0.00     0.003 A 
HETATM   29  C   UNL     1      -7.817   2.429 -33.653  1.00  0.00     0.001 A 
HETATM   30  C   UNL     1      -6.715   2.775 -32.870  1.00  0.00     0.016 A 
BRANCH  26  31
HETATM   31  O   UNL     1      -5.315  -0.654 -32.364  1.00  0.00    -0.346 OA
BRANCH  31  32
HETATM   32  C   UNL     1      -4.351  -1.006 -33.354  1.00  0.00     0.219 C 
BRANCH  32  33
HETATM   33  C   UNL     1      -4.448  -2.479 -33.657  1.00  0.00     0.026 A 
HETATM   34  C   UNL     1      -3.716  -3.454 -32.969  1.00  0.00     0.045 A 
HETATM   35 CL   UNL     1      -2.627  -3.049 -31.691  1.00  0.00    -0.084 Cl
HETATM   36  C   UNL     1      -3.832  -4.808 -33.313  1.00  0.00     0.024 A 
HETATM   37  C   UNL     1      -4.694  -5.208 -34.335  1.00  0.00     0.005 A 
HETATM   38  C   UNL     1      -5.438  -4.253 -35.016  1.00  0.00     0.043 A 
HETATM   39  C   UNL     1      -5.309  -2.907 -34.677  1.00  0.00     0.126 A 
HETATM   40  F   UNL     1      -6.010  -2.008 -35.384  1.00  0.00    -0.205 F 
ENDBRANCH  32  33
ENDBRANCH  31  32
ENDBRANCH  26  31
ENDBRANCH  24  25
ENDBRANCH   2  23
TORSDOF 10
ENDMDL
MODEL 2
REMARK VINA RESULT:      -8.9      3.311      5.553
REMARK  10 active torsions:
REMARK  status: ('A' for Active; 'I' for Inactive)
REMARK    1  A    between atoms: N_2  and  C_4 
REMARK    2  A    between atoms: C_4  and  C_5 
REMARK    3  A    between atoms: N_6  and  C_7 
REMARK    4  A    between atoms: C_11  and  N_12 
REMARK    5  A    between atoms: C_15  and  C_16 
REMARK       I    between atoms: C_16  and  N_17 
REMARK    6  A    between atoms: N_17  and  N_18 
REMARK    7  A    between atoms: C_19  and  C_20 
REMARK    8  A    between atoms: C_21  and  O_22 
REMARK    9  A    between atoms: O_22  and  C_23 
REMARK   10  A    between atoms: C_23  and  C_24 
ROOT
HETATM    1  C   UNL     1      -4.343   2.060 -32.311  1.00  0.00     0.293 C 
HETATM    2  N   UNL     1      -3.663   0.926 -32.720  1.00  0.00    -0.242 N 
HETATM    3  O   UNL     1      -5.551   2.120 -32.090  1.00  0.00    -0.264 OA
HETATM    4  H   UNL     1      -2.648   0.916 -32.790  1.00  0.00     0.192 HD
ENDROOT
BRANCH   1   5
HETATM    5  C   UNL     1      -3.504   3.223 -32.071  1.00  0.00     0.170 A 
HETATM    6  C   UNL     1      -3.700   4.501 -32.574  1.00  0.00     0.096 A 
HETATM    7  N   UNL     1      -2.678   5.256 -32.005  1.00  0.00    -0.215 N 
HETATM    8  N   UNL     1      -1.879   4.431 -31.278  1.00  0.00     0.012 NA
HETATM    9  N   UNL     1      -2.391   3.210 -31.284  1.00  0.00    -0.152 NA
BRANCH   6  10
HETATM   10  C   UNL     1      -4.691   4.999 -33.559  1.00  0.00     0.295 C 
BRANCH  10  11
HETATM   11  N   UNL     1      -5.904   5.668 -32.956  1.00  0.00    -0.073 N 
HETATM   12  C   UNL     1      -6.010   5.495 -31.465  1.00  0.00     0.269 C 
HETATM   13  H   UNL     1      -5.826   6.674 -33.163  1.00  0.00     0.279 HD
HETATM   14  C   UNL     1      -7.167   5.207 -33.633  1.00  0.00     0.269 C 
ENDBRANCH  10  11
ENDBRANCH   6  10
BRANCH   7  15
HETATM   15  C   UNL     1      -2.471   6.654 -32.069  1.00  0.00     0.225 A 
HETATM   16  N   UNL     1      -3.044   7.455 -31.166  1.00  0.00    -0.081 NA
HETATM   17  O   UNL     1      -2.606   8.732 -31.535  1.00  0.00    -0.103 OA
HETATM   18  N   UNL     1      -1.757   8.675 -32.630  1.00  0.00    -0.083 NA
HETATM   19  C   UNL     1      -1.670   7.387 -32.961  1.00  0.00     0.201 A 
BRANCH  19  20
HETATM   20  N   UNL     1      -0.941   6.909 -33.981  1.00  0.00    -0.379 N 
HETATM   21  H   UNL     1      -0.181   6.256 -33.808  1.00  0.00     0.158 HD
HETATM   22  H   UNL     1      -1.184   7.033 -34.962  1.00  0.00     0.158 HD
ENDBRANCH  19  20
ENDBRANCH   7  15
ENDBRANCH   1   5
BRANCH   2  23
HETATM   23  N   UNL     1      -4.382  -0.210 -32.892  1.00  0.00    -0.183 NA
HETATM   24  C   UNL     1      -4.219  -0.874 -33.986  1.00  0.00     0.153 C 
BRANCH  24  25
HETATM   25  C   UNL     1      -4.964  -2.124 -34.215  1.00  0.00     0.016 A 
HETATM   26  C   UNL     1      -6.328  -2.214 -34.546  1.00  0.00     0.080 A 
HETATM   27  C   UNL     1      -6.897  -3.486 -34.699  1.00  0.00     0.037 A 
HETATM   28  C   UNL     1      -6.130  -4.645 -34.552  1.00  0.00     0.003 A 
HETATM   29  C   UNL     1      -4.783  -4.548 -34.221  1.00  0.00     0.001 A 
HETATM   30  C   UNL     1      -4.201  -3.292 -34.045  1.00  0.00     0.016 A 
BRANCH  26  31
HETATM   31  O   UNL     1      -7.252  -1.203 -34.592  1.00  0.00    -0.346 OA
BRANCH  31  32
HETATM   32  C   UNL     1      -7.871  -0.847 -33.358  1.00  0.00     0.219 C 
BRANCH  32  33
HETATM   33  C   UNL     1      -8.840   0.286 -33.582  1.00  0.00     0.026 A 
HETATM   34  C   UNL     1      -8.491   1.478 -34.229  1.00  0.00     0.045 A 
HETATM   35 CL   UNL     1      -6.899   1.755 -34.840  1.00  0.00    -0.084 Cl
HETATM   36  C   UNL     1      -9.431   2.505 -34.389  1.00  0.00     0.024 A 
HETATM   37  C   UNL     1     -10.737   2.349 -33.921  1.00  0.00     0.005 A 
HETATM   38  C   UNL     1     -11.102   1.165 -33.291  1.00  0.00     0.043 A 
HETATM   39  C   UNL     1     -10.158   0.153 -33.126  1.00  0.00     0.126 A 
HETATM   40  F   UNL     1     -10.533  -0.959 -32.475  1.00  0.00    -0.205 F 
ENDBRANCH  32  33
ENDBRANCH  31  32
ENDBRANCH  26  31
ENDBRANCH  24  25
ENDBRANCH   2  23
TORSDOF 10
ENDMDL
MODEL 3
REMARK VINA RESULT:      -8.7      2.387      4.954
REMARK  10 active torsions:
REMARK  status: ('A' for Active; 'I' for Inactive)
REMARK    1  A    between atoms: N_2  and  C_4 
REMARK    2  A    between atoms: C_4  and  C_5 
REMARK    3  A    between atoms: N_6  and  C_7 
REMARK    4  A    between atoms: C_11  and  N_12 
REMARK    5  A    between atoms: C_15  and  C_16 
REMARK       I    between atoms: C_16  and  N_17 
REMARK    6  A    between atoms: N_17  and  N_18 
REMARK    7  A    between atoms: C_19  and  C_20 
REMARK    8  A    between atoms: C_21  and  O_22 
REMARK    9  A    between atoms: O_22  and  C_23 
REMARK   10  A    between atoms: C_23  and  C_24 
ROOT
HETATM    1  C   UNL     1      -4.477   2.805 -32.238  1.00  0.00     0.293 C 
HETATM    2  N   UNL     1      -3.801   1.699 -31.751  1.00  0.00    -0.242 N 
HETATM    3  O   UNL     1      -5.152   2.825 -33.265  1.00  0.00    -0.264 OA
HETATM    4  H   UNL     1      -3.342   1.719 -30.844  1.00  0.00     0.192 HD
ENDROOT
BRANCH   1   5
HETATM    5  C   UNL     1      -4.407   3.985 -31.392  1.00  0.00     0.170 A 
HETATM    6  C   UNL     1      -3.466   5.002 -31.470  1.00  0.00     0.096 A 
HETATM    7  N   UNL     1      -3.869   5.919 -30.502  1.00  0.00    -0.215 N 
HETATM    8  N   UNL     1      -4.941   5.410 -29.840  1.00  0.00     0.012 NA
HETATM    9  N   UNL     1      -5.294   4.262 -30.394  1.00  0.00    -0.152 NA
BRANCH   6  10
HETATM   10  C   UNL     1      -2.243   5.111 -32.301  1.00  0.00     0.295 C 
BRANCH  10  11
HETATM   11  N   UNL     1      -2.436   5.819 -33.622  1.00  0.00    -0.073 N 
HETATM   12  C   UNL     1      -1.931   5.038 -34.806  1.00  0.00     0.269 C 
HETATM   13  H   UNL     1      -3.448   5.969 -33.737  1.00  0.00     0.279 HD
HETATM   14  C   UNL     1      -1.819   7.192 -33.593  1.00  0.00     0.269 C 
ENDBRANCH  10  11
ENDBRANCH   6  10
BRANCH   7  15
HETATM   15  C   UNL     1      -3.348   7.206 -30.233  1.00  0.00     0.225 A 
HETATM   16  N   UNL     1      -3.888   8.280 -30.817  1.00  0.00    -0.081 NA
HETATM   17  O   UNL     1      -3.137   9.344 -30.307  1.00  0.00    -0.103 OA
HETATM   18  N   UNL     1      -2.181   8.898 -29.406  1.00  0.00    -0.083 NA
HETATM   19  C   UNL     1      -2.312   7.573 -29.358  1.00  0.00     0.201 A 
BRANCH  19  20
HETATM   20  N   UNL     1      -1.562   6.760 -28.599  1.00  0.00    -0.379 N 
HETATM   21  H   UNL     1      -0.547   6.792 -28.658  1.00  0.00     0.158 HD
HETATM   22  H   UNL     1      -1.928   6.198 -27.833  1.00  0.00     0.158 HD
ENDBRANCH  19  20
ENDBRANCH   7  15
ENDBRANCH   1   5
BRANCH   2  23
HETATM   23  N   UNL     1      -3.888   0.547 -32.459  1.00  0.00    -0.183 NA
HETATM   24  C   UNL     1      -3.761  -0.569 -31.824  1.00  0.00     0.153 C 
BRANCH  24  25
HETATM   25  C   UNL     1      -3.863  -1.850 -32.543  1.00  0.00     0.016 A 
HETATM   26  C   UNL     1      -4.695  -2.101 -33.650  1.00  0.00     0.080 A 
HETATM   27  C   UNL     1      -4.701  -3.390 -34.203  1.00  0.00     0.037 A 
HETATM   28  C   UNL     1      -3.885  -4.402 -33.690  1.00  0.00     0.003 A 
HETATM   29  C   UNL     1      -3.068  -4.146 -32.594  1.00  0.00     0.001 A 
HETATM   30  C   UNL     1      -3.061  -2.877 -32.016  1.00  0.00     0.016 A 
BRANCH  26  31
HETATM   31  O   UNL     1      -5.651  -1.281 -34.189  1.00  0.00    -0.346 OA
BRANCH  31  32
HETATM   32  C   UNL     1      -6.979  -1.436 -33.694  1.00  0.00     0.219 C 
BRANCH  32  33
HETATM   33  C   UNL     1      -7.579  -0.082 -33.415  1.00  0.00     0.026 A 
HETATM   34  C   UNL     1      -7.580   0.510 -32.146  1.00  0.00     0.045 A 
HETATM   35 CL   UNL     1      -6.879  -0.268 -30.772  1.00  0.00    -0.084 Cl
HETATM   36  C   UNL     1      -8.175   1.763 -31.943  1.00  0.00     0.024 A 
HETATM   37  C   UNL     1      -8.759   2.450 -33.008  1.00  0.00     0.005 A 
HETATM   38  C   UNL     1      -8.752   1.882 -34.276  1.00  0.00     0.043 A 
HETATM   39  C   UNL     1      -8.169   0.630 -34.467  1.00  0.00     0.126 A 
HETATM   40  F   UNL     1      -8.219   0.093 -35.695  1.00  0.00    -0.205 F 
ENDBRANCH  32  33
ENDBRANCH  31  32
ENDBRANCH  26  31
ENDBRANCH  24  25
ENDBRANCH   2  23
TORSDOF 10
ENDMDL
MODEL 4
REMARK VINA RESULT:      -8.7      6.522      9.818
REMARK  10 active torsions:
REMARK  status: ('A' for Active; 'I' for Inactive)
REMARK    1  A    between atoms: N_2  and  C_4 
REMARK    2  A    between atoms: C_4  and  C_5 
REMARK    3  A    between atoms: N_6  and  C_7 
REMARK    4  A    between atoms: C_11  and  N_12 
REMARK    5  A    between atoms: C_15  and  C_16 
REMARK       I    between atoms: C_16  and  N_17 
REMARK    6  A    between atoms: N_17  and  N_18 
REMARK    7  A    between atoms: C_19  and  C_20 
REMARK    8  A    between atoms: C_21  and  O_22 
REMARK    9  A    between atoms: O_22  and  C_23 
REMARK   10  A    between atoms: C_23  and  C_24 
ROOT
HETATM    1  C   UNL     1      -9.540   1.375 -34.046  1.00  0.00     0.293 C 
HETATM    2  N   UNL     1      -8.568   1.004 -34.959  1.00  0.00    -0.242 N 
HETATM    3  O   UNL     1      -9.891   0.706 -33.075  1.00  0.00    -0.264 OA
HETATM    4  H   UNL     1      -8.252   1.646 -35.683  1.00  0.00     0.192 HD
ENDROOT
BRANCH   1   5
HETATM    5  C   UNL     1     -10.105   2.698 -34.258  1.00  0.00     0.170 A 
HETATM    6  C   UNL     1     -11.443   3.000 -34.466  1.00  0.00     0.096 A 
HETATM    7  N   UNL     1     -11.474   4.390 -34.544  1.00  0.00    -0.215 N 
HETATM    8  N   UNL     1     -10.201   4.859 -34.473  1.00  0.00     0.012 NA
HETATM    9  N   UNL     1      -9.373   3.848 -34.264  1.00  0.00    -0.152 NA
BRANCH   6  10
HETATM   10  C   UNL     1     -12.607   2.101 -34.659  1.00  0.00     0.295 C 
BRANCH  10  11
HETATM   11  N   UNL     1     -13.070   1.387 -33.410  1.00  0.00    -0.073 N 
HETATM   12  C   UNL     1     -13.422  -0.059 -33.636  1.00  0.00     0.269 C 
HETATM   13  H   UNL     1     -12.295   1.432 -32.734  1.00  0.00     0.279 HD
HETATM   14  C   UNL     1     -14.219   2.116 -32.766  1.00  0.00     0.269 C 
ENDBRANCH  10  11
ENDBRANCH   6  10
BRANCH   7  15
HETATM   15  C   UNL     1     -12.599   5.246 -34.622  1.00  0.00     0.225 A 
HETATM   16  N   UNL     1     -13.074   5.615 -35.815  1.00  0.00    -0.081 NA
HETATM   17  O   UNL     1     -14.169   6.425 -35.496  1.00  0.00    -0.103 OA
HETATM   18  N   UNL     1     -14.351   6.505 -34.123  1.00  0.00    -0.083 NA
HETATM   19  C   UNL     1     -13.380   5.773 -33.580  1.00  0.00     0.201 A 
BRANCH  19  20
HETATM   20  N   UNL     1     -13.204   5.597 -32.262  1.00  0.00    -0.379 N 
HETATM   21  H   UNL     1     -12.337   5.201 -31.907  1.00  0.00     0.158 HD
HETATM   22  H   UNL     1     -13.824   5.975 -31.549  1.00  0.00     0.158 HD
ENDBRANCH  19  20
ENDBRANCH   7  15
ENDBRANCH   1   5
BRANCH   2  23
HETATM   23  N   UNL     1      -7.952  -0.188 -34.772  1.00  0.00    -0.183 NA
HETATM   24  C   UNL     1      -6.665  -0.200 -34.677  1.00  0.00     0.153 C 
BRANCH  24  25
HETATM   25  C   UNL     1      -5.948  -1.468 -34.457  1.00  0.00     0.016 A 
HETATM   26  C   UNL     1      -4.699  -1.601 -33.823  1.00  0.00     0.080 A 
HETATM   27  C   UNL     1      -4.133  -2.880 -33.722  1.00  0.00     0.037 A 
HETATM   28  C   UNL     1      -4.797  -4.007 -34.215  1.00  0.00     0.003 A 
HETATM   29  C   UNL     1      -6.030  -3.866 -34.843  1.00  0.00     0.001 A 
HETATM   30  C   UNL     1      -6.602  -2.601 -34.972  1.00  0.00     0.016 A 
BRANCH  26  31
HETATM   31  O   UNL     1      -3.852  -0.605 -33.412  1.00  0.00    -0.346 OA
BRANCH  31  32
HETATM   32  C   UNL     1      -3.854  -0.300 -32.019  1.00  0.00     0.219 C 
BRANCH  32  33
HETATM   33  C   UNL     1      -4.866   0.781 -31.737  1.00  0.00     0.026 A 
HETATM   34  C   UNL     1      -4.613   2.143 -31.944  1.00  0.00     0.045 A 
HETATM   35 CL   UNL     1      -3.099   2.709 -32.555  1.00  0.00    -0.084 Cl
HETATM   36  C   UNL     1      -5.586   3.104 -31.640  1.00  0.00     0.024 A 
HETATM   37  C   UNL     1      -6.832   2.719 -31.145  1.00  0.00     0.005 A 
HETATM   38  C   UNL     1      -7.104   1.370 -30.949  1.00  0.00     0.043 A 
HETATM   39  C   UNL     1      -6.126   0.420 -31.241  1.00  0.00     0.126 A 
HETATM   40  F   UNL     1      -6.407  -0.869 -30.999  1.00  0.00    -0.205 F 
ENDBRANCH  32  33
ENDBRANCH  31  32
ENDBRANCH  26  31
ENDBRANCH  24  25
ENDBRANCH   2  23
TORSDOF 10
ENDMDL
MODEL 5
REMARK VINA RESULT:      -8.7      1.328      1.464
REMARK  10 active torsions:
REMARK  status: ('A' for Active; 'I' for Inactive)
REMARK    1  A    between atoms: N_2  and  C_4 
REMARK    2  A    between atoms: C_4  and  C_5 
REMARK    3  A    between atoms: N_6  and  C_7 
REMARK    4  A    between atoms: C_11  and  N_12 
REMARK    5  A    between atoms: C_15  and  C_16 
REMARK       I    between atoms: C_16  and  N_17 
REMARK    6  A    between atoms: N_17  and  N_18 
REMARK    7  A    between atoms: C_19  and  C_20 
REMARK    8  A    between atoms: C_21  and  O_22 
REMARK    9  A    between atoms: O_22  and  C_23 
REMARK   10  A    between atoms: C_23  and  C_24 
ROOT
HETATM    1  C   UNL     1      -3.582   4.291 -32.377  1.00  0.00     0.293 C 
HETATM    2  N   UNL     1      -3.980   3.114 -31.768  1.00  0.00    -0.242 N 
HETATM    3  O   UNL     1      -4.082   4.765 -33.395  1.00  0.00    -0.264 OA
HETATM    4  H   UNL     1      -3.594   2.826 -30.872  1.00  0.00     0.192 HD
ENDROOT
BRANCH   1   5
HETATM    5  C   UNL     1      -2.536   5.019 -31.676  1.00  0.00     0.170 A 
HETATM    6  C   UNL     1      -2.717   5.999 -30.711  1.00  0.00     0.096 A 
HETATM    7  N   UNL     1      -1.426   6.328 -30.307  1.00  0.00    -0.215 N 
HETATM    8  N   UNL     1      -0.541   5.633 -31.069  1.00  0.00     0.012 NA
HETATM    9  N   UNL     1      -1.203   4.814 -31.871  1.00  0.00    -0.152 NA
BRANCH   6  10
HETATM   10  C   UNL     1      -3.961   6.654 -30.235  1.00  0.00     0.295 C 
BRANCH  10  11
HETATM   11  N   UNL     1      -4.588   6.013 -29.019  1.00  0.00    -0.073 N 
HETATM   12  C   UNL     1      -5.970   5.470 -29.267  1.00  0.00     0.269 C 
HETATM   13  H   UNL     1      -3.976   5.233 -28.741  1.00  0.00     0.279 HD
HETATM   14  C   UNL     1      -4.596   6.964 -27.852  1.00  0.00     0.269 C 
ENDBRANCH  10  11
ENDBRANCH   6  10
BRANCH   7  15
HETATM   15  C   UNL     1      -1.020   7.182 -29.254  1.00  0.00     0.225 A 
HETATM   16  N   UNL     1      -1.215   8.500 -29.352  1.00  0.00    -0.081 NA
HETATM   17  O   UNL     1      -0.713   8.996 -28.143  1.00  0.00    -0.103 OA
HETATM   18  N   UNL     1      -0.254   7.970 -27.331  1.00  0.00    -0.083 NA
HETATM   19  C   UNL     1      -0.446   6.844 -28.017  1.00  0.00     0.201 A 
BRANCH  19  20
HETATM   20  N   UNL     1      -0.127   5.618 -27.576  1.00  0.00    -0.379 N 
HETATM   21  H   UNL     1       0.119   5.471 -26.600  1.00  0.00     0.158 HD
HETATM   22  H   UNL     1      -0.256   4.766 -28.117  1.00  0.00     0.158 HD
ENDBRANCH  19  20
ENDBRANCH   7  15
ENDBRANCH   1   5
BRANCH   2  23
HETATM   23  N   UNL     1      -5.001   2.427 -32.335  1.00  0.00    -0.183 NA
HETATM   24  C   UNL     1      -6.110   2.336 -31.682  1.00  0.00     0.153 C 
BRANCH  24  25
HETATM   25  C   UNL     1      -7.256   1.614 -32.261  1.00  0.00     0.016 A 
HETATM   26  C   UNL     1      -7.296   0.236 -32.544  1.00  0.00     0.080 A 
HETATM   27  C   UNL     1      -8.456  -0.294 -33.127  1.00  0.00     0.037 A 
HETATM   28  C   UNL     1      -9.562   0.514 -33.402  1.00  0.00     0.003 A 
HETATM   29  C   UNL     1      -9.514   1.876 -33.121  1.00  0.00     0.001 A 
HETATM   30  C   UNL     1      -8.363   2.427 -32.560  1.00  0.00     0.016 A 
BRANCH  26  31
HETATM   31  O   UNL     1      -6.269  -0.669 -32.473  1.00  0.00    -0.346 OA
BRANCH  31  32
HETATM   32  C   UNL     1      -5.477  -0.831 -33.648  1.00  0.00     0.219 C 
BRANCH  32  33
HETATM   33  C   UNL     1      -5.157  -2.290 -33.849  1.00  0.00     0.026 A 
HETATM   34  C   UNL     1      -4.058  -2.923 -33.256  1.00  0.00     0.045 A 
HETATM   35 CL   UNL     1      -2.962  -2.077 -32.223  1.00  0.00    -0.084 Cl
HETATM   36  C   UNL     1      -3.799  -4.279 -33.499  1.00  0.00     0.024 A 
HETATM   37  C   UNL     1      -4.643  -5.025 -34.322  1.00  0.00     0.005 A 
HETATM   38  C   UNL     1      -5.747  -4.414 -34.905  1.00  0.00     0.043 A 
HETATM   39  C   UNL     1      -5.991  -3.062 -34.668  1.00  0.00     0.126 A 
HETATM   40  F   UNL     1      -7.041  -2.494 -35.282  1.00  0.00    -0.205 F 
ENDBRANCH  32  33
ENDBRANCH  31  32
ENDBRANCH  26  31
ENDBRANCH  24  25
ENDBRANCH   2  23
TORSDOF 10
ENDMDL
MODEL 6
REMARK VINA RESULT:      -8.6      2.218      2.665
REMARK  10 active torsions:
REMARK  status: ('A' for Active; 'I' for Inactive)
REMARK    1  A    between atoms: N_2  and  C_4 
REMARK    2  A    between atoms: C_4  and  C_5 
REMARK    3  A    between atoms: N_6  and  C_7 
REMARK    4  A    between atoms: C_11  and  N_12 
REMARK    5  A    between atoms: C_15  and  C_16 
REMARK       I    between atoms: C_16  and  N_17 
REMARK    6  A    between atoms: N_17  and  N_18 
REMARK    7  A    between atoms: C_19  and  C_20 
REMARK    8  A    between atoms: C_21  and  O_22 
REMARK    9  A    between atoms: O_22  and  C_23 
REMARK   10  A    between atoms: C_23  and  C_24 
ROOT
HETATM    1  C   UNL     1      -2.494   4.873 -31.762  1.00  0.00     0.293 C 
HETATM    2  N   UNL     1      -3.277   3.847 -31.261  1.00  0.00    -0.242 N 
HETATM    3  O   UNL     1      -2.719   5.491 -32.800  1.00  0.00    -0.264 OA
HETATM    4  H   UNL     1      -3.094   3.442 -30.346  1.00  0.00     0.192 HD
ENDROOT
BRANCH   1   5
HETATM    5  C   UNL     1      -1.374   5.255 -30.917  1.00  0.00     0.170 A 
HETATM    6  C   UNL     1      -1.376   6.237 -29.937  1.00  0.00     0.096 A 
HETATM    7  N   UNL     1      -0.103   6.169 -29.378  1.00  0.00    -0.215 N 
HETATM    8  N   UNL     1       0.626   5.250 -30.065  1.00  0.00     0.012 NA
HETATM    9  N   UNL     1      -0.145   4.669 -30.970  1.00  0.00    -0.152 NA
BRANCH   6  10
HETATM   10  C   UNL     1      -2.423   7.224 -29.575  1.00  0.00     0.295 C 
BRANCH  10  11
HETATM   11  N   UNL     1      -3.373   6.771 -28.491  1.00  0.00    -0.073 N 
HETATM   12  C   UNL     1      -4.753   6.441 -28.995  1.00  0.00     0.269 C 
HETATM   13  H   UNL     1      -2.968   5.923 -28.072  1.00  0.00     0.279 HD
HETATM   14  C   UNL     1      -3.446   7.784 -27.380  1.00  0.00     0.269 C 
ENDBRANCH  10  11
ENDBRANCH   6  10
BRANCH   7  15
HETATM   15  C   UNL     1       0.405   6.855 -28.250  1.00  0.00     0.225 A 
HETATM   16  N   UNL     1       1.214   7.906 -28.418  1.00  0.00    -0.081 NA
HETATM   17  O   UNL     1       1.489   8.321 -27.110  1.00  0.00    -0.103 OA
HETATM   18  N   UNL     1       0.820   7.535 -26.183  1.00  0.00    -0.083 NA
HETATM   19  C   UNL     1       0.146   6.628 -26.888  1.00  0.00     0.201 A 
BRANCH  19  20
HETATM   20  N   UNL     1      -0.631   5.672 -26.356  1.00  0.00    -0.379 N 
HETATM   21  H   UNL     1      -0.929   4.879 -26.919  1.00  0.00     0.158 HD
HETATM   22  H   UNL     1      -0.833   5.591 -25.361  1.00  0.00     0.158 HD
ENDBRANCH  19  20
ENDBRANCH   7  15
ENDBRANCH   1   5
BRANCH   2  23
HETATM   23  N   UNL     1      -4.378   3.494 -31.968  1.00  0.00    -0.183 NA
HETATM   24  C   UNL     1      -5.535   3.697 -31.434  1.00  0.00     0.153 C 
BRANCH  24  25
HETATM   25  C   UNL     1      -6.764   3.346 -32.167  1.00  0.00     0.016 A 
HETATM   26  C   UNL     1      -7.652   2.310 -31.824  1.00  0.00     0.080 A 
HETATM   27  C   UNL     1      -8.764   2.083 -32.647  1.00  0.00     0.037 A 
HETATM   28  C   UNL     1      -9.008   2.877 -33.771  1.00  0.00     0.003 A 
HETATM   29  C   UNL     1      -8.123   3.897 -34.104  1.00  0.00     0.001 A 
HETATM   30  C   UNL     1      -7.000   4.128 -33.310  1.00  0.00     0.016 A 
BRANCH  26  31
HETATM   31  O   UNL     1      -7.499   1.356 -30.852  1.00  0.00    -0.346 OA
BRANCH  31  32
HETATM   32  C   UNL     1      -7.269   0.021 -31.298  1.00  0.00     0.219 C 
BRANCH  32  33
HETATM   33  C   UNL     1      -5.835  -0.130 -31.735  1.00  0.00     0.026 A 
HETATM   34  C   UNL     1      -5.462  -0.483 -33.038  1.00  0.00     0.045 A 
HETATM   35 CL   UNL     1      -6.631  -0.775 -34.277  1.00  0.00    -0.084 Cl
HETATM   36  C   UNL     1      -4.111  -0.631 -33.380  1.00  0.00     0.024 A 
HETATM   37  C   UNL     1      -3.113  -0.409 -32.430  1.00  0.00     0.005 A 
HETATM   38  C   UNL     1      -3.467  -0.043 -31.137  1.00  0.00     0.043 A 
HETATM   39  C   UNL     1      -4.813   0.090 -30.802  1.00  0.00     0.126 A 
HETATM   40  F   UNL     1      -5.120   0.403 -29.534  1.00  0.00    -0.205 F 
ENDBRANCH  32  33
ENDBRANCH  31  32
ENDBRANCH  26  31
ENDBRANCH  24  25
ENDBRANCH   2  23
TORSDOF 10
ENDMDL
MODEL 7
REMARK VINA RESULT:      -8.5      2.326      4.572
REMARK  10 active torsions:
REMARK  status: ('A' for Active; 'I' for Inactive)
REMARK    1  A    between atoms: N_2  and  C_4 
REMARK    2  A    between atoms: C_4  and  C_5 
REMARK    3  A    between atoms: N_6  and  C_7 
REMARK    4  A    between atoms: C_11  and  N_12 
REMARK    5  A    between atoms: C_15  and  C_16 
REMARK       I    between atoms: C_16  and  N_17 
REMARK    6  A    between atoms: N_17  and  N_18 
REMARK    7  A    between atoms: C_19  and  C_20 
REMARK    8  A    between atoms: C_21  and  O_22 
REMARK    9  A    between atoms: O_22  and  C_23 
REMARK   10  A    between atoms: C_23  and  C_24 
ROOT
HETATM    1  C   UNL     1      -2.764   3.866 -32.386  1.00  0.00     0.293 C 
HETATM    2  N   UNL     1      -3.199   2.721 -31.741  1.00  0.00    -0.242 N 
HETATM    3  O   UNL     1      -3.093   4.206 -33.521  1.00  0.00    -0.264 OA
HETATM    4  H   UNL     1      -2.971   2.546 -30.766  1.00  0.00     0.192 HD
ENDROOT
BRANCH   1   5
HETATM    5  C   UNL     1      -1.913   4.732 -31.587  1.00  0.00     0.170 A 
HETATM    6  C   UNL     1      -2.331   5.745 -30.737  1.00  0.00     0.096 A 
HETATM    7  N   UNL     1      -1.156   6.222 -30.163  1.00  0.00    -0.215 N 
HETATM    8  N   UNL     1      -0.103   5.571 -30.725  1.00  0.00     0.012 NA
HETATM    9  N   UNL     1      -0.553   4.646 -31.557  1.00  0.00    -0.152 NA
BRANCH   6  10
HETATM   10  C   UNL     1      -3.687   6.303 -30.510  1.00  0.00     0.295 C 
BRANCH  10  11
HETATM   11  N   UNL     1      -4.379   5.800 -29.265  1.00  0.00    -0.073 N 
HETATM   12  C   UNL     1      -5.620   4.996 -29.546  1.00  0.00     0.269 C 
HETATM   13  H   UNL     1      -3.706   5.198 -28.770  1.00  0.00     0.279 HD
HETATM   14  C   UNL     1      -4.685   6.934 -28.323  1.00  0.00     0.269 C 
ENDBRANCH  10  11
ENDBRANCH   6  10
BRANCH   7  15
HETATM   15  C   UNL     1      -1.000   7.171 -29.126  1.00  0.00     0.225 A 
HETATM   16  N   UNL     1      -1.244   8.463 -29.363  1.00  0.00    -0.081 NA
HETATM   17  O   UNL     1      -1.004   9.075 -28.128  1.00  0.00    -0.103 OA
HETATM   18  N   UNL     1      -0.651   8.141 -27.165  1.00  0.00    -0.083 NA
HETATM   19  C   UNL     1      -0.650   6.960 -27.782  1.00  0.00     0.201 A 
BRANCH  19  20
HETATM   20  N   UNL     1      -0.354   5.792 -27.192  1.00  0.00    -0.379 N 
HETATM   21  H   UNL     1       0.564   5.642 -26.781  1.00  0.00     0.158 HD
HETATM   22  H   UNL     1      -1.040   5.070 -26.982  1.00  0.00     0.158 HD
ENDBRANCH  19  20
ENDBRANCH   7  15
ENDBRANCH   1   5
BRANCH   2  23
HETATM   23  N   UNL     1      -4.054   1.910 -32.409  1.00  0.00    -0.183 NA
HETATM   24  C   UNL     1      -3.909   0.634 -32.281  1.00  0.00     0.153 C 
BRANCH  24  25
HETATM   25  C   UNL     1      -4.822  -0.292 -32.973  1.00  0.00     0.016 A 
HETATM   26  C   UNL     1      -6.223  -0.180 -33.014  1.00  0.00     0.080 A 
HETATM   27  C   UNL     1      -6.954  -1.166 -33.691  1.00  0.00     0.037 A 
HETATM   28  C   UNL     1      -6.314  -2.229 -34.334  1.00  0.00     0.003 A 
HETATM   29  C   UNL     1      -4.928  -2.335 -34.286  1.00  0.00     0.001 A 
HETATM   30  C   UNL     1      -4.183  -1.375 -33.601  1.00  0.00     0.016 A 
BRANCH  26  31
HETATM   31  O   UNL     1      -7.018   0.704 -32.332  1.00  0.00    -0.346 OA
BRANCH  31  32
HETATM   32  C   UNL     1      -8.009   1.392 -33.093  1.00  0.00     0.219 C 
BRANCH  32  33
HETATM   33  C   UNL     1      -7.797   2.879 -32.978  1.00  0.00     0.026 A 
HETATM   34  C   UNL     1      -8.516   3.692 -32.093  1.00  0.00     0.045 A 
HETATM   35 CL   UNL     1      -9.723   3.049 -31.037  1.00  0.00    -0.084 Cl
HETATM   36  C   UNL     1      -8.291   5.074 -32.049  1.00  0.00     0.024 A 
HETATM   37  C   UNL     1      -7.330   5.662 -32.873  1.00  0.00     0.005 A 
HETATM   38  C   UNL     1      -6.597   4.866 -33.745  1.00  0.00     0.043 A 
HETATM   39  C   UNL     1      -6.836   3.494 -33.792  1.00  0.00     0.126 A 
HETATM   40  F   UNL     1      -6.140   2.763 -34.676  1.00  0.00    -0.205 F 
ENDBRANCH  32  33
ENDBRANCH  31  32
ENDBRANCH  26  31
ENDBRANCH  24  25
ENDBRANCH   2  23
TORSDOF 10
ENDMDL
MODEL 8
REMARK VINA RESULT:      -8.5      3.355      5.030
REMARK  10 active torsions:
REMARK  status: ('A' for Active; 'I' for Inactive)
REMARK    1  A    between atoms: N_2  and  C_4 
REMARK    2  A    between atoms: C_4  and  C_5 
REMARK    3  A    between atoms: N_6  and  C_7 
REMARK    4  A    between atoms: C_11  and  N_12 
REMARK    5  A    between atoms: C_15  and  C_16 
REMARK       I    between atoms: C_16  and  N_17 
REMARK    6  A    between atoms: N_17  and  N_18 
REMARK    7  A    between atoms: C_19  and  C_20 
REMARK    8  A    between atoms: C_21  and  O_22 
REMARK    9  A    between atoms: O_22  and  C_23 
REMARK   10  A    between atoms: C_23  and  C_24 
ROOT
HETATM    1  C   UNL     1      -6.035   3.950 -34.066  1.00  0.00     0.293 C 
HETATM    2  N   UNL     1      -7.184   4.697 -33.872  1.00  0.00    -0.242 N 
HETATM    3  O   UNL     1      -6.009   2.765 -34.395  1.00  0.00    -0.264 OA
HETATM    4  H   UNL     1      -7.139   5.698 -33.699  1.00  0.00     0.192 HD
ENDROOT
BRANCH   1   5
HETATM    5  C   UNL     1      -4.793   4.692 -33.929  1.00  0.00     0.170 A 
HETATM    6  C   UNL     1      -4.015   4.795 -32.785  1.00  0.00     0.096 A 
HETATM    7  N   UNL     1      -2.913   5.547 -33.184  1.00  0.00    -0.215 N 
HETATM    8  N   UNL     1      -3.093   5.932 -34.474  1.00  0.00     0.012 NA
HETATM    9  N   UNL     1      -4.206   5.391 -34.942  1.00  0.00    -0.152 NA
BRANCH   6  10
HETATM   10  C   UNL     1      -4.276   4.318 -31.405  1.00  0.00     0.295 C 
BRANCH  10  11
HETATM   11  N   UNL     1      -5.219   5.185 -30.603  1.00  0.00    -0.073 N 
HETATM   12  C   UNL     1      -4.520   6.209 -29.750  1.00  0.00     0.269 C 
HETATM   13  H   UNL     1      -5.821   5.677 -31.277  1.00  0.00     0.279 HD
HETATM   14  C   UNL     1      -6.145   4.343 -29.765  1.00  0.00     0.269 C 
ENDBRANCH  10  11
ENDBRANCH   6  10
BRANCH   7  15
HETATM   15  C   UNL     1      -1.738   5.849 -32.455  1.00  0.00     0.225 A 
HETATM   16  N   UNL     1      -0.912   4.867 -32.085  1.00  0.00    -0.081 NA
HETATM   17  O   UNL     1       0.118   5.538 -31.417  1.00  0.00    -0.103 OA
HETATM   18  N   UNL     1      -0.090   6.909 -31.421  1.00  0.00    -0.083 NA
HETATM   19  C   UNL     1      -1.240   7.104 -32.067  1.00  0.00     0.201 A 
BRANCH  19  20
HETATM   20  N   UNL     1      -1.799   8.304 -32.283  1.00  0.00    -0.379 N 
HETATM   21  H   UNL     1      -1.259   9.155 -32.147  1.00  0.00     0.158 HD
HETATM   22  H   UNL     1      -2.704   8.439 -32.729  1.00  0.00     0.158 HD
ENDBRANCH  19  20
ENDBRANCH   7  15
ENDBRANCH   1   5
BRANCH   2  23
HETATM   23  N   UNL     1      -8.375   4.078 -34.057  1.00  0.00    -0.183 NA
HETATM   24  C   UNL     1      -9.100   3.829 -33.018  1.00  0.00     0.153 C 
BRANCH  24  25
HETATM   25  C   UNL     1     -10.410   3.172 -33.166  1.00  0.00     0.016 A 
HETATM   26  C   UNL     1     -10.615   1.834 -33.550  1.00  0.00     0.080 A 
HETATM   27  C   UNL     1     -11.932   1.369 -33.677  1.00  0.00     0.037 A 
HETATM   28  C   UNL     1     -13.023   2.200 -33.406  1.00  0.00     0.003 A 
HETATM   29  C   UNL     1     -12.811   3.522 -33.030  1.00  0.00     0.001 A 
HETATM   30  C   UNL     1     -11.510   4.011 -32.917  1.00  0.00     0.016 A 
BRANCH  26  31
HETATM   31  O   UNL     1      -9.682   0.929 -33.985  1.00  0.00    -0.346 OA
BRANCH  31  32
HETATM   32  C   UNL     1      -9.319  -0.103 -33.070  1.00  0.00     0.219 C 
BRANCH  32  33
HETATM   33  C   UNL     1      -7.861   0.028 -32.709  1.00  0.00     0.026 A 
HETATM   34  C   UNL     1      -6.837  -0.633 -33.399  1.00  0.00     0.045 A 
HETATM   35 CL   UNL     1      -7.160  -1.664 -34.747  1.00  0.00    -0.084 Cl
HETATM   36  C   UNL     1      -5.501  -0.491 -33.002  1.00  0.00     0.024 A 
HETATM   37  C   UNL     1      -5.167   0.327 -31.922  1.00  0.00     0.005 A 
HETATM   38  C   UNL     1      -6.170   1.002 -31.237  1.00  0.00     0.043 A 
HETATM   39  C   UNL     1      -7.498   0.846 -31.631  1.00  0.00     0.126 A 
HETATM   40  F   UNL     1      -8.445   1.477 -30.921  1.00  0.00    -0.205 F 
ENDBRANCH  32  33
ENDBRANCH  31  32
ENDBRANCH  26  31
ENDBRANCH  24  25
ENDBRANCH   2  23
TORSDOF 10
ENDMDL
MODEL 9
REMARK VINA RESULT:      -8.4      5.737      8.923
REMARK  10 active torsions:
REMARK  status: ('A' for Active; 'I' for Inactive)
REMARK    1  A    between atoms: N_2  and  C_4 
REMARK    2  A    between atoms: C_4  and  C_5 
REMARK    3  A    between atoms: N_6  and  C_7 
REMARK    4  A    between atoms: C_11  and  N_12 
REMARK    5  A    between atoms: C_15  and  C_16 
REMARK       I    between atoms: C_16  and  N_17 
REMARK    6  A    between atoms: N_17  and  N_18 
REMARK    7  A    between atoms: C_19  and  C_20 
REMARK    8  A    between atoms: C_21  and  O_22 
REMARK    9  A    between atoms: O_22  and  C_23 
REMARK   10  A    between atoms: C_23  and  C_24 
ROOT
HETATM    1  C   UNL     1      -9.964   1.177 -34.011  1.00  0.00     0.293 C 
HETATM    2  N   UNL     1      -8.941   1.077 -34.938  1.00  0.00    -0.242 N 
HETATM    3  O   UNL     1     -10.204   0.353 -33.130  1.00  0.00    -0.264 OA
HETATM    4  H   UNL     1      -8.732   1.840 -35.578  1.00  0.00     0.192 HD
ENDROOT
BRANCH   1   5
HETATM    5  C   UNL     1     -10.738   2.405 -34.086  1.00  0.00     0.170 A 
HETATM    6  C   UNL     1     -10.372   3.644 -33.579  1.00  0.00     0.096 A 
HETATM    7  N   UNL     1     -11.406   4.493 -33.963  1.00  0.00    -0.215 N 
HETATM    8  N   UNL     1     -12.365   3.758 -34.585  1.00  0.00     0.012 NA
HETATM    9  N   UNL     1     -11.953   2.505 -34.695  1.00  0.00    -0.152 NA
BRANCH   6  10
HETATM   10  C   UNL     1      -9.210   4.028 -32.740  1.00  0.00     0.295 C 
BRANCH  10  11
HETATM   11  N   UNL     1      -8.091   4.717 -33.485  1.00  0.00    -0.073 N 
HETATM   12  C   UNL     1      -6.925   3.817 -33.792  1.00  0.00     0.269 C 
HETATM   13  H   UNL     1      -8.486   5.055 -34.374  1.00  0.00     0.279 HD
HETATM   14  C   UNL     1      -7.630   5.947 -32.749  1.00  0.00     0.269 C 
ENDBRANCH  10  11
ENDBRANCH   6  10
BRANCH   7  15
HETATM   15  C   UNL     1     -11.494   5.899 -33.824  1.00  0.00     0.225 A 
HETATM   16  N   UNL     1     -12.213   6.426 -32.829  1.00  0.00    -0.081 NA
HETATM   17  O   UNL     1     -12.053   7.805 -33.004  1.00  0.00    -0.103 OA
HETATM   18  N   UNL     1     -11.219   8.082 -34.077  1.00  0.00    -0.083 NA
HETATM   19  C   UNL     1     -10.870   6.901 -34.586  1.00  0.00     0.201 A 
BRANCH  19  20
HETATM   20  N   UNL     1     -10.067   6.735 -35.647  1.00  0.00    -0.379 N 
HETATM   21  H   UNL     1     -10.057   7.421 -36.397  1.00  0.00     0.158 HD
HETATM   22  H   UNL     1      -9.331   6.033 -35.700  1.00  0.00     0.158 HD
ENDBRANCH  19  20
ENDBRANCH   7  15
ENDBRANCH   1   5
BRANCH   2  23
HETATM   23  N   UNL     1      -8.138  -0.013 -34.873  1.00  0.00    -0.183 NA
HETATM   24  C   UNL     1      -6.989   0.112 -34.299  1.00  0.00     0.153 C 
BRANCH  24  25
HETATM   25  C   UNL     1      -6.084  -1.046 -34.188  1.00  0.00     0.016 A 
HETATM   26  C   UNL     1      -4.824  -1.041 -33.562  1.00  0.00     0.080 A 
HETATM   27  C   UNL     1      -4.069  -2.223 -33.570  1.00  0.00     0.037 A 
HETATM   28  C   UNL     1      -4.557  -3.390 -34.162  1.00  0.00     0.003 A 
HETATM   29  C   UNL     1      -5.803  -3.386 -34.781  1.00  0.00     0.001 A 
HETATM   30  C   UNL     1      -6.562  -2.216 -34.802  1.00  0.00     0.016 A 
BRANCH  26  31
HETATM   31  O   UNL     1      -4.136   0.033 -33.061  1.00  0.00    -0.346 OA
BRANCH  31  32
HETATM   32  C   UNL     1      -4.020   0.113 -31.642  1.00  0.00     0.219 C 
BRANCH  32  33
HETATM   33  C   UNL     1      -4.883   1.235 -31.124  1.00  0.00     0.026 A 
HETATM   34  C   UNL     1      -4.445   2.563 -31.040  1.00  0.00     0.045 A 
HETATM   35 CL   UNL     1      -2.859   3.037 -31.534  1.00  0.00    -0.084 Cl
HETATM   36  C   UNL     1      -5.286   3.560 -30.527  1.00  0.00     0.024 A 
HETATM   37  C   UNL     1      -6.581   3.250 -30.110  1.00  0.00     0.005 A 
HETATM   38  C   UNL     1      -7.034   1.939 -30.202  1.00  0.00     0.043 A 
HETATM   39  C   UNL     1      -6.188   0.951 -30.702  1.00  0.00     0.126 A 
HETATM   40  F   UNL     1      -6.643  -0.311 -30.736  1.00  0.00    -0.205 F 
ENDBRANCH  32  33
ENDBRANCH  31  32
ENDBRANCH  26  31
ENDBRANCH  24  25
ENDBRANCH   2  23
TORSDOF 10
ENDMDL
MODEL 10
REMARK VINA RESULT:      -8.2      2.890      4.836
REMARK  10 active torsions:
REMARK  status: ('A' for Active; 'I' for Inactive)
REMARK    1  A    between atoms: N_2  and  C_4 
REMARK    2  A    between atoms: C_4  and  C_5 
REMARK    3  A    between atoms: N_6  and  C_7 
REMARK    4  A    between atoms: C_11  and  N_12 
REMARK    5  A    between atoms: C_15  and  C_16 
REMARK       I    between atoms: C_16  and  N_17 
REMARK    6  A    between atoms: N_17  and  N_18 
REMARK    7  A    between atoms: C_19  and  C_20 
REMARK    8  A    between atoms: C_21  and  O_22 
REMARK    9  A    between atoms: O_22  and  C_23 
REMARK   10  A    between atoms: C_23  and  C_24 
ROOT
HETATM    1  C   UNL     1      -2.441   3.876 -32.274  1.00  0.00     0.293 C 
HETATM    2  N   UNL     1      -3.054   2.764 -31.724  1.00  0.00    -0.242 N 
HETATM    3  O   UNL     1      -2.451   4.172 -33.467  1.00  0.00    -0.264 OA
HETATM    4  H   UNL     1      -3.094   2.628 -30.717  1.00  0.00     0.192 HD
ENDROOT
BRANCH   1   5
HETATM    5  C   UNL     1      -1.812   4.766 -31.311  1.00  0.00     0.170 A 
HETATM    6  C   UNL     1      -2.452   5.702 -30.512  1.00  0.00     0.096 A 
HETATM    7  N   UNL     1      -1.434   6.240 -29.729  1.00  0.00    -0.215 N 
HETATM    8  N   UNL     1      -0.250   5.701 -30.123  1.00  0.00     0.012 NA
HETATM    9  N   UNL     1      -0.474   4.785 -31.051  1.00  0.00    -0.152 NA
BRANCH   6  10
HETATM   10  C   UNL     1      -3.868   6.142 -30.502  1.00  0.00     0.295 C 
BRANCH  10  11
HETATM   11  N   UNL     1      -4.100   7.545 -31.013  1.00  0.00    -0.073 N 
HETATM   12  C   UNL     1      -5.544   7.849 -31.311  1.00  0.00     0.269 C 
HETATM   13  H   UNL     1      -3.776   8.189 -30.278  1.00  0.00     0.279 HD
HETATM   14  C   UNL     1      -3.241   7.829 -32.216  1.00  0.00     0.269 C 
ENDBRANCH  10  11
ENDBRANCH   6  10
BRANCH   7  15
HETATM   15  C   UNL     1      -1.535   7.148 -28.648  1.00  0.00     0.225 A 
HETATM   16  N   UNL     1      -2.021   8.376 -28.853  1.00  0.00    -0.081 NA
HETATM   17  O   UNL     1      -1.984   8.960 -27.582  1.00  0.00    -0.103 OA
HETATM   18  N   UNL     1      -1.508   8.068 -26.633  1.00  0.00    -0.083 NA
HETATM   19  C   UNL     1      -1.231   6.943 -27.292  1.00  0.00     0.201 A 
BRANCH  19  20
HETATM   20  N   UNL     1      -0.741   5.830 -26.728  1.00  0.00    -0.379 N 
HETATM   21  H   UNL     1      -0.263   5.875 -25.831  1.00  0.00     0.158 HD
HETATM   22  H   UNL     1      -0.941   4.888 -27.058  1.00  0.00     0.158 HD
ENDBRANCH  19  20
ENDBRANCH   7  15
ENDBRANCH   1   5
BRANCH   2  23
HETATM   23  N   UNL     1      -3.719   1.934 -32.563  1.00  0.00    -0.183 NA
HETATM   24  C   UNL     1      -5.004   1.862 -32.456  1.00  0.00     0.153 C 
BRANCH  24  25
HETATM   25  C   UNL     1      -5.776   0.987 -33.355  1.00  0.00     0.016 A 
HETATM   26  C   UNL     1      -6.875   1.386 -34.138  1.00  0.00     0.080 A 
HETATM   27  C   UNL     1      -7.526   0.420 -34.918  1.00  0.00     0.037 A 
HETATM   28  C   UNL     1      -7.086  -0.907 -34.944  1.00  0.00     0.003 A 
HETATM   29  C   UNL     1      -6.001  -1.293 -34.164  1.00  0.00     0.001 A 
HETATM   30  C   UNL     1      -5.352  -0.353 -33.365  1.00  0.00     0.016 A 
BRANCH  26  31
HETATM   31  O   UNL     1      -7.522   2.594 -34.130  1.00  0.00    -0.346 OA
BRANCH  31  32
HETATM   32  C   UNL     1      -8.618   2.726 -33.228  1.00  0.00     0.219 C 
BRANCH  32  33
HETATM   33  C   UNL     1      -9.915   2.680 -33.994  1.00  0.00     0.026 A 
HETATM   34  C   UNL     1     -10.783   1.581 -33.969  1.00  0.00     0.045 A 
HETATM   35 CL   UNL     1     -10.439   0.164 -33.042  1.00  0.00    -0.084 Cl
HETATM   36  C   UNL     1     -11.965   1.587 -34.722  1.00  0.00     0.024 A 
HETATM   37  C   UNL     1     -12.307   2.698 -35.493  1.00  0.00     0.005 A 
HETATM   38  C   UNL     1     -11.464   3.803 -35.515  1.00  0.00     0.043 A 
HETATM   39  C   UNL     1     -10.284   3.784 -34.773  1.00  0.00     0.126 A 
HETATM   40  F   UNL     1      -9.473   4.850 -34.852  1.00  0.00    -0.205 F 
ENDBRANCH  32  33
ENDBRANCH  31  32
ENDBRANCH  26  31
ENDBRANCH  24  25
ENDBRANCH   2  23
TORSDOF 10
ENDMDL
