MODEL 1
REMARK VINA RESULT:      -9.2      0.000      0.000
REMARK  7 active torsions:
REMARK  status: ('A' for Active; 'I' for Inactive)
REMARK    1  A    between atoms: C_3  and  C_4 
REMARK       I    between atoms: C_4  and  N_5 
REMARK    2  A    between atoms: N_8  and  C_9 
REMARK    3  A    between atoms: C_12  and  N_13 
REMARK    4  A    between atoms: N_13  and  C_14 
REMARK    5  A    between atoms: C_14  and  N_15 
REMARK       I    between atoms: N_15  and  C_16 
REMARK    6  A    between atoms: C_16  and  C_17 
REMARK    7  A    between atoms: C_18  and  O_19 
ROOT
HETATM    1  C   UNL     1      -5.614   4.206 -32.400  1.00  0.00     0.030 A 
HETATM    2  C   UNL     1      -6.590   3.718 -31.516  1.00  0.00     0.031 A 
HETATM    3  C   UNL     1      -7.571   2.797 -31.927  1.00  0.00     0.032 A 
HETATM    4  C   UNL     1      -7.623   2.366 -33.251  1.00  0.00     0.034 A 
HETATM    5  C   UNL     1      -6.612   2.772 -34.115  1.00  0.00     0.032 A 
HETATM    6  C   UNL     1      -5.631   3.677 -33.697  1.00  0.00     0.031 A 
ENDROOT
BRANCH   4   7
HETATM    7  N   UNL     1      -8.674   1.511 -33.643  1.00  0.00    -0.333 N 
HETATM    8  H   UNL     1      -9.296   1.861 -34.372  1.00  0.00     0.168 HD
BRANCH   7   9
HETATM    9  C   UNL     1      -8.894   0.193 -33.311  1.00  0.00     0.179 C 
HETATM   10  S   UNL     1     -10.285  -0.531 -32.719  1.00  0.00    -0.040 SA
BRANCH   9  11
HETATM   11  N   UNL     1      -7.812  -0.646 -33.474  1.00  0.00    -0.299 N 
HETATM   12  C   UNL     1      -7.115  -0.996 -34.619  1.00  0.00     0.260 C 
HETATM   13  O   UNL     1      -7.117  -0.318 -35.645  1.00  0.00    -0.267 OA
HETATM   14  H   UNL     1      -7.645  -1.220 -32.655  1.00  0.00     0.171 HD
BRANCH  12  15
HETATM   15  C   UNL     1      -6.249  -2.212 -34.498  1.00  0.00     0.065 A 
HETATM   16  C   UNL     1      -4.935  -2.172 -33.987  1.00  0.00     0.084 A 
HETATM   17  C   UNL     1      -4.184  -3.352 -33.927  1.00  0.00     0.038 A 
HETATM   18  C   UNL     1      -4.737  -4.564 -34.347  1.00  0.00     0.003 A 
HETATM   19  C   UNL     1      -6.043  -4.608 -34.830  1.00  0.00     0.001 A 
HETATM   20  C   UNL     1      -6.799  -3.437 -34.903  1.00  0.00     0.020 A 
BRANCH  16  21
HETATM   21  O   UNL     1      -4.436  -0.953 -33.604  1.00  0.00    -0.355 OA
HETATM   22  C   UNL     1      -3.458  -0.950 -32.567  1.00  0.00     0.210 C 
ENDBRANCH  16  21
ENDBRANCH  12  15
ENDBRANCH   9  11
ENDBRANCH   7   9
ENDBRANCH   4   7
BRANCH   1  23
HETATM   23  N   UNL     1      -4.743   5.229 -32.015  1.00  0.00    -0.378 N 
HETATM   24  C   UNL     1      -4.380   6.254 -33.015  1.00  0.00     0.143 C 
HETATM   25  C   UNL     1      -3.854   7.518 -32.325  1.00  0.00     0.146 C 
HETATM   26  N   UNL     1      -2.797   7.253 -31.346  1.00  0.00    -0.345 N 
HETATM   27  C   UNL     1      -1.946   8.318 -31.060  1.00  0.00     0.254 C 
HETATM   28  C   UNL     1      -3.050   6.124 -30.435  1.00  0.00     0.146 C 
HETATM   29  O   UNL     1      -1.856   9.328 -31.753  1.00  0.00    -0.267 OA
HETATM   30  C   UNL     1      -3.607   4.867 -31.141  1.00  0.00     0.143 C 
BRANCH  27  31
HETATM   31  C   UNL     1      -1.093   8.248 -29.859  1.00  0.00     0.038 A 
HETATM   32  C   UNL     1       0.081   7.475 -29.829  1.00  0.00    -0.046 A 
HETATM   33  C   UNL     1       0.588   6.713 -31.019  1.00  0.00     0.049 C 
HETATM   34  C   UNL     1       0.817   7.436 -28.634  1.00  0.00     0.007 A 
HETATM   35  C   UNL     1       0.368   8.109 -27.495  1.00  0.00     0.001 A 
HETATM   36  C   UNL     1      -0.818   8.841 -27.531  1.00  0.00     0.001 A 
HETATM   37  C   UNL     1      -1.551   8.911 -28.713  1.00  0.00     0.017 A 
ENDBRANCH  27  31
ENDBRANCH   1  23
TORSDOF 7
ENDMDL
MODEL 2
REMARK VINA RESULT:      -8.9      1.352      2.021
REMARK  7 active torsions:
REMARK  status: ('A' for Active; 'I' for Inactive)
REMARK    1  A    between atoms: C_3  and  C_4 
REMARK       I    between atoms: C_4  and  N_5 
REMARK    2  A    between atoms: N_8  and  C_9 
REMARK    3  A    between atoms: C_12  and  N_13 
REMARK    4  A    between atoms: N_13  and  C_14 
REMARK    5  A    between atoms: C_14  and  N_15 
REMARK       I    between atoms: N_15  and  C_16 
REMARK    6  A    between atoms: C_16  and  C_17 
REMARK    7  A    between atoms: C_18  and  O_19 
ROOT
HETATM    1  C   UNL     1      -4.832   4.665 -31.893  1.00  0.00     0.030 A 
HETATM    2  C   UNL     1      -4.520   3.755 -32.916  1.00  0.00     0.031 A 
HETATM    3  C   UNL     1      -5.486   2.892 -33.463  1.00  0.00     0.032 A 
HETATM    4  C   UNL     1      -6.790   2.891 -32.972  1.00  0.00     0.034 A 
HETATM    5  C   UNL     1      -7.135   3.846 -32.023  1.00  0.00     0.032 A 
HETATM    6  C   UNL     1      -6.173   4.711 -31.492  1.00  0.00     0.031 A 
ENDROOT
BRANCH   4   7
HETATM    7  N   UNL     1      -7.706   1.950 -33.487  1.00  0.00    -0.333 N 
HETATM    8  H   UNL     1      -8.084   2.145 -34.414  1.00  0.00     0.168 HD
BRANCH   7   9
HETATM    9  C   UNL     1      -8.045   0.708 -32.998  1.00  0.00     0.179 C 
HETATM   10  S   UNL     1      -9.376   0.258 -32.084  1.00  0.00    -0.040 SA
BRANCH   9  11
HETATM   11  N   UNL     1      -7.156  -0.305 -33.289  1.00  0.00    -0.299 N 
HETATM   12  C   UNL     1      -6.745  -0.811 -34.512  1.00  0.00     0.260 C 
HETATM   13  O   UNL     1      -6.829  -0.184 -35.566  1.00  0.00    -0.267 OA
HETATM   14  H   UNL     1      -6.932  -0.865 -32.474  1.00  0.00     0.171 HD
BRANCH  12  15
HETATM   15  C   UNL     1      -6.071  -2.148 -34.460  1.00  0.00     0.065 A 
HETATM   16  C   UNL     1      -4.749  -2.326 -34.003  1.00  0.00     0.084 A 
HETATM   17  C   UNL     1      -4.186  -3.608 -34.007  1.00  0.00     0.038 A 
HETATM   18  C   UNL     1      -4.934  -4.706 -34.436  1.00  0.00     0.003 A 
HETATM   19  C   UNL     1      -6.248  -4.535 -34.865  1.00  0.00     0.001 A 
HETATM   20  C   UNL     1      -6.818  -3.261 -34.874  1.00  0.00     0.020 A 
BRANCH  16  21
HETATM   21  O   UNL     1      -4.055  -1.210 -33.610  1.00  0.00    -0.355 OA
HETATM   22  C   UNL     1      -3.602  -1.173 -32.259  1.00  0.00     0.210 C 
ENDBRANCH  16  21
ENDBRANCH  12  15
ENDBRANCH   9  11
ENDBRANCH   7   9
ENDBRANCH   4   7
BRANCH   1  23
HETATM   23  N   UNL     1      -3.830   5.407 -31.261  1.00  0.00    -0.378 N 
HETATM   24  C   UNL     1      -2.423   5.015 -31.480  1.00  0.00     0.143 C 
HETATM   25  C   UNL     1      -1.481   6.178 -31.146  1.00  0.00     0.146 C 
HETATM   26  N   UNL     1      -1.727   6.770 -29.830  1.00  0.00    -0.345 N 
HETATM   27  C   UNL     1      -0.656   7.450 -29.254  1.00  0.00     0.254 C 
HETATM   28  C   UNL     1      -3.141   7.022 -29.506  1.00  0.00     0.146 C 
HETATM   29  O   UNL     1       0.507   7.345 -29.636  1.00  0.00    -0.267 OA
HETATM   30  C   UNL     1      -4.082   5.852 -29.874  1.00  0.00     0.143 C 
BRANCH  27  31
HETATM   31  C   UNL     1      -0.911   8.353 -28.117  1.00  0.00     0.038 A 
HETATM   32  C   UNL     1      -0.931   7.887 -26.791  1.00  0.00    -0.046 A 
HETATM   33  C   UNL     1      -0.640   6.461 -26.423  1.00  0.00     0.049 C 
HETATM   34  C   UNL     1      -1.217   8.807 -25.770  1.00  0.00     0.007 A 
HETATM   35  C   UNL     1      -1.518  10.138 -26.070  1.00  0.00     0.001 A 
HETATM   36  C   UNL     1      -1.531  10.576 -27.393  1.00  0.00     0.001 A 
HETATM   37  C   UNL     1      -1.229   9.684 -28.420  1.00  0.00     0.017 A 
ENDBRANCH  27  31
ENDBRANCH   1  23
TORSDOF 7
ENDMDL
MODEL 3
REMARK VINA RESULT:      -8.8      1.322      1.660
REMARK  7 active torsions:
REMARK  status: ('A' for Active; 'I' for Inactive)
REMARK    1  A    between atoms: C_3  and  C_4 
REMARK       I    between atoms: C_4  and  N_5 
REMARK    2  A    between atoms: N_8  and  C_9 
REMARK    3  A    between atoms: C_12  and  N_13 
REMARK    4  A    between atoms: N_13  and  C_14 
REMARK    5  A    between atoms: C_14  and  N_15 
REMARK       I    between atoms: N_15  and  C_16 
REMARK    6  A    between atoms: C_16  and  C_17 
REMARK    7  A    between atoms: C_18  and  O_19 
ROOT
HETATM    1  C   UNL     1      -6.654   4.835 -31.050  1.00  0.00     0.030 A 
HETATM    2  C   UNL     1      -7.581   4.875 -32.103  1.00  0.00     0.031 A 
HETATM    3  C   UNL     1      -8.603   3.917 -32.231  1.00  0.00     0.032 A 
HETATM    4  C   UNL     1      -8.701   2.865 -31.322  1.00  0.00     0.034 A 
HETATM    5  C   UNL     1      -7.847   2.862 -30.225  1.00  0.00     0.032 A 
HETATM    6  C   UNL     1      -6.841   3.826 -30.096  1.00  0.00     0.031 A 
ENDROOT
BRANCH   4   7
HETATM    7  N   UNL     1      -9.685   1.877 -31.534  1.00  0.00    -0.333 N 
HETATM    8  H   UNL     1     -10.577   2.015 -31.060  1.00  0.00     0.168 HD
BRANCH   7   9
HETATM    9  C   UNL     1      -9.687   0.828 -32.427  1.00  0.00     0.179 C 
HETATM   10  S   UNL     1     -10.980   0.123 -33.227  1.00  0.00    -0.040 SA
BRANCH   9  11
HETATM   11  N   UNL     1      -8.454   0.271 -32.687  1.00  0.00    -0.299 N 
HETATM   12  C   UNL     1      -7.709   0.250 -33.856  1.00  0.00     0.260 C 
HETATM   13  O   UNL     1      -7.865   1.057 -34.770  1.00  0.00    -0.267 OA
HETATM   14  H   UNL     1      -8.160  -0.370 -31.957  1.00  0.00     0.171 HD
BRANCH  12  15
HETATM   15  C   UNL     1      -6.603  -0.759 -33.895  1.00  0.00     0.065 A 
HETATM   16  C   UNL     1      -5.464  -0.685 -33.067  1.00  0.00     0.084 A 
HETATM   17  C   UNL     1      -4.465  -1.659 -33.182  1.00  0.00     0.038 A 
HETATM   18  C   UNL     1      -4.604  -2.710 -34.091  1.00  0.00     0.003 A 
HETATM   19  C   UNL     1      -5.739  -2.797 -34.893  1.00  0.00     0.001 A 
HETATM   20  C   UNL     1      -6.738  -1.828 -34.794  1.00  0.00     0.020 A 
BRANCH  16  21
HETATM   21  O   UNL     1      -5.372   0.377 -32.204  1.00  0.00    -0.355 OA
HETATM   22  C   UNL     1      -4.148   1.108 -32.206  1.00  0.00     0.210 C 
ENDBRANCH  16  21
ENDBRANCH  12  15
ENDBRANCH   9  11
ENDBRANCH   7   9
ENDBRANCH   4   7
BRANCH   1  23
HETATM   23  N   UNL     1      -5.560   5.704 -31.022  1.00  0.00    -0.378 N 
HETATM   24  C   UNL     1      -5.137   6.340 -32.287  1.00  0.00     0.143 C 
HETATM   25  C   UNL     1      -4.292   7.588 -32.007  1.00  0.00     0.146 C 
HETATM   26  N   UNL     1      -3.190   7.350 -31.073  1.00  0.00    -0.345 N 
HETATM   27  C   UNL     1      -2.119   8.238 -31.150  1.00  0.00     0.254 C 
HETATM   28  C   UNL     1      -3.537   6.571 -29.872  1.00  0.00     0.146 C 
HETATM   29  O   UNL     1      -1.925   8.997 -32.097  1.00  0.00    -0.267 OA
HETATM   30  C   UNL     1      -4.412   5.331 -30.167  1.00  0.00     0.143 C 
BRANCH  27  31
HETATM   31  C   UNL     1      -1.148   8.285 -30.041  1.00  0.00     0.038 A 
HETATM   32  C   UNL     1      -0.006   7.466 -30.021  1.00  0.00    -0.046 A 
HETATM   33  C   UNL     1       0.347   6.530 -31.141  1.00  0.00     0.049 C 
HETATM   34  C   UNL     1       0.849   7.548 -28.910  1.00  0.00     0.007 A 
HETATM   35  C   UNL     1       0.546   8.387 -27.835  1.00  0.00     0.001 A 
HETATM   36  C   UNL     1      -0.611   9.165 -27.854  1.00  0.00     0.001 A 
HETATM   37  C   UNL     1      -1.461   9.115 -28.956  1.00  0.00     0.017 A 
ENDBRANCH  27  31
ENDBRANCH   1  23
TORSDOF 7
ENDMDL
MODEL 4
REMARK VINA RESULT:      -8.7      6.122      8.270
REMARK  7 active torsions:
REMARK  status: ('A' for Active; 'I' for Inactive)
REMARK    1  A    between atoms: C_3  and  C_4 
REMARK       I    between atoms: C_4  and  N_5 
REMARK    2  A    between atoms: N_8  and  C_9 
REMARK    3  A    between atoms: C_12  and  N_13 
REMARK    4  A    between atoms: N_13  and  C_14 
REMARK    5  A    between atoms: C_14  and  N_15 
REMARK       I    between atoms: N_15  and  C_16 
REMARK    6  A    between atoms: C_16  and  C_17 
REMARK    7  A    between atoms: C_18  and  O_19 
ROOT
HETATM    1  C   UNL     1     -10.112   4.145 -33.050  1.00  0.00     0.030 A 
HETATM    2  C   UNL     1      -9.830   2.992 -33.801  1.00  0.00     0.031 A 
HETATM    3  C   UNL     1      -9.259   1.846 -33.218  1.00  0.00     0.032 A 
HETATM    4  C   UNL     1      -8.920   1.837 -31.866  1.00  0.00     0.034 A 
HETATM    5  C   UNL     1      -9.275   2.937 -31.092  1.00  0.00     0.032 A 
HETATM    6  C   UNL     1      -9.855   4.068 -31.675  1.00  0.00     0.031 A 
ENDROOT
BRANCH   4   7
HETATM    7  N   UNL     1      -8.270   0.702 -31.339  1.00  0.00    -0.333 N 
HETATM    8  H   UNL     1      -8.847  -0.127 -31.199  1.00  0.00     0.168 HD
BRANCH   7   9
HETATM    9  C   UNL     1      -6.926   0.483 -31.139  1.00  0.00     0.179 C 
HETATM   10  S   UNL     1      -5.875   1.249 -30.080  1.00  0.00    -0.040 SA
BRANCH   9  11
HETATM   11  N   UNL     1      -6.360  -0.492 -31.932  1.00  0.00    -0.299 N 
HETATM   12  C   UNL     1      -6.249  -0.570 -33.312  1.00  0.00     0.260 C 
HETATM   13  O   UNL     1      -6.311   0.410 -34.051  1.00  0.00    -0.267 OA
HETATM   14  H   UNL     1      -6.179  -1.347 -31.419  1.00  0.00     0.171 HD
BRANCH  12  15
HETATM   15  C   UNL     1      -5.926  -1.928 -33.854  1.00  0.00     0.065 A 
HETATM   16  C   UNL     1      -4.640  -2.502 -33.779  1.00  0.00     0.084 A 
HETATM   17  C   UNL     1      -4.418  -3.769 -34.330  1.00  0.00     0.038 A 
HETATM   18  C   UNL     1      -5.465  -4.472 -34.929  1.00  0.00     0.003 A 
HETATM   19  C   UNL     1      -6.741  -3.918 -34.983  1.00  0.00     0.001 A 
HETATM   20  C   UNL     1      -6.974  -2.651 -34.445  1.00  0.00     0.020 A 
BRANCH  16  21
HETATM   21  O   UNL     1      -3.645  -1.760 -33.194  1.00  0.00    -0.355 OA
HETATM   22  C   UNL     1      -3.103  -2.252 -31.971  1.00  0.00     0.210 C 
ENDBRANCH  16  21
ENDBRANCH  12  15
ENDBRANCH   9  11
ENDBRANCH   7   9
ENDBRANCH   4   7
BRANCH   1  23
HETATM   23  N   UNL     1     -10.539   5.321 -33.672  1.00  0.00    -0.378 N 
HETATM   24  C   UNL     1     -11.570   6.137 -32.999  1.00  0.00     0.143 C 
HETATM   25  C   UNL     1     -11.555   7.573 -33.533  1.00  0.00     0.146 C 
HETATM   26  N   UNL     1     -11.606   7.654 -34.994  1.00  0.00    -0.345 N 
HETATM   27  C   UNL     1     -12.090   8.848 -35.526  1.00  0.00     0.254 C 
HETATM   28  C   UNL     1     -10.707   6.732 -35.708  1.00  0.00     0.146 C 
HETATM   29  O   UNL     1     -12.712   9.684 -34.875  1.00  0.00    -0.267 OA
HETATM   30  C   UNL     1     -10.711   5.294 -35.140  1.00  0.00     0.143 C 
BRANCH  27  31
HETATM   31  C   UNL     1     -11.855   9.143 -36.951  1.00  0.00     0.038 A 
HETATM   32  C   UNL     1     -12.707   8.657 -37.958  1.00  0.00    -0.046 A 
HETATM   33  C   UNL     1     -13.945   7.859 -37.666  1.00  0.00     0.049 C 
HETATM   34  C   UNL     1     -12.391   8.956 -39.293  1.00  0.00     0.007 A 
HETATM   35  C   UNL     1     -11.236   9.675 -39.612  1.00  0.00     0.001 A 
HETATM   36  C   UNL     1     -10.381  10.116 -38.603  1.00  0.00     0.001 A 
HETATM   37  C   UNL     1     -10.688   9.850 -37.270  1.00  0.00     0.017 A 
ENDBRANCH  27  31
ENDBRANCH   1  23
TORSDOF 7
ENDMDL
MODEL 5
REMARK VINA RESULT:      -8.2      2.279      3.272
REMARK  7 active torsions:
REMARK  status: ('A' for Active; 'I' for Inactive)
REMARK    1  A    between atoms: C_3  and  C_4 
REMARK       I    between atoms: C_4  and  N_5 
REMARK    2  A    between atoms: N_8  and  C_9 
REMARK    3  A    between atoms: C_12  and  N_13 
REMARK    4  A    between atoms: N_13  and  C_14 
REMARK    5  A    between atoms: C_14  and  N_15 
REMARK       I    between atoms: N_15  and  C_16 
REMARK    6  A    between atoms: C_16  and  C_17 
REMARK    7  A    between atoms: C_18  and  O_19 
ROOT
HETATM    1  C   UNL     1      -5.292   5.708 -30.581  1.00  0.00     0.030 A 
HETATM    2  C   UNL     1      -5.004   6.013 -31.921  1.00  0.00     0.031 A 
HETATM    3  C   UNL     1      -5.703   5.417 -32.986  1.00  0.00     0.032 A 
HETATM    4  C   UNL     1      -6.690   4.465 -32.736  1.00  0.00     0.034 A 
HETATM    5  C   UNL     1      -7.047   4.219 -31.415  1.00  0.00     0.032 A 
HETATM    6  C   UNL     1      -6.357   4.826 -30.360  1.00  0.00     0.031 A 
ENDROOT
BRANCH   4   7
HETATM    7  N   UNL     1      -7.308   3.827 -33.832  1.00  0.00    -0.333 N 
HETATM    8  H   UNL     1      -6.936   4.050 -34.755  1.00  0.00     0.168 HD
BRANCH   7   9
HETATM    9  C   UNL     1      -8.234   2.808 -33.837  1.00  0.00     0.179 C 
HETATM   10  S   UNL     1      -9.902   2.895 -33.698  1.00  0.00    -0.040 SA
BRANCH   9  11
HETATM   11  N   UNL     1      -7.715   1.537 -33.958  1.00  0.00    -0.299 N 
HETATM   12  C   UNL     1      -7.337   0.629 -32.982  1.00  0.00     0.260 C 
HETATM   13  O   UNL     1      -7.752   0.667 -31.826  1.00  0.00    -0.267 OA
HETATM   14  H   UNL     1      -7.399   1.339 -34.901  1.00  0.00     0.171 HD
BRANCH  12  15
HETATM   15  C   UNL     1      -6.465  -0.495 -33.453  1.00  0.00     0.065 A 
HETATM   16  C   UNL     1      -5.077  -0.545 -33.210  1.00  0.00     0.084 A 
HETATM   17  C   UNL     1      -4.330  -1.622 -33.704  1.00  0.00     0.038 A 
HETATM   18  C   UNL     1      -4.957  -2.651 -34.409  1.00  0.00     0.003 A 
HETATM   19  C   UNL     1      -6.332  -2.615 -34.628  1.00  0.00     0.001 A 
HETATM   20  C   UNL     1      -7.086  -1.543 -34.149  1.00  0.00     0.020 A 
BRANCH  16  21
HETATM   21  O   UNL     1      -4.511   0.501 -32.527  1.00  0.00    -0.355 OA
HETATM   22  C   UNL     1      -4.119   0.256 -31.178  1.00  0.00     0.210 C 
ENDBRANCH  16  21
ENDBRANCH  12  15
ENDBRANCH   9  11
ENDBRANCH   7   9
ENDBRANCH   4   7
BRANCH   1  23
HETATM   23  N   UNL     1      -4.490   6.195 -29.545  1.00  0.00    -0.378 N 
HETATM   24  C   UNL     1      -5.152   6.715 -28.330  1.00  0.00     0.143 C 
HETATM   25  C   UNL     1      -4.174   6.735 -27.150  1.00  0.00     0.146 C 
HETATM   26  N   UNL     1      -2.904   7.396 -27.454  1.00  0.00    -0.345 N 
HETATM   27  C   UNL     1      -2.195   7.893 -26.362  1.00  0.00     0.254 C 
HETATM   28  C   UNL     1      -2.292   7.026 -28.741  1.00  0.00     0.146 C 
HETATM   29  O   UNL     1      -2.682   8.055 -25.246  1.00  0.00    -0.267 OA
HETATM   30  C   UNL     1      -3.296   6.982 -29.917  1.00  0.00     0.143 C 
BRANCH  27  31
HETATM   31  C   UNL     1      -0.776   8.255 -26.536  1.00  0.00     0.038 A 
HETATM   32  C   UNL     1      -0.385   9.535 -26.965  1.00  0.00    -0.046 A 
HETATM   33  C   UNL     1      -1.364  10.644 -27.223  1.00  0.00     0.049 C 
HETATM   34  C   UNL     1       0.985   9.785 -27.139  1.00  0.00     0.007 A 
HETATM   35  C   UNL     1       1.929   8.774 -26.934  1.00  0.00     0.001 A 
HETATM   36  C   UNL     1       1.521   7.499 -26.545  1.00  0.00     0.001 A 
HETATM   37  C   UNL     1       0.168   7.237 -26.346  1.00  0.00     0.017 A 
ENDBRANCH  27  31
ENDBRANCH   1  23
TORSDOF 7
ENDMDL
MODEL 6
REMARK VINA RESULT:      -8.2      4.365     11.202
REMARK  7 active torsions:
REMARK  status: ('A' for Active; 'I' for Inactive)
REMARK    1  A    between atoms: C_3  and  C_4 
REMARK       I    between atoms: C_4  and  N_5 
REMARK    2  A    between atoms: N_8  and  C_9 
REMARK    3  A    between atoms: C_12  and  N_13 
REMARK    4  A    between atoms: N_13  and  C_14 
REMARK    5  A    between atoms: C_14  and  N_15 
REMARK       I    between atoms: N_15  and  C_16 
REMARK    6  A    between atoms: C_16  and  C_17 
REMARK    7  A    between atoms: C_18  and  O_19 
ROOT
HETATM    1  C   UNL     1      -6.651   3.993 -32.951  1.00  0.00     0.030 A 
HETATM    2  C   UNL     1      -6.096   5.189 -32.468  1.00  0.00     0.031 A 
HETATM    3  C   UNL     1      -4.805   5.237 -31.911  1.00  0.00     0.032 A 
HETATM    4  C   UNL     1      -4.046   4.075 -31.788  1.00  0.00     0.034 A 
HETATM    5  C   UNL     1      -4.546   2.902 -32.342  1.00  0.00     0.032 A 
HETATM    6  C   UNL     1      -5.825   2.863 -32.906  1.00  0.00     0.031 A 
ENDROOT
BRANCH   4   7
HETATM    7  N   UNL     1      -2.792   4.150 -31.145  1.00  0.00    -0.333 N 
HETATM    8  H   UNL     1      -2.531   3.352 -30.566  1.00  0.00     0.168 HD
BRANCH   7   9
HETATM    9  C   UNL     1      -1.781   5.069 -31.314  1.00  0.00     0.179 C 
HETATM   10  S   UNL     1      -1.052   5.591 -32.730  1.00  0.00    -0.040 SA
BRANCH   9  11
HETATM   11  N   UNL     1      -1.290   5.628 -30.153  1.00  0.00    -0.299 N 
HETATM   12  C   UNL     1      -1.639   6.804 -29.508  1.00  0.00     0.260 C 
HETATM   13  O   UNL     1      -2.718   7.369 -29.671  1.00  0.00    -0.267 OA
HETATM   14  H   UNL     1      -0.423   5.193 -29.855  1.00  0.00     0.171 HD
BRANCH  12  15
HETATM   15  C   UNL     1      -0.654   7.296 -28.493  1.00  0.00     0.065 A 
HETATM   16  C   UNL     1      -0.882   7.228 -27.103  1.00  0.00     0.084 A 
HETATM   17  C   UNL     1       0.082   7.730 -26.221  1.00  0.00     0.038 A 
HETATM   18  C   UNL     1       1.272   8.274 -26.711  1.00  0.00     0.003 A 
HETATM   19  C   UNL     1       1.509   8.320 -28.082  1.00  0.00     0.001 A 
HETATM   20  C   UNL     1       0.552   7.830 -28.972  1.00  0.00     0.020 A 
BRANCH  16  21
HETATM   21  O   UNL     1      -2.075   6.700 -26.678  1.00  0.00    -0.355 OA
HETATM   22  C   UNL     1      -2.697   7.324 -25.558  1.00  0.00     0.210 C 
ENDBRANCH  16  21
ENDBRANCH  12  15
ENDBRANCH   9  11
ENDBRANCH   7   9
ENDBRANCH   4   7
BRANCH   1  23
HETATM   23  N   UNL     1      -7.986   3.935 -33.362  1.00  0.00    -0.378 N 
HETATM   24  C   UNL     1      -8.619   5.171 -33.865  1.00  0.00     0.143 C 
HETATM   25  C   UNL     1      -9.856   4.839 -34.707  1.00  0.00     0.146 C 
HETATM   26  N   UNL     1     -10.791   3.932 -34.039  1.00  0.00    -0.345 N 
HETATM   27  C   UNL     1     -12.111   3.977 -34.482  1.00  0.00     0.254 C 
HETATM   28  C   UNL     1     -10.177   2.768 -33.378  1.00  0.00     0.146 C 
HETATM   29  O   UNL     1     -12.573   4.887 -35.166  1.00  0.00    -0.267 OA
HETATM   30  C   UNL     1      -8.914   3.114 -32.556  1.00  0.00     0.143 C 
BRANCH  27  31
HETATM   31  C   UNL     1     -13.025   2.878 -34.118  1.00  0.00     0.038 A 
HETATM   32  C   UNL     1     -13.833   2.937 -32.968  1.00  0.00    -0.046 A 
HETATM   33  C   UNL     1     -13.874   4.132 -32.060  1.00  0.00     0.049 C 
HETATM   34  C   UNL     1     -14.649   1.833 -32.676  1.00  0.00     0.007 A 
HETATM   35  C   UNL     1     -14.623   0.691 -33.480  1.00  0.00     0.001 A 
HETATM   36  C   UNL     1     -13.788   0.634 -34.595  1.00  0.00     0.001 A 
HETATM   37  C   UNL     1     -12.987   1.727 -34.916  1.00  0.00     0.017 A 
ENDBRANCH  27  31
ENDBRANCH   1  23
TORSDOF 7
ENDMDL
MODEL 7
REMARK VINA RESULT:      -8.0      3.468     10.836
REMARK  7 active torsions:
REMARK  status: ('A' for Active; 'I' for Inactive)
REMARK    1  A    between atoms: C_3  and  C_4 
REMARK       I    between atoms: C_4  and  N_5 
REMARK    2  A    between atoms: N_8  and  C_9 
REMARK    3  A    between atoms: C_12  and  N_13 
REMARK    4  A    between atoms: N_13  and  C_14 
REMARK    5  A    between atoms: C_14  and  N_15 
REMARK       I    between atoms: N_15  and  C_16 
REMARK    6  A    between atoms: C_16  and  C_17 
REMARK    7  A    between atoms: C_18  and  O_19 
ROOT
HETATM    1  C   UNL     1      -5.876   5.826 -29.895  1.00  0.00     0.030 A 
HETATM    2  C   UNL     1      -5.496   6.871 -30.752  1.00  0.00     0.031 A 
HETATM    3  C   UNL     1      -5.149   8.144 -30.264  1.00  0.00     0.032 A 
HETATM    4  C   UNL     1      -5.209   8.416 -28.899  1.00  0.00     0.034 A 
HETATM    5  C   UNL     1      -5.497   7.367 -28.032  1.00  0.00     0.032 A 
HETATM    6  C   UNL     1      -5.828   6.100 -28.523  1.00  0.00     0.031 A 
ENDROOT
BRANCH   4   7
HETATM    7  N   UNL     1      -4.938   9.728 -28.457  1.00  0.00    -0.333 N 
HETATM    8  H   UNL     1      -5.377  10.483 -28.983  1.00  0.00     0.168 HD
BRANCH   7   9
HETATM    9  C   UNL     1      -4.301  10.146 -27.310  1.00  0.00     0.179 C 
HETATM   10  S   UNL     1      -4.888  11.100 -26.062  1.00  0.00    -0.040 SA
BRANCH   9  11
HETATM   11  N   UNL     1      -2.992   9.736 -27.177  1.00  0.00    -0.299 N 
HETATM   12  C   UNL     1      -1.927   9.843 -28.057  1.00  0.00     0.260 C 
HETATM   13  O   UNL     1      -1.884  10.665 -28.969  1.00  0.00    -0.267 OA
HETATM   14  H   UNL     1      -2.866   9.101 -26.396  1.00  0.00     0.171 HD
BRANCH  12  15
HETATM   15  C   UNL     1      -0.754   8.961 -27.757  1.00  0.00     0.065 A 
HETATM   16  C   UNL     1      -0.741   7.578 -28.032  1.00  0.00     0.084 A 
HETATM   17  C   UNL     1       0.389   6.821 -27.701  1.00  0.00     0.038 A 
HETATM   18  C   UNL     1       1.505   7.432 -27.125  1.00  0.00     0.003 A 
HETATM   19  C   UNL     1       1.503   8.802 -26.874  1.00  0.00     0.001 A 
HETATM   20  C   UNL     1       0.379   9.566 -27.192  1.00  0.00     0.020 A 
BRANCH  16  21
HETATM   21  O   UNL     1      -1.870   7.028 -28.583  1.00  0.00    -0.355 OA
HETATM   22  C   UNL     1      -1.789   6.609 -29.943  1.00  0.00     0.210 C 
ENDBRANCH  16  21
ENDBRANCH  12  15
ENDBRANCH   9  11
ENDBRANCH   7   9
ENDBRANCH   4   7
BRANCH   1  23
HETATM   23  N   UNL     1      -6.359   4.618 -30.406  1.00  0.00    -0.378 N 
HETATM   24  C   UNL     1      -7.422   3.915 -29.658  1.00  0.00     0.143 C 
HETATM   25  C   UNL     1      -8.157   2.925 -30.568  1.00  0.00     0.146 C 
HETATM   26  N   UNL     1      -7.261   2.025 -31.296  1.00  0.00    -0.345 N 
HETATM   27  C   UNL     1      -7.816   0.822 -31.726  1.00  0.00     0.254 C 
HETATM   28  C   UNL     1      -6.091   2.668 -31.919  1.00  0.00     0.146 C 
HETATM   29  O   UNL     1      -8.878   0.368 -31.304  1.00  0.00    -0.267 OA
HETATM   30  C   UNL     1      -5.377   3.685 -31.000  1.00  0.00     0.143 C 
BRANCH  27  31
HETATM   31  C   UNL     1      -7.104   0.028 -32.744  1.00  0.00     0.038 A 
HETATM   32  C   UNL     1      -7.544  -0.033 -34.078  1.00  0.00    -0.046 A 
HETATM   33  C   UNL     1      -8.728   0.741 -34.583  1.00  0.00     0.049 C 
HETATM   34  C   UNL     1      -6.827  -0.840 -34.975  1.00  0.00     0.007 A 
HETATM   35  C   UNL     1      -5.735  -1.597 -34.542  1.00  0.00     0.001 A 
HETATM   36  C   UNL     1      -5.334  -1.554 -33.207  1.00  0.00     0.001 A 
HETATM   37  C   UNL     1      -6.018  -0.742 -32.306  1.00  0.00     0.017 A 
ENDBRANCH  27  31
ENDBRANCH   1  23
TORSDOF 7
ENDMDL
MODEL 8
REMARK VINA RESULT:      -8.0      5.613      8.150
REMARK  7 active torsions:
REMARK  status: ('A' for Active; 'I' for Inactive)
REMARK    1  A    between atoms: C_3  and  C_4 
REMARK       I    between atoms: C_4  and  N_5 
REMARK    2  A    between atoms: N_8  and  C_9 
REMARK    3  A    between atoms: C_12  and  N_13 
REMARK    4  A    between atoms: N_13  and  C_14 
REMARK    5  A    between atoms: C_14  and  N_15 
REMARK       I    between atoms: N_15  and  C_16 
REMARK    6  A    between atoms: C_16  and  C_17 
REMARK    7  A    between atoms: C_18  and  O_19 
ROOT
HETATM    1  C   UNL     1      -9.568   4.579 -33.229  1.00  0.00     0.030 A 
HETATM    2  C   UNL     1      -8.288   4.053 -33.468  1.00  0.00     0.031 A 
HETATM    3  C   UNL     1      -7.782   2.964 -32.735  1.00  0.00     0.032 A 
HETATM    4  C   UNL     1      -8.536   2.393 -31.711  1.00  0.00     0.034 A 
HETATM    5  C   UNL     1      -9.837   2.844 -31.522  1.00  0.00     0.032 A 
HETATM    6  C   UNL     1     -10.339   3.919 -32.264  1.00  0.00     0.031 A 
ENDROOT
BRANCH   4   7
HETATM    7  N   UNL     1      -7.959   1.360 -30.942  1.00  0.00    -0.333 N 
HETATM    8  H   UNL     1      -8.606   0.706 -30.504  1.00  0.00     0.168 HD
BRANCH   7   9
HETATM    9  C   UNL     1      -6.636   0.995 -30.828  1.00  0.00     0.179 C 
HETATM   10  S   UNL     1      -5.416   1.706 -29.925  1.00  0.00    -0.040 SA
BRANCH   9  11
HETATM   11  N   UNL     1      -6.259  -0.100 -31.575  1.00  0.00    -0.299 N 
HETATM   12  C   UNL     1      -5.377  -0.197 -32.640  1.00  0.00     0.260 C 
HETATM   13  O   UNL     1      -4.494   0.628 -32.863  1.00  0.00    -0.267 OA
HETATM   14  H   UNL     1      -6.869  -0.896 -31.425  1.00  0.00     0.171 HD
BRANCH  12  15
HETATM   15  C   UNL     1      -5.489  -1.448 -33.456  1.00  0.00     0.065 A 
HETATM   16  C   UNL     1      -6.672  -1.827 -34.125  1.00  0.00     0.084 A 
HETATM   17  C   UNL     1      -6.698  -3.024 -34.850  1.00  0.00     0.038 A 
HETATM   18  C   UNL     1      -5.558  -3.827 -34.931  1.00  0.00     0.003 A 
HETATM   19  C   UNL     1      -4.383  -3.442 -34.291  1.00  0.00     0.001 A 
HETATM   20  C   UNL     1      -4.346  -2.255 -33.558  1.00  0.00     0.020 A 
BRANCH  16  21
HETATM   21  O   UNL     1      -7.766  -1.010 -33.997  1.00  0.00    -0.355 OA
HETATM   22  C   UNL     1      -7.965  -0.031 -35.014  1.00  0.00     0.210 C 
ENDBRANCH  16  21
ENDBRANCH  12  15
ENDBRANCH   9  11
ENDBRANCH   7   9
ENDBRANCH   4   7
BRANCH   1  23
HETATM   23  N   UNL     1      -9.994   5.750 -33.861  1.00  0.00    -0.378 N 
HETATM   24  C   UNL     1     -10.875   6.671 -33.114  1.00  0.00     0.143 C 
HETATM   25  C   UNL     1     -10.836   8.073 -33.730  1.00  0.00     0.146 C 
HETATM   26  N   UNL     1     -11.069   8.084 -35.175  1.00  0.00    -0.345 N 
HETATM   27  C   UNL     1     -11.539   9.281 -35.712  1.00  0.00     0.254 C 
HETATM   28  C   UNL     1     -10.331   7.065 -35.940  1.00  0.00     0.146 C 
HETATM   29  O   UNL     1     -12.017  10.192 -35.039  1.00  0.00    -0.267 OA
HETATM   30  C   UNL     1     -10.355   5.661 -35.292  1.00  0.00     0.143 C 
BRANCH  27  31
HETATM   31  C   UNL     1     -11.470   9.486 -37.170  1.00  0.00     0.038 A 
HETATM   32  C   UNL     1     -10.395  10.160 -37.774  1.00  0.00    -0.046 A 
HETATM   33  C   UNL     1      -9.213  10.668 -37.001  1.00  0.00     0.049 C 
HETATM   34  C   UNL     1     -10.425  10.342 -39.166  1.00  0.00     0.007 A 
HETATM   35  C   UNL     1     -11.518   9.907 -39.921  1.00  0.00     0.001 A 
HETATM   36  C   UNL     1     -12.594   9.273 -39.301  1.00  0.00     0.001 A 
HETATM   37  C   UNL     1     -12.573   9.063 -37.924  1.00  0.00     0.017 A 
ENDBRANCH  27  31
ENDBRANCH   1  23
TORSDOF 7
ENDMDL
MODEL 9
REMARK VINA RESULT:      -7.9      5.885      8.408
REMARK  7 active torsions:
REMARK  status: ('A' for Active; 'I' for Inactive)
REMARK    1  A    between atoms: C_3  and  C_4 
REMARK       I    between atoms: C_4  and  N_5 
REMARK    2  A    between atoms: N_8  and  C_9 
REMARK    3  A    between atoms: C_12  and  N_13 
REMARK    4  A    between atoms: N_13  and  C_14 
REMARK    5  A    between atoms: C_14  and  N_15 
REMARK       I    between atoms: N_15  and  C_16 
REMARK    6  A    between atoms: C_16  and  C_17 
REMARK    7  A    between atoms: C_18  and  O_19 
ROOT
HETATM    1  C   UNL     1      -8.757   5.481 -33.146  1.00  0.00     0.030 A 
HETATM    2  C   UNL     1      -8.154   4.402 -33.812  1.00  0.00     0.031 A 
HETATM    3  C   UNL     1      -7.338   3.474 -33.140  1.00  0.00     0.032 A 
HETATM    4  C   UNL     1      -7.073   3.625 -31.780  1.00  0.00     0.034 A 
HETATM    5  C   UNL     1      -7.733   4.635 -31.089  1.00  0.00     0.032 A 
HETATM    6  C   UNL     1      -8.554   5.546 -31.762  1.00  0.00     0.031 A 
ENDROOT
BRANCH   4   7
HETATM    7  N   UNL     1      -6.180   2.724 -31.161  1.00  0.00    -0.333 N 
HETATM    8  H   UNL     1      -6.451   2.378 -30.241  1.00  0.00     0.168 HD
BRANCH   7   9
HETATM    9  C   UNL     1      -5.069   2.103 -31.684  1.00  0.00     0.179 C 
HETATM   10  S   UNL     1      -3.449   2.479 -31.475  1.00  0.00    -0.040 SA
BRANCH   9  11
HETATM   11  N   UNL     1      -5.326   1.029 -32.510  1.00  0.00    -0.299 N 
HETATM   12  C   UNL     1      -6.094  -0.104 -32.292  1.00  0.00     0.260 C 
HETATM   13  O   UNL     1      -6.986  -0.164 -31.448  1.00  0.00    -0.267 OA
HETATM   14  H   UNL     1      -4.700   1.000 -33.308  1.00  0.00     0.171 HD
BRANCH  12  15
HETATM   15  C   UNL     1      -5.851  -1.237 -33.241  1.00  0.00     0.065 A 
HETATM   16  C   UNL     1      -4.603  -1.882 -33.365  1.00  0.00     0.084 A 
HETATM   17  C   UNL     1      -4.454  -2.921 -34.292  1.00  0.00     0.038 A 
HETATM   18  C   UNL     1      -5.538  -3.333 -35.071  1.00  0.00     0.003 A 
HETATM   19  C   UNL     1      -6.777  -2.713 -34.932  1.00  0.00     0.001 A 
HETATM   20  C   UNL     1      -6.936  -1.671 -34.018  1.00  0.00     0.020 A 
BRANCH  16  21
HETATM   21  O   UNL     1      -3.569  -1.425 -32.588  1.00  0.00    -0.355 OA
HETATM   22  C   UNL     1      -2.838  -2.398 -31.847  1.00  0.00     0.210 C 
ENDBRANCH  16  21
ENDBRANCH  12  15
ENDBRANCH   9  11
ENDBRANCH   7   9
ENDBRANCH   4   7
BRANCH   1  23
HETATM   23  N   UNL     1      -9.439   6.473 -33.855  1.00  0.00    -0.378 N 
HETATM   24  C   UNL     1     -10.099   7.553 -33.092  1.00  0.00     0.143 C 
HETATM   25  C   UNL     1     -10.352   8.769 -33.989  1.00  0.00     0.146 C 
HETATM   26  N   UNL     1     -11.030   8.439 -35.244  1.00  0.00    -0.345 N 
HETATM   27  C   UNL     1     -11.726   9.480 -35.856  1.00  0.00     0.254 C 
HETATM   28  C   UNL     1     -10.505   7.261 -35.954  1.00  0.00     0.146 C 
HETATM   29  O   UNL     1     -12.028  10.528 -35.291  1.00  0.00    -0.267 OA
HETATM   30  C   UNL     1     -10.228   6.051 -35.032  1.00  0.00     0.143 C 
BRANCH  27  31
HETATM   31  C   UNL     1     -12.137   9.333 -37.265  1.00  0.00     0.038 A 
HETATM   32  C   UNL     1     -11.302   9.725 -38.325  1.00  0.00    -0.046 A 
HETATM   33  C   UNL     1      -9.916  10.265 -38.116  1.00  0.00     0.049 C 
HETATM   34  C   UNL     1     -11.785   9.583 -39.636  1.00  0.00     0.007 A 
HETATM   35  C   UNL     1     -13.077   9.109 -39.875  1.00  0.00     0.001 A 
HETATM   36  C   UNL     1     -13.907   8.759 -38.810  1.00  0.00     0.001 A 
HETATM   37  C   UNL     1     -13.439   8.872 -37.503  1.00  0.00     0.017 A 
ENDBRANCH  27  31
ENDBRANCH   1  23
TORSDOF 7
ENDMDL
MODEL 10
REMARK VINA RESULT:      -7.9      2.675      4.509
REMARK  7 active torsions:
REMARK  status: ('A' for Active; 'I' for Inactive)
REMARK    1  A    between atoms: C_3  and  C_4 
REMARK       I    between atoms: C_4  and  N_5 
REMARK    2  A    between atoms: N_8  and  C_9 
REMARK    3  A    between atoms: C_12  and  N_13 
REMARK    4  A    between atoms: N_13  and  C_14 
REMARK    5  A    between atoms: C_14  and  N_15 
REMARK       I    between atoms: N_15  and  C_16 
REMARK    6  A    between atoms: C_16  and  C_17 
REMARK    7  A    between atoms: C_18  and  O_19 
ROOT
HETATM    1  C   UNL     1      -4.988   4.710 -32.252  1.00  0.00     0.030 A 
HETATM    2  C   UNL     1      -5.429   4.948 -33.563  1.00  0.00     0.031 A 
HETATM    3  C   UNL     1      -6.020   3.939 -34.344  1.00  0.00     0.032 A 
HETATM    4  C   UNL     1      -6.152   2.645 -33.842  1.00  0.00     0.034 A 
HETATM    5  C   UNL     1      -5.802   2.416 -32.517  1.00  0.00     0.032 A 
HETATM    6  C   UNL     1      -5.227   3.428 -31.740  1.00  0.00     0.031 A 
ENDROOT
BRANCH   4   7
HETATM    7  N   UNL     1      -6.669   1.641 -34.687  1.00  0.00    -0.333 N 
HETATM    8  H   UNL     1      -6.241   1.559 -35.609  1.00  0.00     0.168 HD
BRANCH   7   9
HETATM    9  C   UNL     1      -7.559   0.632 -34.396  1.00  0.00     0.179 C 
HETATM   10  S   UNL     1      -7.254  -0.979 -34.044  1.00  0.00    -0.040 SA
BRANCH   9  11
HETATM   11  N   UNL     1      -8.889   0.993 -34.410  1.00  0.00    -0.299 N 
HETATM   12  C   UNL     1      -9.811   1.054 -33.378  1.00  0.00     0.260 C 
HETATM   13  O   UNL     1      -9.495   1.149 -32.194  1.00  0.00    -0.267 OA
HETATM   14  H   UNL     1      -9.266   1.032 -35.351  1.00  0.00     0.171 HD
BRANCH  12  15
HETATM   15  C   UNL     1     -11.247   1.114 -33.801  1.00  0.00     0.065 A 
HETATM   16  C   UNL     1     -11.775   2.162 -34.585  1.00  0.00     0.084 A 
HETATM   17  C   UNL     1     -13.134   2.153 -34.920  1.00  0.00     0.038 A 
HETATM   18  C   UNL     1     -13.957   1.105 -34.503  1.00  0.00     0.003 A 
HETATM   19  C   UNL     1     -13.432   0.058 -33.750  1.00  0.00     0.001 A 
HETATM   20  C   UNL     1     -12.081   0.059 -33.402  1.00  0.00     0.020 A 
BRANCH  16  21
HETATM   21  O   UNL     1     -10.924   3.174 -34.951  1.00  0.00    -0.355 OA
HETATM   22  C   UNL     1     -11.175   4.463 -34.397  1.00  0.00     0.210 C 
ENDBRANCH  16  21
ENDBRANCH  12  15
ENDBRANCH   9  11
ENDBRANCH   7   9
ENDBRANCH   4   7
BRANCH   1  23
HETATM   23  N   UNL     1      -4.271   5.680 -31.547  1.00  0.00    -0.378 N 
HETATM   24  C   UNL     1      -4.181   7.039 -32.118  1.00  0.00     0.143 C 
HETATM   25  C   UNL     1      -3.814   8.058 -31.033  1.00  0.00     0.146 C 
HETATM   26  N   UNL     1      -2.642   7.675 -30.244  1.00  0.00    -0.345 N 
HETATM   27  C   UNL     1      -1.961   8.715 -29.615  1.00  0.00     0.254 C 
HETATM   28  C   UNL     1      -2.615   6.273 -29.794  1.00  0.00     0.146 C 
HETATM   29  O   UNL     1      -2.107   9.901 -29.900  1.00  0.00    -0.267 OA
HETATM   30  C   UNL     1      -3.014   5.260 -30.891  1.00  0.00     0.143 C 
BRANCH  27  31
HETATM   31  C   UNL     1      -1.000   8.394 -28.543  1.00  0.00     0.038 A 
HETATM   32  C   UNL     1       0.217   7.743 -28.809  1.00  0.00    -0.046 A 
HETATM   33  C   UNL     1       0.660   7.377 -30.196  1.00  0.00     0.049 C 
HETATM   34  C   UNL     1       1.058   7.444 -27.725  1.00  0.00     0.007 A 
HETATM   35  C   UNL     1       0.673   7.744 -26.416  1.00  0.00     0.001 A 
HETATM   36  C   UNL     1      -0.555   8.357 -26.166  1.00  0.00     0.001 A 
HETATM   37  C   UNL     1      -1.394   8.682 -27.229  1.00  0.00     0.017 A 
ENDBRANCH  27  31
ENDBRANCH   1  23
TORSDOF 7
ENDMDL
