MODEL 1
REMARK VINA RESULT:      -9.4      0.000      0.000
REMARK  6 active torsions:
REMARK  status: ('A' for Active; 'I' for Inactive)
REMARK    1  A    between atoms: C_9  and  C_10 
REMARK    2  A    between atoms: C_10  and  N_11 
REMARK       I    between atoms: N_11  and  C_12 
REMARK    3  A    between atoms: N_11  and  C_22 
REMARK    4  A    between atoms: C_12  and  C_13 
REMARK    5  A    between atoms: C_15  and  O_16 
REMARK    6  A    between atoms: C_22  and  C_23 
ROOT
HETATM    1  N   UNL     1      -4.218   2.780 -32.433  1.00  0.00    -0.341 N 
HETATM    2  C   UNL     1      -3.054   3.474 -32.078  1.00  0.00     0.254 C 
HETATM    3  O   UNL     1      -2.330   3.131 -31.143  1.00  0.00    -0.267 OA
ENDROOT
BRANCH   1   4
HETATM    4  C   UNL     1      -4.654   1.728 -31.500  1.00  0.00     0.170 C 
BRANCH   4   5
HETATM    5  C   UNL     1      -4.537   0.334 -32.060  1.00  0.00     0.029 A 
HETATM    6  C   UNL     1      -3.283  -0.368 -31.632  1.00  0.00     0.253 A 
HETATM    7  N   UNL     1      -3.067  -1.627 -32.119  1.00  0.00    -0.322 N 
HETATM    8  O   UNL     1      -2.480   0.153 -30.862  1.00  0.00    -0.268 OA
HETATM    9  C   UNL     1      -3.948  -2.290 -32.975  1.00  0.00     0.045 A 
HETATM   10  H   UNL     1      -2.209  -2.070 -31.823  1.00  0.00     0.169 HD
HETATM   11  C   UNL     1      -5.130  -1.652 -33.364  1.00  0.00    -0.008 A 
HETATM   12  C   UNL     1      -3.645  -3.572 -33.427  1.00  0.00     0.031 A 
HETATM   13  C   UNL     1      -6.014  -2.314 -34.224  1.00  0.00     0.020 A 
HETATM   14  C   UNL     1      -5.405  -0.301 -32.871  1.00  0.00     0.028 A 
HETATM   15  C   UNL     1      -5.714  -3.600 -34.699  1.00  0.00    -0.061 A 
HETATM   16  C   UNL     1      -6.670  -4.325 -35.600  1.00  0.00     0.048 C 
HETATM   17  C   UNL     1      -4.530  -4.227 -34.285  1.00  0.00     0.009 A 
ENDBRANCH   4   5
ENDBRANCH   1   4
BRANCH   1  18
HETATM   18  C   UNL     1      -5.252   3.297 -33.347  1.00  0.00     0.158 C 
BRANCH  18  19
HETATM   19  C   UNL     1      -6.584   3.636 -32.643  1.00  0.00     0.139 C 
HETATM   20  O   UNL     1      -7.612   3.849 -33.630  1.00  0.00    -0.384 OA
HETATM   21  C   UNL     1      -7.923   5.247 -33.698  1.00  0.00     0.168 C 
HETATM   22  C   UNL     1      -6.874   5.973 -32.886  1.00  0.00     0.029 C 
HETATM   23  C   UNL     1      -6.500   4.937 -31.855  1.00  0.00     0.035 C 
ENDBRANCH  18  19
ENDBRANCH   1  18
BRANCH   2  24
HETATM   24  C   UNL     1      -2.647   4.699 -32.802  1.00  0.00     0.034 A 
HETATM   25  C   UNL     1      -2.876   5.928 -32.165  1.00  0.00     0.053 A 
HETATM   26  C   UNL     1      -2.468   7.114 -32.771  1.00  0.00     0.069 A 
HETATM   27  C   UNL     1      -1.865   7.070 -34.030  1.00  0.00     0.037 A 
HETATM   28  C   UNL     1      -1.604   5.846 -34.651  1.00  0.00     0.004 A 
HETATM   29  C   UNL     1      -1.972   4.655 -34.025  1.00  0.00     0.017 A 
BRANCH  26  30
HETATM   30  O   UNL     1      -2.621   8.365 -32.238  1.00  0.00    -0.356 OA
HETATM   31  C   UNL     1      -3.588   8.476 -31.196  1.00  0.00     0.210 C 
ENDBRANCH  26  30
ENDBRANCH   2  24
TORSDOF 6
ENDMDL
MODEL 2
REMARK VINA RESULT:      -8.8      1.577      2.343
REMARK  6 active torsions:
REMARK  status: ('A' for Active; 'I' for Inactive)
REMARK    1  A    between atoms: C_9  and  C_10 
REMARK    2  A    between atoms: C_10  and  N_11 
REMARK       I    between atoms: N_11  and  C_12 
REMARK    3  A    between atoms: N_11  and  C_22 
REMARK    4  A    between atoms: C_12  and  C_13 
REMARK    5  A    between atoms: C_15  and  O_16 
REMARK    6  A    between atoms: C_22  and  C_23 
ROOT
HETATM    1  N   UNL     1      -4.729   3.131 -32.475  1.00  0.00    -0.341 N 
HETATM    2  C   UNL     1      -3.362   3.246 -32.189  1.00  0.00     0.254 C 
HETATM    3  O   UNL     1      -2.754   2.433 -31.493  1.00  0.00    -0.267 OA
ENDROOT
BRANCH   1   4
HETATM    4  C   UNL     1      -5.460   2.094 -31.730  1.00  0.00     0.170 C 
BRANCH   4   5
HETATM    5  C   UNL     1      -5.611   0.798 -32.484  1.00  0.00     0.029 A 
HETATM    6  C   UNL     1      -6.924   0.683 -33.199  1.00  0.00     0.253 A 
HETATM    7  N   UNL     1      -7.173  -0.474 -33.882  1.00  0.00    -0.322 N 
HETATM    8  O   UNL     1      -7.748   1.595 -33.190  1.00  0.00    -0.268 OA
HETATM    9  C   UNL     1      -6.273  -1.539 -33.957  1.00  0.00     0.045 A 
HETATM   10  H   UNL     1      -8.070  -0.528 -34.343  1.00  0.00     0.169 HD
HETATM   11  C   UNL     1      -5.037  -1.435 -33.310  1.00  0.00    -0.008 A 
HETATM   12  C   UNL     1      -6.611  -2.686 -34.672  1.00  0.00     0.031 A 
HETATM   13  C   UNL     1      -4.134  -2.502 -33.383  1.00  0.00     0.020 A 
HETATM   14  C   UNL     1      -4.727  -0.214 -32.564  1.00  0.00     0.028 A 
HETATM   15  C   UNL     1      -4.468  -3.668 -34.088  1.00  0.00    -0.061 A 
HETATM   16  C   UNL     1      -3.494  -4.805 -34.191  1.00  0.00     0.048 C 
HETATM   17  C   UNL     1      -5.707  -3.747 -34.740  1.00  0.00     0.009 A 
ENDBRANCH   4   5
ENDBRANCH   1   4
BRANCH   1  18
HETATM   18  C   UNL     1      -5.553   4.205 -33.058  1.00  0.00     0.158 C 
BRANCH  18  19
HETATM   19  C   UNL     1      -6.498   4.879 -32.041  1.00  0.00     0.139 C 
HETATM   20  O   UNL     1      -7.344   5.828 -32.720  1.00  0.00    -0.384 OA
HETATM   21  C   UNL     1      -6.926   7.159 -32.387  1.00  0.00     0.168 C 
HETATM   22  C   UNL     1      -5.609   7.038 -31.653  1.00  0.00     0.029 C 
HETATM   23  C   UNL     1      -5.737   5.686 -30.997  1.00  0.00     0.035 C 
ENDBRANCH  18  19
ENDBRANCH   1  18
BRANCH   2  24
HETATM   24  C   UNL     1      -2.574   4.395 -32.690  1.00  0.00     0.034 A 
HETATM   25  C   UNL     1      -2.099   5.312 -31.741  1.00  0.00     0.053 A 
HETATM   26  C   UNL     1      -1.307   6.385 -32.143  1.00  0.00     0.069 A 
HETATM   27  C   UNL     1      -1.021   6.557 -33.500  1.00  0.00     0.037 A 
HETATM   28  C   UNL     1      -1.464   5.625 -34.443  1.00  0.00     0.004 A 
HETATM   29  C   UNL     1      -2.220   4.527 -34.036  1.00  0.00     0.017 A 
BRANCH  26  30
HETATM   30  O   UNL     1      -0.775   7.329 -31.309  1.00  0.00    -0.356 OA
HETATM   31  C   UNL     1       0.275   6.876 -30.457  1.00  0.00     0.210 C 
ENDBRANCH  26  30
ENDBRANCH   2  24
TORSDOF 6
ENDMDL
MODEL 3
REMARK VINA RESULT:      -8.5      2.142      5.070
REMARK  6 active torsions:
REMARK  status: ('A' for Active; 'I' for Inactive)
REMARK    1  A    between atoms: C_9  and  C_10 
REMARK    2  A    between atoms: C_10  and  N_11 
REMARK       I    between atoms: N_11  and  C_12 
REMARK    3  A    between atoms: N_11  and  C_22 
REMARK    4  A    between atoms: C_12  and  C_13 
REMARK    5  A    between atoms: C_15  and  O_16 
REMARK    6  A    between atoms: C_22  and  C_23 
ROOT
HETATM    1  N   UNL     1      -6.509   3.217 -32.666  1.00  0.00    -0.341 N 
HETATM    2  C   UNL     1      -7.887   3.317 -32.433  1.00  0.00     0.254 C 
HETATM    3  O   UNL     1      -8.433   2.842 -31.437  1.00  0.00    -0.267 OA
ENDROOT
BRANCH   1   4
HETATM    4  C   UNL     1      -5.763   2.332 -31.759  1.00  0.00     0.170 C 
BRANCH   4   5
HETATM    5  C   UNL     1      -5.391   1.007 -32.373  1.00  0.00     0.029 A 
HETATM    6  C   UNL     1      -3.915   0.742 -32.352  1.00  0.00     0.253 A 
HETATM    7  N   UNL     1      -3.473  -0.420 -32.920  1.00  0.00    -0.322 N 
HETATM    8  O   UNL     1      -3.125   1.526 -31.832  1.00  0.00    -0.268 OA
HETATM    9  C   UNL     1      -4.317  -1.367 -33.504  1.00  0.00     0.045 A 
HETATM   10  H   UNL     1      -2.474  -0.565 -32.901  1.00  0.00     0.169 HD
HETATM   11  C   UNL     1      -5.696  -1.140 -33.512  1.00  0.00    -0.008 A 
HETATM   12  C   UNL     1      -3.779  -2.523 -34.066  1.00  0.00     0.031 A 
HETATM   13  C   UNL     1      -6.542  -2.087 -34.099  1.00  0.00     0.020 A 
HETATM   14  C   UNL     1      -6.217   0.092 -32.917  1.00  0.00     0.028 A 
HETATM   15  C   UNL     1      -6.013  -3.249 -34.681  1.00  0.00    -0.061 A 
HETATM   16  C   UNL     1      -6.918  -4.281 -35.289  1.00  0.00     0.048 C 
HETATM   17  C   UNL     1      -4.628  -3.464 -34.650  1.00  0.00     0.009 A 
ENDBRANCH   4   5
ENDBRANCH   1   4
BRANCH   1  18
HETATM   18  C   UNL     1      -5.857   3.516 -33.954  1.00  0.00     0.158 C 
BRANCH  18  19
HETATM   19  C   UNL     1      -5.296   4.952 -34.042  1.00  0.00     0.139 C 
HETATM   20  O   UNL     1      -4.550   5.107 -35.266  1.00  0.00    -0.384 OA
HETATM   21  C   UNL     1      -3.150   5.163 -34.963  1.00  0.00     0.168 C 
HETATM   22  C   UNL     1      -2.997   4.789 -33.506  1.00  0.00     0.029 C 
HETATM   23  C   UNL     1      -4.309   5.251 -32.922  1.00  0.00     0.035 C 
ENDBRANCH  18  19
ENDBRANCH   1  18
BRANCH   2  24
HETATM   24  C   UNL     1      -8.778   3.982 -33.411  1.00  0.00     0.034 A 
HETATM   25  C   UNL     1      -9.720   3.180 -34.071  1.00  0.00     0.053 A 
HETATM   26  C   UNL     1     -10.623   3.754 -34.964  1.00  0.00     0.069 A 
HETATM   27  C   UNL     1     -10.556   5.126 -35.219  1.00  0.00     0.037 A 
HETATM   28  C   UNL     1      -9.642   5.933 -34.536  1.00  0.00     0.004 A 
HETATM   29  C   UNL     1      -8.768   5.366 -33.610  1.00  0.00     0.017 A 
BRANCH  26  30
HETATM   30  O   UNL     1     -11.593   3.077 -35.650  1.00  0.00    -0.356 OA
HETATM   31  C   UNL     1     -12.027   1.855 -35.057  1.00  0.00     0.210 C 
ENDBRANCH  26  30
ENDBRANCH   2  24
TORSDOF 6
ENDMDL
MODEL 4
REMARK VINA RESULT:      -8.2      3.453      7.202
REMARK  6 active torsions:
REMARK  status: ('A' for Active; 'I' for Inactive)
REMARK    1  A    between atoms: C_9  and  C_10 
REMARK    2  A    between atoms: C_10  and  N_11 
REMARK       I    between atoms: N_11  and  C_12 
REMARK    3  A    between atoms: N_11  and  C_22 
REMARK    4  A    between atoms: C_12  and  C_13 
REMARK    5  A    between atoms: C_15  and  O_16 
REMARK    6  A    between atoms: C_22  and  C_23 
ROOT
HETATM    1  N   UNL     1      -6.394   2.334 -32.431  1.00  0.00    -0.341 N 
HETATM    2  C   UNL     1      -6.339   1.142 -31.696  1.00  0.00     0.254 C 
HETATM    3  O   UNL     1      -7.222   0.801 -30.909  1.00  0.00    -0.267 OA
ENDROOT
BRANCH   1   4
HETATM    4  C   UNL     1      -7.469   3.270 -32.066  1.00  0.00     0.170 C 
BRANCH   4   5
HETATM    5  C   UNL     1      -8.712   3.124 -32.904  1.00  0.00     0.029 A 
HETATM    6  C   UNL     1      -8.811   4.152 -33.992  1.00  0.00     0.253 A 
HETATM    7  N   UNL     1      -9.925   4.128 -34.785  1.00  0.00    -0.322 N 
HETATM    8  O   UNL     1      -7.925   4.982 -34.181  1.00  0.00    -0.268 OA
HETATM    9  C   UNL     1     -10.957   3.198 -34.643  1.00  0.00     0.045 A 
HETATM   10  H   UNL     1      -9.970   4.839 -35.500  1.00  0.00     0.169 HD
HETATM   11  C   UNL     1     -10.865   2.223 -33.646  1.00  0.00    -0.008 A 
HETATM   12  C   UNL     1     -12.059   3.250 -35.494  1.00  0.00     0.031 A 
HETATM   13  C   UNL     1     -11.900   1.292 -33.502  1.00  0.00     0.020 A 
HETATM   14  C   UNL     1      -9.692   2.211 -32.770  1.00  0.00     0.028 A 
HETATM   15  C   UNL     1     -13.022   1.342 -34.342  1.00  0.00    -0.061 A 
HETATM   16  C   UNL     1     -14.123   0.330 -34.209  1.00  0.00     0.048 C 
HETATM   17  C   UNL     1     -13.088   2.319 -35.345  1.00  0.00     0.009 A 
ENDBRANCH   4   5
ENDBRANCH   1   4
BRANCH   1  18
HETATM   18  C   UNL     1      -5.255   2.916 -33.163  1.00  0.00     0.158 C 
BRANCH  18  19
HETATM   19  C   UNL     1      -4.558   4.066 -32.404  1.00  0.00     0.139 C 
HETATM   20  O   UNL     1      -4.654   5.282 -33.171  1.00  0.00    -0.384 OA
HETATM   21  C   UNL     1      -3.369   5.598 -33.724  1.00  0.00     0.168 C 
HETATM   22  C   UNL     1      -2.479   4.397 -33.487  1.00  0.00     0.029 C 
HETATM   23  C   UNL     1      -3.066   3.814 -32.226  1.00  0.00     0.035 C 
ENDBRANCH  18  19
ENDBRANCH   1  18
BRANCH   2  24
HETATM   24  C   UNL     1      -5.175   0.234 -31.805  1.00  0.00     0.034 A 
HETATM   25  C   UNL     1      -5.244  -0.787 -32.765  1.00  0.00     0.053 A 
HETATM   26  C   UNL     1      -4.160  -1.642 -32.953  1.00  0.00     0.069 A 
HETATM   27  C   UNL     1      -3.023  -1.494 -32.155  1.00  0.00     0.037 A 
HETATM   28  C   UNL     1      -2.938  -0.457 -31.223  1.00  0.00     0.004 A 
HETATM   29  C   UNL     1      -4.005   0.427 -31.065  1.00  0.00     0.017 A 
BRANCH  26  30
HETATM   30  O   UNL     1      -4.106  -2.657 -33.868  1.00  0.00    -0.356 OA
HETATM   31  C   UNL     1      -5.308  -2.894 -34.596  1.00  0.00     0.210 C 
ENDBRANCH  26  30
ENDBRANCH   2  24
TORSDOF 6
ENDMDL
MODEL 5
REMARK VINA RESULT:      -8.0      3.412      6.802
REMARK  6 active torsions:
REMARK  status: ('A' for Active; 'I' for Inactive)
REMARK    1  A    between atoms: C_9  and  C_10 
REMARK    2  A    between atoms: C_10  and  N_11 
REMARK       I    between atoms: N_11  and  C_12 
REMARK    3  A    between atoms: N_11  and  C_22 
REMARK    4  A    between atoms: C_12  and  C_13 
REMARK    5  A    between atoms: C_15  and  O_16 
REMARK    6  A    between atoms: C_22  and  C_23 
ROOT
HETATM    1  N   UNL     1      -7.264   1.552 -31.852  1.00  0.00    -0.341 N 
HETATM    2  C   UNL     1      -6.659   2.689 -31.301  1.00  0.00     0.254 C 
HETATM    3  O   UNL     1      -7.191   3.372 -30.426  1.00  0.00    -0.267 OA
ENDROOT
BRANCH   1   4
HETATM    4  C   UNL     1      -8.669   1.322 -31.479  1.00  0.00     0.170 C 
BRANCH   4   5
HETATM    5  C   UNL     1      -9.659   1.868 -32.474  1.00  0.00     0.029 A 
HETATM    6  C   UNL     1     -10.497   0.803 -33.116  1.00  0.00     0.253 A 
HETATM    7  N   UNL     1     -11.401   1.195 -34.063  1.00  0.00    -0.322 N 
HETATM    8  O   UNL     1     -10.393  -0.380 -32.799  1.00  0.00    -0.268 OA
HETATM    9  C   UNL     1     -11.590   2.522 -34.452  1.00  0.00     0.045 A 
HETATM   10  H   UNL     1     -11.942   0.454 -34.486  1.00  0.00     0.169 HD
HETATM   11  C   UNL     1     -10.828   3.526 -33.847  1.00  0.00    -0.008 A 
HETATM   12  C   UNL     1     -12.532   2.831 -35.431  1.00  0.00     0.031 A 
HETATM   13  C   UNL     1     -11.015   4.857 -34.237  1.00  0.00     0.020 A 
HETATM   14  C   UNL     1      -9.845   3.154 -32.828  1.00  0.00     0.028 A 
HETATM   15  C   UNL     1     -11.950   5.181 -35.232  1.00  0.00    -0.061 A 
HETATM   16  C   UNL     1     -12.173   6.609 -35.635  1.00  0.00     0.048 C 
HETATM   17  C   UNL     1     -12.713   4.160 -35.816  1.00  0.00     0.009 A 
ENDBRANCH   4   5
ENDBRANCH   1   4
BRANCH   1  18
HETATM   18  C   UNL     1      -6.804   0.872 -33.076  1.00  0.00     0.158 C 
BRANCH  18  19
HETATM   19  C   UNL     1      -6.345  -0.583 -32.839  1.00  0.00     0.139 C 
HETATM   20  O   UNL     1      -5.707  -0.685 -31.551  1.00  0.00    -0.384 OA
HETATM   21  C   UNL     1      -4.293  -0.846 -31.732  1.00  0.00     0.168 C 
HETATM   22  C   UNL     1      -4.005  -0.594 -33.196  1.00  0.00     0.029 C 
HETATM   23  C   UNL     1      -5.294  -1.024 -33.850  1.00  0.00     0.035 C 
ENDBRANCH  18  19
ENDBRANCH   1  18
BRANCH   2  24
HETATM   24  C   UNL     1      -5.338   3.156 -31.780  1.00  0.00     0.034 A 
HETATM   25  C   UNL     1      -5.329   4.156 -32.764  1.00  0.00     0.053 A 
HETATM   26  C   UNL     1      -4.118   4.676 -33.218  1.00  0.00     0.069 A 
HETATM   27  C   UNL     1      -2.920   4.167 -32.712  1.00  0.00     0.037 A 
HETATM   28  C   UNL     1      -2.928   3.196 -31.707  1.00  0.00     0.004 A 
HETATM   29  C   UNL     1      -4.139   2.707 -31.220  1.00  0.00     0.017 A 
BRANCH  26  30
HETATM   30  O   UNL     1      -3.986   5.661 -34.157  1.00  0.00    -0.356 OA
HETATM   31  C   UNL     1      -2.689   5.794 -34.732  1.00  0.00     0.210 C 
ENDBRANCH  26  30
ENDBRANCH   2  24
TORSDOF 6
ENDMDL
MODEL 6
REMARK VINA RESULT:      -7.9      3.737      6.616
REMARK  6 active torsions:
REMARK  status: ('A' for Active; 'I' for Inactive)
REMARK    1  A    between atoms: C_9  and  C_10 
REMARK    2  A    between atoms: C_10  and  N_11 
REMARK       I    between atoms: N_11  and  C_12 
REMARK    3  A    between atoms: N_11  and  C_22 
REMARK    4  A    between atoms: C_12  and  C_13 
REMARK    5  A    between atoms: C_15  and  O_16 
REMARK    6  A    between atoms: C_22  and  C_23 
ROOT
HETATM    1  N   UNL     1      -8.680   2.773 -32.827  1.00  0.00    -0.341 N 
HETATM    2  C   UNL     1      -9.748   1.955 -32.434  1.00  0.00     0.254 C 
HETATM    3  O   UNL     1      -9.687   1.194 -31.468  1.00  0.00    -0.267 OA
ENDROOT
BRANCH   1   4
HETATM    4  C   UNL     1      -7.397   2.530 -32.149  1.00  0.00     0.170 C 
BRANCH   4   5
HETATM    5  C   UNL     1      -6.678   1.298 -32.633  1.00  0.00     0.029 A 
HETATM    6  C   UNL     1      -5.191   1.376 -32.453  1.00  0.00     0.253 A 
HETATM    7  N   UNL     1      -4.445   0.320 -32.896  1.00  0.00    -0.322 N 
HETATM    8  O   UNL     1      -4.654   2.340 -31.914  1.00  0.00    -0.268 OA
HETATM    9  C   UNL     1      -4.989  -0.819 -33.493  1.00  0.00     0.045 A 
HETATM   10  H   UNL     1      -3.446   0.406 -32.772  1.00  0.00     0.169 HD
HETATM   11  C   UNL     1      -6.376  -0.911 -33.648  1.00  0.00    -0.008 A 
HETATM   12  C   UNL     1      -4.152  -1.847 -33.921  1.00  0.00     0.031 A 
HETATM   13  C   UNL     1      -6.923  -2.051 -34.247  1.00  0.00     0.020 A 
HETATM   14  C   UNL     1      -7.217   0.197 -33.190  1.00  0.00     0.028 A 
HETATM   15  C   UNL     1      -6.091  -3.087 -34.696  1.00  0.00    -0.061 A 
HETATM   16  C   UNL     1      -6.674  -4.323 -35.315  1.00  0.00     0.048 C 
HETATM   17  C   UNL     1      -4.704  -2.981 -34.518  1.00  0.00     0.009 A 
ENDBRANCH   4   5
ENDBRANCH   1   4
BRANCH   1  18
HETATM   18  C   UNL     1      -8.602   3.481 -34.117  1.00  0.00     0.158 C 
BRANCH  18  19
HETATM   19  C   UNL     1      -8.751   5.012 -33.990  1.00  0.00     0.139 C 
HETATM   20  O   UNL     1      -9.338   5.338 -32.715  1.00  0.00    -0.384 OA
HETATM   21  C   UNL     1     -10.690   5.772 -32.912  1.00  0.00     0.168 C 
HETATM   22  C   UNL     1     -11.043   5.478 -34.353  1.00  0.00     0.029 C 
HETATM   23  C   UNL     1      -9.700   5.585 -35.034  1.00  0.00     0.035 C 
ENDBRANCH  18  19
ENDBRANCH   1  18
BRANCH   2  24
HETATM   24  C   UNL     1     -11.016   1.939 -33.198  1.00  0.00     0.034 A 
HETATM   25  C   UNL     1     -12.149   2.481 -32.574  1.00  0.00     0.053 A 
HETATM   26  C   UNL     1     -13.360   2.544 -33.260  1.00  0.00     0.069 A 
HETATM   27  C   UNL     1     -13.441   2.032 -34.557  1.00  0.00     0.037 A 
HETATM   28  C   UNL     1     -12.306   1.524 -35.194  1.00  0.00     0.004 A 
HETATM   29  C   UNL     1     -11.083   1.501 -34.524  1.00  0.00     0.017 A 
BRANCH  26  30
HETATM   30  O   UNL     1     -14.523   3.065 -32.762  1.00  0.00    -0.356 OA
HETATM   31  C   UNL     1     -15.574   2.127 -32.546  1.00  0.00     0.210 C 
ENDBRANCH  26  30
ENDBRANCH   2  24
TORSDOF 6
ENDMDL
MODEL 7
REMARK VINA RESULT:      -7.9      2.799      7.732
REMARK  6 active torsions:
REMARK  status: ('A' for Active; 'I' for Inactive)
REMARK    1  A    between atoms: C_9  and  C_10 
REMARK    2  A    between atoms: C_10  and  N_11 
REMARK       I    between atoms: N_11  and  C_12 
REMARK    3  A    between atoms: N_11  and  C_22 
REMARK    4  A    between atoms: C_12  and  C_13 
REMARK    5  A    between atoms: C_15  and  O_16 
REMARK    6  A    between atoms: C_22  and  C_23 
ROOT
HETATM    1  N   UNL     1      -6.995   1.717 -32.154  1.00  0.00    -0.341 N 
HETATM    2  C   UNL     1      -8.284   2.125 -31.787  1.00  0.00     0.254 C 
HETATM    3  O   UNL     1      -8.528   2.696 -30.724  1.00  0.00    -0.267 OA
ENDROOT
BRANCH   1   4
HETATM    4  C   UNL     1      -5.963   1.820 -31.110  1.00  0.00     0.170 C 
BRANCH   4   5
HETATM    5  C   UNL     1      -4.979   2.938 -31.337  1.00  0.00     0.029 A 
HETATM    6  C   UNL     1      -5.010   3.977 -30.255  1.00  0.00     0.253 A 
HETATM    7  N   UNL     1      -4.179   5.054 -30.389  1.00  0.00    -0.322 N 
HETATM    8  O   UNL     1      -5.741   3.867 -29.273  1.00  0.00    -0.268 OA
HETATM    9  C   UNL     1      -3.304   5.229 -31.463  1.00  0.00     0.045 A 
HETATM   10  H   UNL     1      -4.230   5.742 -29.652  1.00  0.00     0.169 HD
HETATM   11  C   UNL     1      -3.253   4.257 -32.467  1.00  0.00    -0.008 A 
HETATM   12  C   UNL     1      -2.495   6.362 -31.522  1.00  0.00     0.031 A 
HETATM   13  C   UNL     1      -2.378   4.433 -33.545  1.00  0.00     0.020 A 
HETATM   14  C   UNL     1      -4.127   3.087 -32.368  1.00  0.00     0.028 A 
HETATM   15  C   UNL     1      -1.568   5.576 -33.624  1.00  0.00    -0.061 A 
HETATM   16  C   UNL     1      -0.609   5.756 -34.765  1.00  0.00     0.048 C 
HETATM   17  C   UNL     1      -1.625   6.531 -32.600  1.00  0.00     0.009 A 
ENDBRANCH   4   5
ENDBRANCH   1   4
BRANCH   1  18
HETATM   18  C   UNL     1      -6.696   0.798 -33.266  1.00  0.00     0.158 C 
BRANCH  18  19
HETATM   19  C   UNL     1      -6.614  -0.683 -32.837  1.00  0.00     0.139 C 
HETATM   20  O   UNL     1      -5.234  -1.099 -32.790  1.00  0.00    -0.384 OA
HETATM   21  C   UNL     1      -4.964  -1.971 -33.896  1.00  0.00     0.168 C 
HETATM   22  C   UNL     1      -6.168  -1.911 -34.811  1.00  0.00     0.029 C 
HETATM   23  C   UNL     1      -7.284  -1.609 -33.842  1.00  0.00     0.035 C 
ENDBRANCH  18  19
ENDBRANCH   1  18
BRANCH   2  24
HETATM   24  C   UNL     1      -9.447   1.852 -32.662  1.00  0.00     0.034 A 
HETATM   25  C   UNL     1      -9.787   2.834 -33.604  1.00  0.00     0.053 A 
HETATM   26  C   UNL     1     -10.837   2.615 -34.492  1.00  0.00     0.069 A 
HETATM   27  C   UNL     1     -11.567   1.427 -34.412  1.00  0.00     0.037 A 
HETATM   28  C   UNL     1     -11.208   0.432 -33.498  1.00  0.00     0.004 A 
HETATM   29  C   UNL     1     -10.129   0.633 -32.638  1.00  0.00     0.017 A 
BRANCH  26  30
HETATM   30  O   UNL     1     -11.247   3.489 -35.461  1.00  0.00    -0.356 OA
HETATM   31  C   UNL     1     -10.861   4.848 -35.267  1.00  0.00     0.210 C 
ENDBRANCH  26  30
ENDBRANCH   2  24
TORSDOF 6
ENDMDL
MODEL 8
REMARK VINA RESULT:      -7.9      3.090      6.038
REMARK  6 active torsions:
REMARK  status: ('A' for Active; 'I' for Inactive)
REMARK    1  A    between atoms: C_9  and  C_10 
REMARK    2  A    between atoms: C_10  and  N_11 
REMARK       I    between atoms: N_11  and  C_12 
REMARK    3  A    between atoms: N_11  and  C_22 
REMARK    4  A    between atoms: C_12  and  C_13 
REMARK    5  A    between atoms: C_15  and  O_16 
REMARK    6  A    between atoms: C_22  and  C_23 
ROOT
HETATM    1  N   UNL     1      -6.068   2.821 -31.928  1.00  0.00    -0.341 N 
HETATM    2  C   UNL     1      -5.728   4.167 -32.116  1.00  0.00     0.254 C 
HETATM    3  O   UNL     1      -6.298   5.089 -31.533  1.00  0.00    -0.267 OA
ENDROOT
BRANCH   1   4
HETATM    4  C   UNL     1      -7.288   2.566 -31.146  1.00  0.00     0.170 C 
BRANCH   4   5
HETATM    5  C   UNL     1      -8.537   2.471 -31.983  1.00  0.00     0.029 A 
HETATM    6  C   UNL     1      -9.119   1.089 -32.015  1.00  0.00     0.253 A 
HETATM    7  N   UNL     1     -10.235   0.892 -32.780  1.00  0.00    -0.322 N 
HETATM    8  O   UNL     1      -8.630   0.165 -31.371  1.00  0.00    -0.268 OA
HETATM    9  C   UNL     1     -10.860   1.901 -33.516  1.00  0.00     0.045 A 
HETATM   10  H   UNL     1     -10.598  -0.051 -32.792  1.00  0.00     0.169 HD
HETATM   11  C   UNL     1     -10.337   3.197 -33.477  1.00  0.00    -0.008 A 
HETATM   12  C   UNL     1     -11.992   1.609 -34.273  1.00  0.00     0.031 A 
HETATM   13  C   UNL     1     -10.960   4.209 -34.215  1.00  0.00     0.020 A 
HETATM   14  C   UNL     1      -9.140   3.457 -32.674  1.00  0.00     0.028 A 
HETATM   15  C   UNL     1     -12.092   3.926 -34.994  1.00  0.00    -0.061 A 
HETATM   16  C   UNL     1     -12.781   5.013 -35.767  1.00  0.00     0.048 C 
HETATM   17  C   UNL     1     -12.609   2.622 -35.008  1.00  0.00     0.009 A 
ENDBRANCH   4   5
ENDBRANCH   1   4
BRANCH   1  18
HETATM   18  C   UNL     1      -5.616   1.717 -32.795  1.00  0.00     0.158 C 
BRANCH  18  19
HETATM   19  C   UNL     1      -5.230   0.441 -32.016  1.00  0.00     0.139 C 
HETATM   20  O   UNL     1      -3.811   0.437 -31.765  1.00  0.00    -0.384 OA
HETATM   21  C   UNL     1      -3.183  -0.542 -32.604  1.00  0.00     0.168 C 
HETATM   22  C   UNL     1      -4.225  -1.007 -33.596  1.00  0.00     0.029 C 
HETATM   23  C   UNL     1      -5.505  -0.824 -32.819  1.00  0.00     0.035 C 
ENDBRANCH  18  19
ENDBRANCH   1  18
BRANCH   2  24
HETATM   24  C   UNL     1      -4.668   4.557 -33.074  1.00  0.00     0.034 A 
HETATM   25  C   UNL     1      -3.348   4.578 -32.598  1.00  0.00     0.053 A 
HETATM   26  C   UNL     1      -2.300   4.886 -33.463  1.00  0.00     0.069 A 
HETATM   27  C   UNL     1      -2.579   5.207 -34.793  1.00  0.00     0.037 A 
HETATM   28  C   UNL     1      -3.889   5.152 -35.278  1.00  0.00     0.004 A 
HETATM   29  C   UNL     1      -4.934   4.801 -34.424  1.00  0.00     0.017 A 
BRANCH  26  30
HETATM   30  O   UNL     1      -0.977   4.920 -33.117  1.00  0.00    -0.356 OA
HETATM   31  C   UNL     1      -0.695   5.400 -31.805  1.00  0.00     0.210 C 
ENDBRANCH  26  30
ENDBRANCH   2  24
TORSDOF 6
ENDMDL
MODEL 9
REMARK VINA RESULT:      -7.8      2.627      8.175
REMARK  6 active torsions:
REMARK  status: ('A' for Active; 'I' for Inactive)
REMARK    1  A    between atoms: C_9  and  C_10 
REMARK    2  A    between atoms: C_10  and  N_11 
REMARK       I    between atoms: N_11  and  C_12 
REMARK    3  A    between atoms: N_11  and  C_22 
REMARK    4  A    between atoms: C_12  and  C_13 
REMARK    5  A    between atoms: C_15  and  O_16 
REMARK    6  A    between atoms: C_22  and  C_23 
ROOT
HETATM    1  N   UNL     1      -6.399   4.479 -32.222  1.00  0.00    -0.341 N 
HETATM    2  C   UNL     1      -7.254   4.108 -33.268  1.00  0.00     0.254 C 
HETATM    3  O   UNL     1      -7.538   4.862 -34.199  1.00  0.00    -0.267 OA
ENDROOT
BRANCH   1   4
HETATM    4  C   UNL     1      -6.012   5.898 -32.177  1.00  0.00     0.170 C 
BRANCH   4   5
HETATM    5  C   UNL     1      -4.526   6.118 -32.054  1.00  0.00     0.029 A 
HETATM    6  C   UNL     1      -3.798   5.954 -33.355  1.00  0.00     0.253 A 
HETATM    7  N   UNL     1      -2.439   6.097 -33.340  1.00  0.00    -0.322 N 
HETATM    8  O   UNL     1      -4.392   5.715 -34.403  1.00  0.00    -0.268 OA
HETATM    9  C   UNL     1      -1.702   6.394 -32.192  1.00  0.00     0.045 A 
HETATM   10  H   UNL     1      -1.975   5.969 -34.228  1.00  0.00     0.169 HD
HETATM   11  C   UNL     1      -2.373   6.569 -30.977  1.00  0.00    -0.008 A 
HETATM   12  C   UNL     1      -0.317   6.517 -32.268  1.00  0.00     0.031 A 
HETATM   13  C   UNL     1      -1.636   6.865 -29.825  1.00  0.00     0.020 A 
HETATM   14  C   UNL     1      -3.829   6.423 -30.943  1.00  0.00     0.028 A 
HETATM   15  C   UNL     1      -0.239   6.977 -29.885  1.00  0.00    -0.061 A 
HETATM   16  C   UNL     1       0.554   7.321 -28.657  1.00  0.00     0.048 C 
HETATM   17  C   UNL     1       0.413   6.812 -31.115  1.00  0.00     0.009 A 
ENDBRANCH   4   5
ENDBRANCH   1   4
BRANCH   1  18
HETATM   18  C   UNL     1      -6.249   3.730 -30.962  1.00  0.00     0.158 C 
BRANCH  18  19
HETATM   19  C   UNL     1      -4.942   2.913 -30.881  1.00  0.00     0.139 C 
HETATM   20  O   UNL     1      -4.475   2.613 -32.211  1.00  0.00    -0.384 OA
HETATM   21  C   UNL     1      -4.686   1.221 -32.485  1.00  0.00     0.168 C 
HETATM   22  C   UNL     1      -5.541   0.675 -31.363  1.00  0.00     0.029 C 
HETATM   23  C   UNL     1      -5.150   1.563 -30.208  1.00  0.00     0.035 C 
ENDBRANCH  18  19
ENDBRANCH   1  18
BRANCH   2  24
HETATM   24  C   UNL     1      -7.899   2.775 -33.287  1.00  0.00     0.034 A 
HETATM   25  C   UNL     1      -7.494   1.879 -34.287  1.00  0.00     0.053 A 
HETATM   26  C   UNL     1      -8.024   0.591 -34.327  1.00  0.00     0.069 A 
HETATM   27  C   UNL     1      -8.986   0.216 -33.386  1.00  0.00     0.037 A 
HETATM   28  C   UNL     1      -9.366   1.095 -32.368  1.00  0.00     0.004 A 
HETATM   29  C   UNL     1      -8.803   2.369 -32.302  1.00  0.00     0.017 A 
BRANCH  26  30
HETATM   30  O   UNL     1      -7.692  -0.370 -35.241  1.00  0.00    -0.356 OA
HETATM   31  C   UNL     1      -6.850  -1.414 -34.758  1.00  0.00     0.210 C 
ENDBRANCH  26  30
ENDBRANCH   2  24
TORSDOF 6
ENDMDL
MODEL 10
REMARK VINA RESULT:      -7.7      1.886      3.001
REMARK  6 active torsions:
REMARK  status: ('A' for Active; 'I' for Inactive)
REMARK    1  A    between atoms: C_9  and  C_10 
REMARK    2  A    between atoms: C_10  and  N_11 
REMARK       I    between atoms: N_11  and  C_12 
REMARK    3  A    between atoms: N_11  and  C_22 
REMARK    4  A    between atoms: C_12  and  C_13 
REMARK    5  A    between atoms: C_15  and  O_16 
REMARK    6  A    between atoms: C_22  and  C_23 
ROOT
HETATM    1  N   UNL     1      -6.170   3.002 -32.074  1.00  0.00    -0.341 N 
HETATM    2  C   UNL     1      -5.013   3.396 -31.390  1.00  0.00     0.254 C 
HETATM    3  O   UNL     1      -4.501   2.722 -30.497  1.00  0.00    -0.267 OA
ENDROOT
BRANCH   1   4
HETATM    4  C   UNL     1      -6.873   1.828 -31.531  1.00  0.00     0.170 C 
BRANCH   4   5
HETATM    5  C   UNL     1      -6.698   0.580 -32.356  1.00  0.00     0.029 A 
HETATM    6  C   UNL     1      -7.903   0.251 -33.187  1.00  0.00     0.253 A 
HETATM    7  N   UNL     1      -7.857  -0.886 -33.943  1.00  0.00    -0.322 N 
HETATM    8  O   UNL     1      -8.894   0.977 -33.206  1.00  0.00    -0.268 OA
HETATM    9  C   UNL     1      -6.754  -1.742 -33.991  1.00  0.00     0.045 A 
HETATM   10  H   UNL     1      -8.686  -1.088 -34.483  1.00  0.00     0.169 HD
HETATM   11  C   UNL     1      -5.619  -1.435 -33.236  1.00  0.00    -0.008 A 
HETATM   12  C   UNL     1      -6.796  -2.885 -34.787  1.00  0.00     0.031 A 
HETATM   13  C   UNL     1      -4.514  -2.292 -33.281  1.00  0.00     0.020 A 
HETATM   14  C   UNL     1      -5.622  -0.227 -32.407  1.00  0.00     0.028 A 
HETATM   15  C   UNL     1      -4.548  -3.454 -34.067  1.00  0.00    -0.061 A 
HETATM   16  C   UNL     1      -3.356  -4.364 -34.139  1.00  0.00     0.048 C 
HETATM   17  C   UNL     1      -5.691  -3.737 -34.827  1.00  0.00     0.009 A 
ENDBRANCH   4   5
ENDBRANCH   1   4
BRANCH   1  18
HETATM   18  C   UNL     1      -6.970   3.885 -32.941  1.00  0.00     0.158 C 
BRANCH  18  19
HETATM   19  C   UNL     1      -8.289   4.358 -32.293  1.00  0.00     0.139 C 
HETATM   20  O   UNL     1      -9.149   4.924 -33.301  1.00  0.00    -0.384 OA
HETATM   21  C   UNL     1      -9.196   6.349 -33.140  1.00  0.00     0.168 C 
HETATM   22  C   UNL     1      -8.128   6.714 -32.132  1.00  0.00     0.029 C 
HETATM   23  C   UNL     1      -8.061   5.472 -31.279  1.00  0.00     0.035 C 
ENDBRANCH  18  19
ENDBRANCH   1  18
BRANCH   2  24
HETATM   24  C   UNL     1      -4.355   4.688 -31.692  1.00  0.00     0.034 A 
HETATM   25  C   UNL     1      -3.670   4.791 -32.911  1.00  0.00     0.053 A 
HETATM   26  C   UNL     1      -3.075   5.997 -33.277  1.00  0.00     0.069 A 
HETATM   27  C   UNL     1      -3.137   7.086 -32.404  1.00  0.00     0.037 A 
HETATM   28  C   UNL     1      -3.848   6.996 -31.205  1.00  0.00     0.004 A 
HETATM   29  C   UNL     1      -4.482   5.803 -30.858  1.00  0.00     0.017 A 
BRANCH  26  30
HETATM   30  O   UNL     1      -2.399   6.220 -34.445  1.00  0.00    -0.356 OA
HETATM   31  C   UNL     1      -1.624   5.125 -34.927  1.00  0.00     0.210 C 
ENDBRANCH  26  30
ENDBRANCH   2  24
TORSDOF 6
ENDMDL
