MODEL 1
REMARK VINA RESULT:      -8.1      0.000      0.000
REMARK  6 active torsions:
REMARK  status: ('A' for Active; 'I' for Inactive)
REMARK    1  A    between atoms: C_2  and  N_3 
REMARK    2  A    between atoms: C_2  and  C_24 
REMARK       I    between atoms: N_3  and  C_4 
REMARK    3  A    between atoms: C_4  and  C_5 
REMARK    4  A    between atoms: C_5  and  N_6 
REMARK    5  A    between atoms: C_10  and  N_11 
REMARK       I    between atoms: N_11  and  C_12 
REMARK       I    between atoms: C_12  and  N_13 
REMARK    6  A    between atoms: N_13  and  C_14 
ROOT
HETATM    1  N   UNL     1      -3.366   4.755 -32.537  1.00  0.00    -0.063 N 
HETATM    2  H   UNL     1      -3.432   5.660 -32.044  1.00  0.00     0.280 HD
HETATM    3  C   UNL     1      -4.544   4.595 -33.453  1.00  0.00     0.237 C 
HETATM    4  C   UNL     1      -5.814   4.269 -32.697  1.00  0.00     0.053 C 
HETATM    5  C   UNL     1      -5.671   3.086 -31.748  1.00  0.00     0.089 C 
HETATM    6  C   UNL     1      -4.485   3.286 -30.808  1.00  0.00     0.053 C 
HETATM    7  C   UNL     1      -3.184   3.692 -31.478  1.00  0.00     0.237 C 
ENDROOT
BRANCH   1   8
HETATM    8  C   UNL     1      -2.081   4.866 -33.392  1.00  0.00     0.337 C 
BRANCH   8   9
HETATM    9  C   UNL     1      -1.501   6.275 -33.341  1.00  0.00     0.244 C 
HETATM   10  N   UNL     1      -0.743   6.698 -32.298  1.00  0.00    -0.351 N 
HETATM   11  H   UNL     1      -0.429   7.658 -32.408  1.00  0.00     0.163 HD
HETATM   12  O   UNL     1      -1.731   7.048 -34.277  1.00  0.00    -0.272 OA
BRANCH  10  13
HETATM   13  C   UNL     1      -0.452   6.089 -30.996  1.00  0.00     0.120 C 
HETATM   14  C   UNL     1       0.765   5.171 -31.045  1.00  0.00     0.038 C 
BRANCH  13  15
HETATM   15  C   UNL     1      -0.481   7.139 -29.909  1.00  0.00     0.005 A 
HETATM   16  S   UNL     1      -1.814   8.194 -29.660  1.00  0.00    -0.104 SA
HETATM   17  C   UNL     1      -1.030   9.013 -28.386  1.00  0.00     0.050 A 
HETATM   18  C   UNL     1       0.230   8.516 -28.153  1.00  0.00     0.008 A 
HETATM   19  C   UNL     1       0.545   7.438 -29.028  1.00  0.00     0.017 A 
ENDBRANCH  13  15
ENDBRANCH  10  13
ENDBRANCH   8   9
ENDBRANCH   1   8
BRANCH   5  20
HETATM   20  N   UNL     1      -5.745   1.782 -32.409  1.00  0.00    -0.338 N 
HETATM   21  C   UNL     1      -6.083   0.591 -31.859  1.00  0.00     0.316 C 
HETATM   22  N   UNL     1      -5.983  -0.504 -32.640  1.00  0.00    -0.339 N 
HETATM   23  O   UNL     1      -6.440   0.456 -30.694  1.00  0.00    -0.247 OA
HETATM   24  H   UNL     1      -6.307  -1.338 -32.164  1.00  0.00     0.164 HD
HETATM   25  H   UNL     1      -5.583   1.778 -33.406  1.00  0.00     0.164 HD
BRANCH  22  26
HETATM   26  C   UNL     1      -5.532  -0.664 -34.023  1.00  0.00     0.086 C 
HETATM   27  C   UNL     1      -4.233  -1.482 -34.067  1.00  0.00     0.025 C 
HETATM   28  C   UNL     1      -4.450  -2.964 -33.761  1.00  0.00     0.002 C 
HETATM   29  C   UNL     1      -5.528  -3.571 -34.653  1.00  0.00     0.000 C 
HETATM   30  C   UNL     1      -6.833  -2.783 -34.579  1.00  0.00     0.002 C 
HETATM   31  C   UNL     1      -6.618  -1.304 -34.897  1.00  0.00     0.025 C 
ENDBRANCH  22  26
ENDBRANCH   5  20
TORSDOF 6
ENDMDL
MODEL 2
REMARK VINA RESULT:      -7.9      3.421      8.910
REMARK  6 active torsions:
REMARK  status: ('A' for Active; 'I' for Inactive)
REMARK    1  A    between atoms: C_2  and  N_3 
REMARK    2  A    between atoms: C_2  and  C_24 
REMARK       I    between atoms: N_3  and  C_4 
REMARK    3  A    between atoms: C_4  and  C_5 
REMARK    4  A    between atoms: C_5  and  N_6 
REMARK    5  A    between atoms: C_10  and  N_11 
REMARK       I    between atoms: N_11  and  C_12 
REMARK       I    between atoms: C_12  and  N_13 
REMARK    6  A    between atoms: N_13  and  C_14 
ROOT
HETATM    1  N   UNL     1      -7.158   1.446 -30.888  1.00  0.00    -0.063 N 
HETATM    2  H   UNL     1      -8.094   1.189 -30.535  1.00  0.00     0.280 HD
HETATM    3  C   UNL     1      -6.416   2.214 -29.833  1.00  0.00     0.237 C 
HETATM    4  C   UNL     1      -6.927   3.633 -29.695  1.00  0.00     0.053 C 
HETATM    5  C   UNL     1      -6.980   4.391 -31.016  1.00  0.00     0.089 C 
HETATM    6  C   UNL     1      -7.765   3.603 -32.061  1.00  0.00     0.053 C 
HETATM    7  C   UNL     1      -7.368   2.145 -32.211  1.00  0.00     0.237 C 
ENDROOT
BRANCH   1   8
HETATM    8  C   UNL     1      -6.441   0.095 -31.118  1.00  0.00     0.337 C 
BRANCH   8   9
HETATM    9  C   UNL     1      -5.343   0.222 -32.169  1.00  0.00     0.244 C 
HETATM   10  N   UNL     1      -5.522  -0.206 -33.444  1.00  0.00    -0.351 N 
HETATM   11  H   UNL     1      -4.702  -0.053 -34.024  1.00  0.00     0.163 HD
HETATM   12  O   UNL     1      -4.264   0.729 -31.844  1.00  0.00    -0.272 OA
BRANCH  10  13
HETATM   13  C   UNL     1      -6.594  -0.987 -34.067  1.00  0.00     0.120 C 
HETATM   14  C   UNL     1      -7.243  -0.252 -35.235  1.00  0.00     0.038 C 
BRANCH  13  15
HETATM   15  C   UNL     1      -6.134  -2.405 -34.314  1.00  0.00     0.005 A 
HETATM   16  S   UNL     1      -4.507  -2.915 -34.095  1.00  0.00    -0.104 SA
HETATM   17  C   UNL     1      -4.850  -4.502 -34.615  1.00  0.00     0.050 A 
HETATM   18  C   UNL     1      -6.169  -4.654 -34.969  1.00  0.00     0.008 A 
HETATM   19  C   UNL     1      -6.908  -3.449 -34.794  1.00  0.00     0.017 A 
ENDBRANCH  13  15
ENDBRANCH  10  13
ENDBRANCH   8   9
ENDBRANCH   1   8
BRANCH   5  20
HETATM   20  N   UNL     1      -5.685   4.913 -31.453  1.00  0.00    -0.338 N 
HETATM   21  C   UNL     1      -5.448   5.978 -32.257  1.00  0.00     0.316 C 
HETATM   22  N   UNL     1      -4.169   6.216 -32.611  1.00  0.00    -0.339 N 
HETATM   23  O   UNL     1      -6.329   6.709 -32.696  1.00  0.00    -0.247 OA
HETATM   24  H   UNL     1      -4.081   7.060 -33.165  1.00  0.00     0.164 HD
HETATM   25  H   UNL     1      -4.869   4.465 -31.063  1.00  0.00     0.164 HD
BRANCH  22  26
HETATM   26  C   UNL     1      -2.933   5.495 -32.303  1.00  0.00     0.086 C 
HETATM   27  C   UNL     1      -2.668   4.419 -33.366  1.00  0.00     0.025 C 
HETATM   28  C   UNL     1      -2.223   5.002 -34.709  1.00  0.00     0.002 C 
HETATM   29  C   UNL     1      -1.032   5.940 -34.547  1.00  0.00     0.000 C 
HETATM   30  C   UNL     1      -1.309   7.035 -33.521  1.00  0.00     0.002 C 
HETATM   31  C   UNL     1      -1.741   6.453 -32.176  1.00  0.00     0.025 C 
ENDBRANCH  22  26
ENDBRANCH   5  20
TORSDOF 6
ENDMDL
MODEL 3
REMARK VINA RESULT:      -7.8      5.270      8.447
REMARK  6 active torsions:
REMARK  status: ('A' for Active; 'I' for Inactive)
REMARK    1  A    between atoms: C_2  and  N_3 
REMARK    2  A    between atoms: C_2  and  C_24 
REMARK       I    between atoms: N_3  and  C_4 
REMARK    3  A    between atoms: C_4  and  C_5 
REMARK    4  A    between atoms: C_5  and  N_6 
REMARK    5  A    between atoms: C_10  and  N_11 
REMARK       I    between atoms: N_11  and  C_12 
REMARK       I    between atoms: C_12  and  N_13 
REMARK    6  A    between atoms: N_13  and  C_14 
ROOT
HETATM    1  N   UNL     1      -7.494   3.783 -32.784  1.00  0.00    -0.063 N 
HETATM    2  H   UNL     1      -7.370   4.700 -32.326  1.00  0.00     0.280 HD
HETATM    3  C   UNL     1      -7.497   2.699 -31.746  1.00  0.00     0.237 C 
HETATM    4  C   UNL     1      -6.109   2.419 -31.210  1.00  0.00     0.053 C 
HETATM    5  C   UNL     1      -5.077   2.157 -32.300  1.00  0.00     0.089 C 
HETATM    6  C   UNL     1      -5.073   3.287 -33.325  1.00  0.00     0.053 C 
HETATM    7  C   UNL     1      -6.438   3.686 -33.860  1.00  0.00     0.237 C 
ENDROOT
BRANCH   1   8
HETATM    8  C   UNL     1      -8.896   3.856 -33.433  1.00  0.00     0.337 C 
BRANCH   8   9
HETATM    9  C   UNL     1      -9.996   3.589 -32.411  1.00  0.00     0.244 C 
HETATM   10  N   UNL     1     -10.703   2.431 -32.409  1.00  0.00    -0.351 N 
HETATM   11  H   UNL     1     -11.398   2.401 -31.670  1.00  0.00     0.163 HD
HETATM   12  O   UNL     1     -10.245   4.455 -31.565  1.00  0.00    -0.272 OA
BRANCH  10  13
HETATM   13  C   UNL     1     -10.759   1.323 -33.367  1.00  0.00     0.120 C 
HETATM   14  C   UNL     1      -9.851   0.164 -32.966  1.00  0.00     0.038 C 
BRANCH  13  15
HETATM   15  C   UNL     1     -12.194   0.991 -33.701  1.00  0.00     0.005 A 
HETATM   16  S   UNL     1     -13.305   2.147 -34.319  1.00  0.00    -0.104 SA
HETATM   17  C   UNL     1     -14.587   1.023 -34.342  1.00  0.00     0.050 A 
HETATM   18  C   UNL     1     -14.198  -0.210 -33.875  1.00  0.00     0.008 A 
HETATM   19  C   UNL     1     -12.822  -0.229 -33.507  1.00  0.00     0.017 A 
ENDBRANCH  13  15
ENDBRANCH  10  13
ENDBRANCH   8   9
ENDBRANCH   1   8
BRANCH   5  20
HETATM   20  N   UNL     1      -5.125   0.801 -32.848  1.00  0.00    -0.338 N 
HETATM   21  C   UNL     1      -4.943  -0.368 -32.186  1.00  0.00     0.316 C 
HETATM   22  N   UNL     1      -4.931  -1.500 -32.920  1.00  0.00    -0.339 N 
HETATM   23  O   UNL     1      -4.761  -0.445 -30.977  1.00  0.00    -0.247 OA
HETATM   24  H   UNL     1      -4.845  -2.326 -32.338  1.00  0.00     0.164 HD
HETATM   25  H   UNL     1      -5.382   0.722 -33.821  1.00  0.00     0.164 HD
BRANCH  22  26
HETATM   26  C   UNL     1      -5.054  -1.717 -34.361  1.00  0.00     0.086 C 
HETATM   27  C   UNL     1      -4.238  -2.947 -34.785  1.00  0.00     0.025 C 
HETATM   28  C   UNL     1      -4.870  -4.266 -34.337  1.00  0.00     0.002 C 
HETATM   29  C   UNL     1      -6.324  -4.373 -34.783  1.00  0.00     0.000 C 
HETATM   30  C   UNL     1      -7.145  -3.171 -34.327  1.00  0.00     0.002 C 
HETATM   31  C   UNL     1      -6.522  -1.854 -34.786  1.00  0.00     0.025 C 
ENDBRANCH  22  26
ENDBRANCH   5  20
TORSDOF 6
ENDMDL
MODEL 4
REMARK VINA RESULT:      -7.8      2.771      9.255
REMARK  6 active torsions:
REMARK  status: ('A' for Active; 'I' for Inactive)
REMARK    1  A    between atoms: C_2  and  N_3 
REMARK    2  A    between atoms: C_2  and  C_24 
REMARK       I    between atoms: N_3  and  C_4 
REMARK    3  A    between atoms: C_4  and  C_5 
REMARK    4  A    between atoms: C_5  and  N_6 
REMARK    5  A    between atoms: C_10  and  N_11 
REMARK       I    between atoms: N_11  and  C_12 
REMARK       I    between atoms: C_12  and  N_13 
REMARK    6  A    between atoms: N_13  and  C_14 
ROOT
HETATM    1  N   UNL     1      -6.915   3.109 -32.710  1.00  0.00    -0.063 N 
HETATM    2  H   UNL     1      -7.857   3.166 -33.129  1.00  0.00     0.280 HD
HETATM    3  C   UNL     1      -6.796   4.110 -31.599  1.00  0.00     0.237 C 
HETATM    4  C   UNL     1      -6.651   5.525 -32.119  1.00  0.00     0.053 C 
HETATM    5  C   UNL     1      -5.537   5.685 -33.146  1.00  0.00     0.089 C 
HETATM    6  C   UNL     1      -5.697   4.676 -34.280  1.00  0.00     0.053 C 
HETATM    7  C   UNL     1      -5.925   3.238 -33.845  1.00  0.00     0.237 C 
ENDROOT
BRANCH   1   8
HETATM    8  C   UNL     1      -6.837   1.686 -32.110  1.00  0.00     0.337 C 
BRANCH   8   9
HETATM    9  C   UNL     1      -5.522   1.003 -32.467  1.00  0.00     0.244 C 
HETATM   10  N   UNL     1      -5.459   0.016 -33.396  1.00  0.00    -0.351 N 
HETATM   11  H   UNL     1      -4.516  -0.338 -33.524  1.00  0.00     0.163 HD
HETATM   12  O   UNL     1      -4.489   1.362 -31.892  1.00  0.00    -0.272 OA
BRANCH  10  13
HETATM   13  C   UNL     1      -6.509  -0.728 -34.098  1.00  0.00     0.120 C 
HETATM   14  C   UNL     1      -7.029   0.019 -35.322  1.00  0.00     0.038 C 
BRANCH  13  15
HETATM   15  C   UNL     1      -6.090  -2.167 -34.294  1.00  0.00     0.005 A 
HETATM   16  S   UNL     1      -4.480  -2.716 -34.051  1.00  0.00    -0.104 SA
HETATM   17  C   UNL     1      -4.868  -4.310 -34.518  1.00  0.00     0.050 A 
HETATM   18  C   UNL     1      -6.190  -4.434 -34.872  1.00  0.00     0.008 A 
HETATM   19  C   UNL     1      -6.894  -3.203 -34.743  1.00  0.00     0.017 A 
ENDBRANCH  13  15
ENDBRANCH  10  13
ENDBRANCH   8   9
ENDBRANCH   1   8
BRANCH   5  20
HETATM   20  N   UNL     1      -4.199   5.776 -32.560  1.00  0.00    -0.338 N 
HETATM   21  C   UNL     1      -3.055   6.185 -33.162  1.00  0.00     0.316 C 
HETATM   22  N   UNL     1      -1.912   6.090 -32.453  1.00  0.00    -0.339 N 
HETATM   23  O   UNL     1      -3.004   6.603 -34.313  1.00  0.00    -0.247 OA
HETATM   24  H   UNL     1      -1.120   6.467 -32.960  1.00  0.00     0.164 HD
HETATM   25  H   UNL     1      -4.128   5.567 -31.575  1.00  0.00     0.164 HD
BRANCH  22  26
HETATM   26  C   UNL     1      -1.653   5.579 -31.106  1.00  0.00     0.086 C 
HETATM   27  C   UNL     1      -0.176   5.184 -30.964  1.00  0.00     0.025 C 
HETATM   28  C   UNL     1       0.762   6.391 -30.898  1.00  0.00     0.002 C 
HETATM   29  C   UNL     1       0.335   7.376 -29.815  1.00  0.00     0.000 C 
HETATM   30  C   UNL     1      -1.121   7.802 -29.980  1.00  0.00     0.002 C 
HETATM   31  C   UNL     1      -2.059   6.597 -30.033  1.00  0.00     0.025 C 
ENDBRANCH  22  26
ENDBRANCH   5  20
TORSDOF 6
ENDMDL
MODEL 5
REMARK VINA RESULT:      -7.7      2.596      9.488
REMARK  6 active torsions:
REMARK  status: ('A' for Active; 'I' for Inactive)
REMARK    1  A    between atoms: C_2  and  N_3 
REMARK    2  A    between atoms: C_2  and  C_24 
REMARK       I    between atoms: N_3  and  C_4 
REMARK    3  A    between atoms: C_4  and  C_5 
REMARK    4  A    between atoms: C_5  and  N_6 
REMARK    5  A    between atoms: C_10  and  N_11 
REMARK       I    between atoms: N_11  and  C_12 
REMARK       I    between atoms: C_12  and  N_13 
REMARK    6  A    between atoms: N_13  and  C_14 
ROOT
HETATM    1  N   UNL     1      -5.143   3.700 -33.146  1.00  0.00    -0.063 N 
HETATM    2  H   UNL     1      -5.278   3.189 -34.033  1.00  0.00     0.280 HD
HETATM    3  C   UNL     1      -5.166   5.177 -33.407  1.00  0.00     0.237 C 
HETATM    4  C   UNL     1      -3.888   5.661 -34.061  1.00  0.00     0.053 C 
HETATM    5  C   UNL     1      -2.627   5.236 -33.319  1.00  0.00     0.089 C 
HETATM    6  C   UNL     1      -2.614   3.727 -33.092  1.00  0.00     0.053 C 
HETATM    7  C   UNL     1      -3.890   3.145 -32.509  1.00  0.00     0.237 C 
ENDROOT
BRANCH   1   8
HETATM    8  C   UNL     1      -6.375   3.327 -32.287  1.00  0.00     0.337 C 
BRANCH   8   9
HETATM    9  C   UNL     1      -7.299   2.369 -33.030  1.00  0.00     0.244 C 
HETATM   10  N   UNL     1      -7.157   1.023 -32.937  1.00  0.00    -0.351 N 
HETATM   11  H   UNL     1      -7.847   0.520 -33.487  1.00  0.00     0.163 HD
HETATM   12  O   UNL     1      -8.200   2.837 -33.735  1.00  0.00    -0.272 OA
BRANCH  10  13
HETATM   13  C   UNL     1      -6.106   0.194 -32.340  1.00  0.00     0.120 C 
HETATM   14  C   UNL     1      -6.353  -0.079 -30.860  1.00  0.00     0.038 C 
BRANCH  13  15
HETATM   15  C   UNL     1      -5.814  -0.998 -33.223  1.00  0.00     0.005 A 
HETATM   16  S   UNL     1      -4.292  -1.794 -33.252  1.00  0.00    -0.104 SA
HETATM   17  C   UNL     1      -4.793  -2.882 -34.465  1.00  0.00     0.050 A 
HETATM   18  C   UNL     1      -6.087  -2.646 -34.864  1.00  0.00     0.008 A 
HETATM   19  C   UNL     1      -6.675  -1.564 -34.149  1.00  0.00     0.017 A 
ENDBRANCH  13  15
ENDBRANCH  10  13
ENDBRANCH   8   9
ENDBRANCH   1   8
BRANCH   5  20
HETATM   20  N   UNL     1      -2.323   6.058 -32.147  1.00  0.00    -0.338 N 
HETATM   21  C   UNL     1      -1.783   7.301 -32.123  1.00  0.00     0.316 C 
HETATM   22  N   UNL     1      -1.495   7.829 -30.916  1.00  0.00    -0.339 N 
HETATM   23  O   UNL     1      -1.520   7.949 -33.130  1.00  0.00    -0.247 OA
HETATM   24  H   UNL     1      -1.148   8.778 -30.992  1.00  0.00     0.164 HD
HETATM   25  H   UNL     1      -2.602   5.681 -31.253  1.00  0.00     0.164 HD
BRANCH  22  26
HETATM   26  C   UNL     1      -1.633   7.281 -29.566  1.00  0.00     0.086 C 
HETATM   27  C   UNL     1      -0.289   6.715 -29.083  1.00  0.00     0.025 C 
HETATM   28  C   UNL     1       0.731   7.805 -28.747  1.00  0.00     0.002 C 
HETATM   29  C   UNL     1       0.163   8.824 -27.765  1.00  0.00     0.000 C 
HETATM   30  C   UNL     1      -1.152   9.417 -28.264  1.00  0.00     0.002 C 
HETATM   31  C   UNL     1      -2.176   8.330 -28.587  1.00  0.00     0.025 C 
ENDBRANCH  22  26
ENDBRANCH   5  20
TORSDOF 6
ENDMDL
MODEL 6
REMARK VINA RESULT:      -7.7      3.024      9.571
REMARK  6 active torsions:
REMARK  status: ('A' for Active; 'I' for Inactive)
REMARK    1  A    between atoms: C_2  and  N_3 
REMARK    2  A    between atoms: C_2  and  C_24 
REMARK       I    between atoms: N_3  and  C_4 
REMARK    3  A    between atoms: C_4  and  C_5 
REMARK    4  A    between atoms: C_5  and  N_6 
REMARK    5  A    between atoms: C_10  and  N_11 
REMARK       I    between atoms: N_11  and  C_12 
REMARK       I    between atoms: C_12  and  N_13 
REMARK    6  A    between atoms: N_13  and  C_14 
ROOT
HETATM    1  N   UNL     1      -5.286   3.440 -33.410  1.00  0.00    -0.063 N 
HETATM    2  H   UNL     1      -5.226   2.682 -34.109  1.00  0.00     0.280 HD
HETATM    3  C   UNL     1      -5.373   4.764 -34.111  1.00  0.00     0.237 C 
HETATM    4  C   UNL     1      -4.041   5.191 -34.693  1.00  0.00     0.053 C 
HETATM    5  C   UNL     1      -2.898   5.158 -33.685  1.00  0.00     0.089 C 
HETATM    6  C   UNL     1      -2.812   3.792 -33.009  1.00  0.00     0.053 C 
HETATM    7  C   UNL     1      -4.123   3.252 -32.463  1.00  0.00     0.237 C 
ENDROOT
BRANCH   1   8
HETATM    8  C   UNL     1      -6.615   3.183 -32.663  1.00  0.00     0.337 C 
BRANCH   8   9
HETATM    9  C   UNL     1      -7.455   2.127 -33.373  1.00  0.00     0.244 C 
HETATM   10  N   UNL     1      -7.230   0.800 -33.201  1.00  0.00    -0.351 N 
HETATM   11  H   UNL     1      -7.870   0.224 -33.739  1.00  0.00     0.163 HD
HETATM   12  O   UNL     1      -8.365   2.497 -34.124  1.00  0.00    -0.272 OA
BRANCH  10  13
HETATM   13  C   UNL     1      -6.144   0.076 -32.534  1.00  0.00     0.120 C 
HETATM   14  C   UNL     1      -6.406  -0.117 -31.044  1.00  0.00     0.038 C 
BRANCH  13  15
HETATM   15  C   UNL     1      -5.763  -1.148 -33.333  1.00  0.00     0.005 A 
HETATM   16  S   UNL     1      -4.231  -1.915 -33.201  1.00  0.00    -0.104 SA
HETATM   17  C   UNL     1      -4.615  -3.067 -34.398  1.00  0.00     0.050 A 
HETATM   18  C   UNL     1      -5.875  -2.875 -34.911  1.00  0.00     0.008 A 
HETATM   19  C   UNL     1      -6.536  -1.773 -34.298  1.00  0.00     0.017 A 
ENDBRANCH  13  15
ENDBRANCH  10  13
ENDBRANCH   8   9
ENDBRANCH   1   8
BRANCH   5  20
HETATM   20  N   UNL     1      -2.864   6.315 -32.790  1.00  0.00    -0.338 N 
HETATM   21  C   UNL     1      -2.226   7.495 -32.983  1.00  0.00     0.316 C 
HETATM   22  N   UNL     1      -2.247   8.385 -31.970  1.00  0.00    -0.339 N 
HETATM   23  O   UNL     1      -1.613   7.778 -34.006  1.00  0.00    -0.247 OA
HETATM   24  H   UNL     1      -1.794   9.256 -32.223  1.00  0.00     0.164 HD
HETATM   25  H   UNL     1      -3.430   6.251 -31.956  1.00  0.00     0.164 HD
BRANCH  22  26
HETATM   26  C   UNL     1      -2.830   8.307 -30.631  1.00  0.00     0.086 C 
HETATM   27  C   UNL     1      -2.067   9.227 -29.666  1.00  0.00     0.025 C 
HETATM   28  C   UNL     1      -2.344  10.711 -29.911  1.00  0.00     0.002 C 
HETATM   29  C   UNL     1      -3.838  11.012 -29.913  1.00  0.00     0.000 C 
HETATM   30  C   UNL     1      -4.592  10.127 -30.902  1.00  0.00     0.002 C 
HETATM   31  C   UNL     1      -4.327   8.644 -30.649  1.00  0.00     0.025 C 
ENDBRANCH  22  26
ENDBRANCH   5  20
TORSDOF 6
ENDMDL
MODEL 7
REMARK VINA RESULT:      -7.6      5.144      9.898
REMARK  6 active torsions:
REMARK  status: ('A' for Active; 'I' for Inactive)
REMARK    1  A    between atoms: C_2  and  N_3 
REMARK    2  A    between atoms: C_2  and  C_24 
REMARK       I    between atoms: N_3  and  C_4 
REMARK    3  A    between atoms: C_4  and  C_5 
REMARK    4  A    between atoms: C_5  and  N_6 
REMARK    5  A    between atoms: C_10  and  N_11 
REMARK       I    between atoms: N_11  and  C_12 
REMARK       I    between atoms: C_12  and  N_13 
REMARK    6  A    between atoms: N_13  and  C_14 
ROOT
HETATM    1  N   UNL     1      -8.330   1.335 -31.777  1.00  0.00    -0.063 N 
HETATM    2  H   UNL     1      -8.843   0.686 -31.160  1.00  0.00     0.280 HD
HETATM    3  C   UNL     1      -7.073   0.676 -32.265  1.00  0.00     0.237 C 
HETATM    4  C   UNL     1      -6.009   0.609 -31.189  1.00  0.00     0.053 C 
HETATM    5  C   UNL     1      -5.725   1.953 -30.530  1.00  0.00     0.089 C 
HETATM    6  C   UNL     1      -7.014   2.587 -30.016  1.00  0.00     0.053 C 
HETATM    7  C   UNL     1      -8.163   2.626 -31.010  1.00  0.00     0.237 C 
ENDROOT
BRANCH   1   8
HETATM    8  C   UNL     1      -9.274   1.561 -32.981  1.00  0.00     0.337 C 
BRANCH   8   9
HETATM    9  C   UNL     1     -10.413   0.549 -32.991  1.00  0.00     0.244 C 
HETATM   10  N   UNL     1     -11.629   0.847 -33.514  1.00  0.00    -0.351 N 
HETATM   11  H   UNL     1     -12.282   0.072 -33.448  1.00  0.00     0.163 HD
HETATM   12  O   UNL     1     -10.219  -0.572 -32.507  1.00  0.00    -0.272 OA
BRANCH  10  13
HETATM   13  C   UNL     1     -12.203   2.111 -33.985  1.00  0.00     0.120 C 
HETATM   14  C   UNL     1     -12.249   2.196 -35.508  1.00  0.00     0.038 C 
BRANCH  13  15
HETATM   15  C   UNL     1     -13.480   2.418 -33.238  1.00  0.00     0.005 A 
HETATM   16  S   UNL     1     -13.773   3.921 -32.459  1.00  0.00    -0.104 SA
HETATM   17  C   UNL     1     -15.290   3.410 -31.870  1.00  0.00     0.050 A 
HETATM   18  C   UNL     1     -15.575   2.117 -32.235  1.00  0.00     0.008 A 
HETATM   19  C   UNL     1     -14.535   1.546 -33.023  1.00  0.00     0.017 A 
ENDBRANCH  13  15
ENDBRANCH  10  13
ENDBRANCH   8   9
ENDBRANCH   1   8
BRANCH   5  20
HETATM   20  N   UNL     1      -4.855   2.827 -31.317  1.00  0.00    -0.338 N 
HETATM   21  C   UNL     1      -3.529   2.682 -31.556  1.00  0.00     0.316 C 
HETATM   22  N   UNL     1      -2.907   3.672 -32.229  1.00  0.00    -0.339 N 
HETATM   23  O   UNL     1      -2.869   1.723 -31.171  1.00  0.00    -0.247 OA
HETATM   24  H   UNL     1      -1.934   3.453 -32.409  1.00  0.00     0.164 HD
HETATM   25  H   UNL     1      -5.306   3.599 -31.787  1.00  0.00     0.164 HD
BRANCH  22  26
HETATM   26  C   UNL     1      -3.406   4.945 -32.749  1.00  0.00     0.086 C 
HETATM   27  C   UNL     1      -2.614   6.113 -32.144  1.00  0.00     0.025 C 
HETATM   28  C   UNL     1      -1.192   6.221 -32.699  1.00  0.00     0.002 C 
HETATM   29  C   UNL     1      -1.185   6.264 -34.222  1.00  0.00     0.000 C 
HETATM   30  C   UNL     1      -1.937   5.081 -34.826  1.00  0.00     0.002 C 
HETATM   31  C   UNL     1      -3.361   4.981 -34.282  1.00  0.00     0.025 C 
ENDBRANCH  22  26
ENDBRANCH   5  20
TORSDOF 6
ENDMDL
MODEL 8
REMARK VINA RESULT:      -7.5      4.343      6.759
REMARK  6 active torsions:
REMARK  status: ('A' for Active; 'I' for Inactive)
REMARK    1  A    between atoms: C_2  and  N_3 
REMARK    2  A    between atoms: C_2  and  C_24 
REMARK       I    between atoms: N_3  and  C_4 
REMARK    3  A    between atoms: C_4  and  C_5 
REMARK    4  A    between atoms: C_5  and  N_6 
REMARK    5  A    between atoms: C_10  and  N_11 
REMARK       I    between atoms: N_11  and  C_12 
REMARK       I    between atoms: C_12  and  N_13 
REMARK    6  A    between atoms: N_13  and  C_14 
ROOT
HETATM    1  N   UNL     1      -6.649   5.043 -31.190  1.00  0.00    -0.063 N 
HETATM    2  H   UNL     1      -6.535   5.687 -30.390  1.00  0.00     0.280 HD
HETATM    3  C   UNL     1      -7.638   3.972 -30.836  1.00  0.00     0.237 C 
HETATM    4  C   UNL     1      -7.053   2.944 -29.891  1.00  0.00     0.053 C 
HETATM    5  C   UNL     1      -5.731   2.358 -30.372  1.00  0.00     0.089 C 
HETATM    6  C   UNL     1      -4.733   3.466 -30.697  1.00  0.00     0.053 C 
HETATM    7  C   UNL     1      -5.264   4.582 -31.581  1.00  0.00     0.237 C 
ENDROOT
BRANCH   1   8
HETATM    8  C   UNL     1      -7.245   5.919 -32.317  1.00  0.00     0.337 C 
BRANCH   8   9
HETATM    9  C   UNL     1      -7.216   5.194 -33.658  1.00  0.00     0.244 C 
HETATM   10  N   UNL     1      -8.332   4.638 -34.193  1.00  0.00    -0.351 N 
HETATM   11  H   UNL     1      -8.154   4.192 -35.088  1.00  0.00     0.163 HD
HETATM   12  O   UNL     1      -6.145   5.114 -34.269  1.00  0.00    -0.272 OA
BRANCH  10  13
HETATM   13  C   UNL     1      -9.672   4.420 -33.640  1.00  0.00     0.120 C 
HETATM   14  C   UNL     1     -10.717   5.331 -34.276  1.00  0.00     0.038 C 
BRANCH  13  15
HETATM   15  C   UNL     1      -9.984   2.942 -33.589  1.00  0.00     0.005 A 
HETATM   16  S   UNL     1     -11.580   2.325 -33.431  1.00  0.00    -0.104 SA
HETATM   17  C   UNL     1     -11.037   0.709 -33.398  1.00  0.00     0.050 A 
HETATM   18  C   UNL     1      -9.669   0.624 -33.487  1.00  0.00     0.008 A 
HETATM   19  C   UNL     1      -9.062   1.908 -33.599  1.00  0.00     0.017 A 
ENDBRANCH  13  15
ENDBRANCH  10  13
ENDBRANCH   8   9
ENDBRANCH   1   8
BRANCH   5  20
HETATM   20  N   UNL     1      -5.880   1.318 -31.391  1.00  0.00    -0.338 N 
HETATM   21  C   UNL     1      -6.345   0.055 -31.225  1.00  0.00     0.316 C 
HETATM   22  N   UNL     1      -6.298  -0.768 -32.293  1.00  0.00    -0.339 N 
HETATM   23  O   UNL     1      -6.773  -0.379 -30.162  1.00  0.00    -0.247 OA
HETATM   24  H   UNL     1      -6.715  -1.670 -32.093  1.00  0.00     0.164 HD
HETATM   25  H   UNL     1      -5.668   1.589 -32.340  1.00  0.00     0.164 HD
BRANCH  22  26
HETATM   26  C   UNL     1      -5.791  -0.559 -33.649  1.00  0.00     0.086 C 
HETATM   27  C   UNL     1      -4.365  -1.117 -33.775  1.00  0.00     0.025 C 
HETATM   28  C   UNL     1      -4.321  -2.646 -33.784  1.00  0.00     0.002 C 
HETATM   29  C   UNL     1      -5.249  -3.229 -34.843  1.00  0.00     0.000 C 
HETATM   30  C   UNL     1      -6.676  -2.708 -34.694  1.00  0.00     0.002 C 
HETATM   31  C   UNL     1      -6.722  -1.181 -34.698  1.00  0.00     0.025 C 
ENDBRANCH  22  26
ENDBRANCH   5  20
TORSDOF 6
ENDMDL
MODEL 9
REMARK VINA RESULT:      -7.4      3.263      9.369
REMARK  6 active torsions:
REMARK  status: ('A' for Active; 'I' for Inactive)
REMARK    1  A    between atoms: C_2  and  N_3 
REMARK    2  A    between atoms: C_2  and  C_24 
REMARK       I    between atoms: N_3  and  C_4 
REMARK    3  A    between atoms: C_4  and  C_5 
REMARK    4  A    between atoms: C_5  and  N_6 
REMARK    5  A    between atoms: C_10  and  N_11 
REMARK       I    between atoms: N_11  and  C_12 
REMARK       I    between atoms: C_12  and  N_13 
REMARK    6  A    between atoms: N_13  and  C_14 
ROOT
HETATM    1  N   UNL     1      -7.043   2.819 -32.025  1.00  0.00    -0.063 N 
HETATM    2  H   UNL     1      -8.060   2.721 -31.871  1.00  0.00     0.280 HD
HETATM    3  C   UNL     1      -6.308   2.483 -30.761  1.00  0.00     0.237 C 
HETATM    4  C   UNL     1      -6.418   3.584 -29.727  1.00  0.00     0.053 C 
HETATM    5  C   UNL     1      -6.031   4.959 -30.258  1.00  0.00     0.089 C 
HETATM    6  C   UNL     1      -6.813   5.289 -31.527  1.00  0.00     0.053 C 
HETATM    7  C   UNL     1      -6.820   4.204 -32.589  1.00  0.00     0.237 C 
ENDROOT
BRANCH   1   8
HETATM    8  C   UNL     1      -6.703   1.758 -33.097  1.00  0.00     0.337 C 
BRANCH   8   9
HETATM    9  C   UNL     1      -7.447   0.452 -32.840  1.00  0.00     0.244 C 
HETATM   10  N   UNL     1      -6.869  -0.755 -33.065  1.00  0.00    -0.351 N 
HETATM   11  H   UNL     1      -7.488  -1.530 -32.846  1.00  0.00     0.163 HD
HETATM   12  O   UNL     1      -8.606   0.500 -32.416  1.00  0.00    -0.272 OA
BRANCH  10  13
HETATM   13  C   UNL     1      -5.608  -1.125 -33.715  1.00  0.00     0.120 C 
HETATM   14  C   UNL     1      -4.390  -0.717 -32.892  1.00  0.00     0.038 C 
BRANCH  13  15
HETATM   15  C   UNL     1      -5.667  -2.555 -34.197  1.00  0.00     0.005 A 
HETATM   16  S   UNL     1      -4.312  -3.612 -34.168  1.00  0.00    -0.104 SA
HETATM   17  C   UNL     1      -5.188  -4.885 -34.890  1.00  0.00     0.050 A 
HETATM   18  C   UNL     1      -6.484  -4.524 -35.169  1.00  0.00     0.008 A 
HETATM   19  C   UNL     1      -6.760  -3.185 -34.770  1.00  0.00     0.017 A 
ENDBRANCH  13  15
ENDBRANCH  10  13
ENDBRANCH   8   9
ENDBRANCH   1   8
BRANCH   5  20
HETATM   20  N   UNL     1      -4.586   5.184 -30.326  1.00  0.00    -0.338 N 
HETATM   21  C   UNL     1      -3.889   6.248 -29.859  1.00  0.00     0.316 C 
HETATM   22  N   UNL     1      -2.568   6.289 -30.124  1.00  0.00    -0.339 N 
HETATM   23  O   UNL     1      -4.398   7.177 -29.242  1.00  0.00    -0.247 OA
HETATM   24  H   UNL     1      -2.120   7.089 -29.692  1.00  0.00     0.164 HD
HETATM   25  H   UNL     1      -4.035   4.431 -30.712  1.00  0.00     0.164 HD
BRANCH  22  26
HETATM   26  C   UNL     1      -1.707   5.378 -30.879  1.00  0.00     0.086 C 
HETATM   27  C   UNL     1      -1.470   5.922 -32.295  1.00  0.00     0.025 C 
HETATM   28  C   UNL     1      -0.538   7.135 -32.321  1.00  0.00     0.002 C 
HETATM   29  C   UNL     1       0.775   6.851 -31.600  1.00  0.00     0.000 C 
HETATM   30  C   UNL     1       0.542   6.349 -30.177  1.00  0.00     0.002 C 
HETATM   31  C   UNL     1      -0.379   5.130 -30.152  1.00  0.00     0.025 C 
ENDBRANCH  22  26
ENDBRANCH   5  20
TORSDOF 6
ENDMDL
MODEL 10
REMARK VINA RESULT:      -7.2      2.972      9.245
REMARK  6 active torsions:
REMARK  status: ('A' for Active; 'I' for Inactive)
REMARK    1  A    between atoms: C_2  and  N_3 
REMARK    2  A    between atoms: C_2  and  C_24 
REMARK       I    between atoms: N_3  and  C_4 
REMARK    3  A    between atoms: C_4  and  C_5 
REMARK    4  A    between atoms: C_5  and  N_6 
REMARK    5  A    between atoms: C_10  and  N_11 
REMARK       I    between atoms: N_11  and  C_12 
REMARK       I    between atoms: C_12  and  N_13 
REMARK    6  A    between atoms: N_13  and  C_14 
ROOT
HETATM    1  N   UNL     1      -4.896   4.516 -32.793  1.00  0.00    -0.063 N 
HETATM    2  H   UNL     1      -5.058   3.956 -33.646  1.00  0.00     0.280 HD
HETATM    3  C   UNL     1      -4.045   5.706 -33.126  1.00  0.00     0.237 C 
HETATM    4  C   UNL     1      -2.595   5.328 -33.343  1.00  0.00     0.053 C 
HETATM    5  C   UNL     1      -2.001   4.510 -32.203  1.00  0.00     0.089 C 
HETATM    6  C   UNL     1      -2.869   3.290 -31.904  1.00  0.00     0.053 C 
HETATM    7  C   UNL     1      -4.354   3.569 -31.747  1.00  0.00     0.237 C 
ENDROOT
BRANCH   1   8
HETATM    8  C   UNL     1      -6.300   5.008 -32.373  1.00  0.00     0.337 C 
BRANCH   8   9
HETATM    9  C   UNL     1      -7.363   4.576 -33.378  1.00  0.00     0.244 C 
HETATM   10  N   UNL     1      -7.987   3.375 -33.285  1.00  0.00    -0.351 N 
HETATM   11  H   UNL     1      -8.669   3.233 -34.024  1.00  0.00     0.163 HD
HETATM   12  O   UNL     1      -7.659   5.345 -34.299  1.00  0.00    -0.272 OA
BRANCH  10  13
HETATM   13  C   UNL     1      -7.734   2.210 -32.433  1.00  0.00     0.120 C 
HETATM   14  C   UNL     1      -8.877   1.943 -31.459  1.00  0.00     0.038 C 
BRANCH  13  15
HETATM   15  C   UNL     1      -7.252   1.046 -33.267  1.00  0.00     0.005 A 
HETATM   16  S   UNL     1      -5.969   0.011 -32.783  1.00  0.00    -0.104 SA
HETATM   17  C   UNL     1      -6.050  -0.897 -34.224  1.00  0.00     0.050 A 
HETATM   18  C   UNL     1      -7.020  -0.425 -35.076  1.00  0.00     0.008 A 
HETATM   19  C   UNL     1      -7.712   0.692 -34.526  1.00  0.00     0.017 A 
ENDBRANCH  13  15
ENDBRANCH  10  13
ENDBRANCH   8   9
ENDBRANCH   1   8
BRANCH   5  20
HETATM   20  N   UNL     1      -1.606   5.309 -31.043  1.00  0.00    -0.338 N 
HETATM   21  C   UNL     1      -0.493   5.173 -30.282  1.00  0.00     0.316 C 
HETATM   22  N   UNL     1      -0.385   5.961 -29.193  1.00  0.00    -0.339 N 
HETATM   23  O   UNL     1       0.395   4.359 -30.514  1.00  0.00    -0.247 OA
HETATM   24  H   UNL     1       0.501   5.829 -28.718  1.00  0.00     0.164 HD
HETATM   25  H   UNL     1      -2.202   6.092 -30.816  1.00  0.00     0.164 HD
BRANCH  22  26
HETATM   26  C   UNL     1      -1.294   6.961 -28.633  1.00  0.00     0.086 C 
HETATM   27  C   UNL     1      -1.548   6.675 -27.146  1.00  0.00     0.025 C 
HETATM   28  C   UNL     1      -0.341   6.993 -26.262  1.00  0.00     0.002 C 
HETATM   29  C   UNL     1       0.159   8.416 -26.484  1.00  0.00     0.000 C 
HETATM   30  C   UNL     1       0.451   8.690 -27.957  1.00  0.00     0.002 C 
HETATM   31  C   UNL     1      -0.758   8.384 -28.839  1.00  0.00     0.025 C 
ENDBRANCH  22  26
ENDBRANCH   5  20
TORSDOF 6
ENDMDL
