MODEL 1
REMARK VINA RESULT:      -7.2      0.000      0.000
REMARK  6 active torsions:
REMARK  status: ('A' for Active; 'I' for Inactive)
REMARK    1  A    between atoms: C_2  and  O_3 
REMARK    2  A    between atoms: O_3  and  C_4 
REMARK    3  A    between atoms: C_4  and  C_5 
REMARK    4  A    between atoms: C_6  and  O_7 
REMARK    5  A    between atoms: C_12  and  O_13 
REMARK    6  A    between atoms: C_17  and  C_18 
ROOT
HETATM    1  C   UNL     1      -6.892   0.695 -31.243  1.00  0.00     0.133 C 
HETATM    2  C   UNL     1      -5.683   1.173 -30.373  1.00  0.00     0.073 C 
HETATM    3  C   UNL     1      -4.363   0.467 -30.724  1.00  0.00     0.047 C 
HETATM    4  C   UNL     1      -5.465   2.714 -30.411  1.00  0.00     0.097 C 
HETATM    5  C   UNL     1      -6.770   3.399 -30.250  1.00  0.00     0.042 A 
HETATM    6  C   UNL     1      -8.014   2.874 -30.521  1.00  0.00     0.030 A 
HETATM    7  C   UNL     1      -8.887   3.896 -30.111  1.00  0.00     0.190 A 
HETATM    8  N   UNL     1      -8.267   4.976 -29.650  1.00  0.00    -0.149 NA
HETATM    9  N   UNL     1      -6.966   4.646 -29.734  1.00  0.00    -0.279 N 
HETATM   10  H   UNL     1      -6.279   5.314 -29.403  1.00  0.00     0.189 HD
HETATM   11  C   UNL     1      -8.222   1.483 -31.022  1.00  0.00     0.074 C 
ENDROOT
BRANCH  11  12
HETATM   12  C   UNL     1      -9.152   1.577 -32.226  1.00  0.00    -0.048 A 
HETATM   13  C   UNL     1      -9.108   2.653 -33.137  1.00  0.00     0.011 A 
HETATM   14  C   UNL     1      -9.969   2.705 -34.232  1.00  0.00     0.043 A 
HETATM   15  C   UNL     1     -10.874   1.676 -34.438  1.00  0.00     0.116 A 
HETATM   16  F   UNL     1     -11.698   1.720 -35.493  1.00  0.00    -0.206 F 
HETATM   17  C   UNL     1     -10.932   0.594 -33.566  1.00  0.00     0.043 A 
HETATM   18  C   UNL     1     -10.073   0.541 -32.467  1.00  0.00     0.011 A 
ENDBRANCH  11  12
BRANCH   1  19
HETATM   19  C   UNL     1      -6.497   0.595 -32.704  1.00  0.00     0.267 C 
HETATM   20  O   UNL     1      -5.955   1.478 -33.353  1.00  0.00    -0.265 OA
BRANCH  19  21
HETATM   21  O   UNL     1      -6.794  -0.655 -33.162  1.00  0.00    -0.316 OA
BRANCH  21  22
HETATM   22  C   UNL     1      -6.624  -0.900 -34.571  1.00  0.00     0.123 C 
HETATM   23  C   UNL     1      -7.749  -0.227 -35.345  1.00  0.00     0.040 C 
HETATM   24  C   UNL     1      -6.667  -2.411 -34.761  1.00  0.00     0.040 C 
ENDBRANCH  21  22
ENDBRANCH  19  21
ENDBRANCH   1  19
BRANCH   2  25
HETATM   25  O   UNL     1      -5.969   0.813 -29.001  1.00  0.00    -0.389 OA
HETATM   26  H   UNL     1      -5.916   1.613 -28.448  1.00  0.00     0.210 HD
ENDBRANCH   2  25
BRANCH   7  27
HETATM   27  O   UNL     1     -10.221   3.936 -30.122  1.00  0.00    -0.343 OA
HETATM   28  H   UNL     1     -10.563   3.480 -29.338  1.00  0.00     0.219 HD
ENDBRANCH   7  27
TORSDOF 6
ENDMDL
MODEL 2
REMARK VINA RESULT:      -7.0      1.556      2.230
REMARK  6 active torsions:
REMARK  status: ('A' for Active; 'I' for Inactive)
REMARK    1  A    between atoms: C_2  and  O_3 
REMARK    2  A    between atoms: O_3  and  C_4 
REMARK    3  A    between atoms: C_4  and  C_5 
REMARK    4  A    between atoms: C_6  and  O_7 
REMARK    5  A    between atoms: C_12  and  O_13 
REMARK    6  A    between atoms: C_17  and  C_18 
ROOT
HETATM    1  C   UNL     1      -5.915  -0.241 -32.149  1.00  0.00     0.133 C 
HETATM    2  C   UNL     1      -4.423   0.128 -31.862  1.00  0.00     0.073 C 
HETATM    3  C   UNL     1      -3.422  -0.870 -32.469  1.00  0.00     0.047 C 
HETATM    4  C   UNL     1      -4.044   1.569 -32.313  1.00  0.00     0.097 C 
HETATM    5  C   UNL     1      -5.103   2.513 -31.881  1.00  0.00     0.042 A 
HETATM    6  C   UNL     1      -6.414   2.203 -31.596  1.00  0.00     0.030 A 
HETATM    7  C   UNL     1      -6.942   3.430 -31.156  1.00  0.00     0.190 A 
HETATM    8  N   UNL     1      -6.067   4.428 -31.182  1.00  0.00    -0.149 NA
HETATM    9  N   UNL     1      -4.940   3.841 -31.621  1.00  0.00    -0.279 N 
HETATM   10  H   UNL     1      -4.102   4.407 -31.696  1.00  0.00     0.189 HD
HETATM   11  C   UNL     1      -6.963   0.817 -31.677  1.00  0.00     0.074 C 
ENDROOT
BRANCH  11  12
HETATM   12  C   UNL     1      -8.251   0.893 -32.489  1.00  0.00    -0.048 A 
HETATM   13  C   UNL     1      -9.368   0.074 -32.218  1.00  0.00     0.011 A 
HETATM   14  C   UNL     1     -10.533   0.174 -32.977  1.00  0.00     0.043 A 
HETATM   15  C   UNL     1     -10.602   1.101 -34.005  1.00  0.00     0.116 A 
HETATM   16  F   UNL     1     -11.722   1.204 -34.730  1.00  0.00    -0.206 F 
HETATM   17  C   UNL     1      -9.523   1.932 -34.286  1.00  0.00     0.043 A 
HETATM   18  C   UNL     1      -8.353   1.832 -33.530  1.00  0.00     0.011 A 
ENDBRANCH  11  12
BRANCH   1  19
HETATM   19  C   UNL     1      -6.100  -0.653 -33.596  1.00  0.00     0.267 C 
HETATM   20  O   UNL     1      -5.920   0.068 -34.566  1.00  0.00    -0.265 OA
BRANCH  19  21
HETATM   21  O   UNL     1      -6.446  -1.972 -33.644  1.00  0.00    -0.316 OA
BRANCH  21  22
HETATM   22  C   UNL     1      -6.065  -2.712 -34.819  1.00  0.00     0.123 C 
HETATM   23  C   UNL     1      -6.902  -3.980 -34.918  1.00  0.00     0.040 C 
HETATM   24  C   UNL     1      -4.588  -3.053 -34.663  1.00  0.00     0.040 C 
ENDBRANCH  21  22
ENDBRANCH  19  21
ENDBRANCH   1  19
BRANCH   2  25
HETATM   25  O   UNL     1      -4.227   0.060 -30.430  1.00  0.00    -0.389 OA
HETATM   26  H   UNL     1      -4.333  -0.864 -30.142  1.00  0.00     0.210 HD
ENDBRANCH   2  25
BRANCH   7  27
HETATM   27  O   UNL     1      -8.171   3.727 -30.729  1.00  0.00    -0.343 OA
HETATM   28  H   UNL     1      -8.412   3.132 -30.003  1.00  0.00     0.219 HD
ENDBRANCH   7  27
TORSDOF 6
ENDMDL
MODEL 3
REMARK VINA RESULT:      -6.9      2.703      4.524
REMARK  6 active torsions:
REMARK  status: ('A' for Active; 'I' for Inactive)
REMARK    1  A    between atoms: C_2  and  O_3 
REMARK    2  A    between atoms: O_3  and  C_4 
REMARK    3  A    between atoms: C_4  and  C_5 
REMARK    4  A    between atoms: C_6  and  O_7 
REMARK    5  A    between atoms: C_12  and  O_13 
REMARK    6  A    between atoms: C_17  and  C_18 
ROOT
HETATM    1  C   UNL     1      -6.663   2.895 -32.084  1.00  0.00     0.133 C 
HETATM    2  C   UNL     1      -7.357   4.273 -31.824  1.00  0.00     0.073 C 
HETATM    3  C   UNL     1      -6.382   5.461 -31.858  1.00  0.00     0.047 C 
HETATM    4  C   UNL     1      -8.545   4.558 -32.789  1.00  0.00     0.097 C 
HETATM    5  C   UNL     1      -9.392   3.347 -32.897  1.00  0.00     0.042 A 
HETATM    6  C   UNL     1      -9.007   2.049 -32.645  1.00  0.00     0.030 A 
HETATM    7  C   UNL     1     -10.202   1.325 -32.808  1.00  0.00     0.190 A 
HETATM    8  N   UNL     1     -11.240   2.078 -33.154  1.00  0.00    -0.149 NA
HETATM    9  N   UNL     1     -10.723   3.319 -33.193  1.00  0.00    -0.279 N 
HETATM   10  H   UNL     1     -11.344   4.091 -33.410  1.00  0.00     0.189 HD
HETATM   11  C   UNL     1      -7.632   1.676 -32.201  1.00  0.00     0.074 C 
ENDROOT
BRANCH  11  12
HETATM   12  C   UNL     1      -7.166   0.535 -33.099  1.00  0.00    -0.048 A 
HETATM   13  C   UNL     1      -7.453   0.492 -34.480  1.00  0.00     0.011 A 
HETATM   14  C   UNL     1      -7.007  -0.564 -35.274  1.00  0.00     0.043 A 
HETATM   15  C   UNL     1      -6.256  -1.579 -34.702  1.00  0.00     0.116 A 
HETATM   16  F   UNL     1      -5.820  -2.590 -35.464  1.00  0.00    -0.206 F 
HETATM   17  C   UNL     1      -5.945  -1.557 -33.347  1.00  0.00     0.043 A 
HETATM   18  C   UNL     1      -6.394  -0.503 -32.549  1.00  0.00     0.011 A 
ENDBRANCH  11  12
BRANCH   1  19
HETATM   19  C   UNL     1      -5.689   2.993 -33.242  1.00  0.00     0.267 C 
HETATM   20  O   UNL     1      -5.897   3.580 -34.294  1.00  0.00    -0.265 OA
BRANCH  19  21
HETATM   21  O   UNL     1      -4.526   2.368 -32.901  1.00  0.00    -0.316 OA
BRANCH  21  22
HETATM   22  C   UNL     1      -4.038   2.567 -31.561  1.00  0.00     0.123 C 
HETATM   23  C   UNL     1      -3.009   3.689 -31.553  1.00  0.00     0.040 C 
HETATM   24  C   UNL     1      -3.403   1.251 -31.126  1.00  0.00     0.040 C 
ENDBRANCH  21  22
ENDBRANCH  19  21
ENDBRANCH   1  19
BRANCH   2  25
HETATM   25  O   UNL     1      -7.893   4.241 -30.480  1.00  0.00    -0.389 OA
HETATM   26  H   UNL     1      -7.533   3.464 -30.017  1.00  0.00     0.210 HD
ENDBRANCH   2  25
BRANCH   7  27
HETATM   27  O   UNL     1     -10.435   0.019 -32.670  1.00  0.00    -0.343 OA
HETATM   28  H   UNL     1     -10.003  -0.464 -33.391  1.00  0.00     0.219 HD
ENDBRANCH   7  27
TORSDOF 6
ENDMDL
MODEL 4
REMARK VINA RESULT:      -6.8      2.601      4.777
REMARK  6 active torsions:
REMARK  status: ('A' for Active; 'I' for Inactive)
REMARK    1  A    between atoms: C_2  and  O_3 
REMARK    2  A    between atoms: O_3  and  C_4 
REMARK    3  A    between atoms: C_4  and  C_5 
REMARK    4  A    between atoms: C_6  and  O_7 
REMARK    5  A    between atoms: C_12  and  O_13 
REMARK    6  A    between atoms: C_17  and  C_18 
ROOT
HETATM    1  C   UNL     1      -7.494   3.771 -33.386  1.00  0.00     0.133 C 
HETATM    2  C   UNL     1      -7.246   5.096 -32.592  1.00  0.00     0.073 C 
HETATM    3  C   UNL     1      -8.531   5.897 -32.329  1.00  0.00     0.047 C 
HETATM    4  C   UNL     1      -6.494   4.879 -31.247  1.00  0.00     0.097 C 
HETATM    5  C   UNL     1      -5.353   3.958 -31.465  1.00  0.00     0.042 A 
HETATM    6  C   UNL     1      -5.218   3.041 -32.483  1.00  0.00     0.030 A 
HETATM    7  C   UNL     1      -3.933   2.513 -32.269  1.00  0.00     0.190 A 
HETATM    8  N   UNL     1      -3.317   3.020 -31.207  1.00  0.00    -0.149 NA
HETATM    9  N   UNL     1      -4.203   3.914 -30.733  1.00  0.00    -0.279 N 
HETATM   10  H   UNL     1      -3.942   4.465 -29.923  1.00  0.00     0.189 HD
HETATM   11  C   UNL     1      -6.242   2.853 -33.554  1.00  0.00     0.074 C 
ENDROOT
BRANCH  11  12
HETATM   12  C   UNL     1      -6.517   1.356 -33.651  1.00  0.00    -0.048 A 
HETATM   13  C   UNL     1      -6.505   0.509 -32.523  1.00  0.00     0.011 A 
HETATM   14  C   UNL     1      -6.767  -0.855 -32.646  1.00  0.00     0.043 A 
HETATM   15  C   UNL     1      -7.059  -1.385 -33.893  1.00  0.00     0.116 A 
HETATM   16  F   UNL     1      -7.318  -2.693 -34.013  1.00  0.00    -0.206 F 
HETATM   17  C   UNL     1      -7.093  -0.572 -35.021  1.00  0.00     0.043 A 
HETATM   18  C   UNL     1      -6.827   0.794 -34.901  1.00  0.00     0.011 A 
ENDBRANCH  11  12
BRANCH   1  19
HETATM   19  C   UNL     1      -8.701   3.034 -32.839  1.00  0.00     0.267 C 
HETATM   20  O   UNL     1      -8.915   2.803 -31.659  1.00  0.00    -0.265 OA
BRANCH  19  21
HETATM   21  O   UNL     1      -9.536   2.718 -33.871  1.00  0.00    -0.316 OA
BRANCH  21  22
HETATM   22  C   UNL     1     -10.698   1.926 -33.561  1.00  0.00     0.123 C 
HETATM   23  C   UNL     1     -10.284   0.478 -33.338  1.00  0.00     0.040 C 
HETATM   24  C   UNL     1     -11.637   2.040 -34.756  1.00  0.00     0.040 C 
ENDBRANCH  21  22
ENDBRANCH  19  21
ENDBRANCH   1  19
BRANCH   2  25
HETATM   25  O   UNL     1      -6.414   5.945 -33.417  1.00  0.00    -0.389 OA
HETATM   26  H   UNL     1      -5.500   5.909 -33.085  1.00  0.00     0.210 HD
ENDBRANCH   2  25
BRANCH   7  27
HETATM   27  O   UNL     1      -3.260   1.594 -32.963  1.00  0.00    -0.343 OA
HETATM   28  H   UNL     1      -3.151   0.797 -32.423  1.00  0.00     0.219 HD
ENDBRANCH   7  27
TORSDOF 6
ENDMDL
MODEL 5
REMARK VINA RESULT:      -6.7      2.582      4.867
REMARK  6 active torsions:
REMARK  status: ('A' for Active; 'I' for Inactive)
REMARK    1  A    between atoms: C_2  and  O_3 
REMARK    2  A    between atoms: O_3  and  C_4 
REMARK    3  A    between atoms: C_4  and  C_5 
REMARK    4  A    between atoms: C_6  and  O_7 
REMARK    5  A    between atoms: C_12  and  O_13 
REMARK    6  A    between atoms: C_17  and  C_18 
ROOT
HETATM    1  C   UNL     1      -6.487   3.102 -32.469  1.00  0.00     0.133 C 
HETATM    2  C   UNL     1      -4.996   3.141 -32.000  1.00  0.00     0.073 C 
HETATM    3  C   UNL     1      -4.734   4.175 -30.892  1.00  0.00     0.047 C 
HETATM    4  C   UNL     1      -4.454   1.755 -31.543  1.00  0.00     0.097 C 
HETATM    5  C   UNL     1      -4.861   0.722 -32.525  1.00  0.00     0.042 A 
HETATM    6  C   UNL     1      -5.921   0.791 -33.401  1.00  0.00     0.030 A 
HETATM    7  C   UNL     1      -5.795  -0.394 -34.148  1.00  0.00     0.190 A 
HETATM    8  N   UNL     1      -4.775  -1.157 -33.772  1.00  0.00    -0.149 NA
HETATM    9  N   UNL     1      -4.208  -0.448 -32.779  1.00  0.00    -0.279 N 
HETATM   10  H   UNL     1      -3.372  -0.819 -32.342  1.00  0.00     0.189 HD
HETATM   11  C   UNL     1      -6.832   1.971 -33.490  1.00  0.00     0.074 C 
ENDROOT
BRANCH  11  12
HETATM   12  C   UNL     1      -8.259   1.438 -33.442  1.00  0.00    -0.048 A 
HETATM   13  C   UNL     1      -8.638   0.357 -32.619  1.00  0.00     0.011 A 
HETATM   14  C   UNL     1      -9.954  -0.102 -32.594  1.00  0.00     0.043 A 
HETATM   15  C   UNL     1     -10.910   0.524 -33.380  1.00  0.00     0.116 A 
HETATM   16  F   UNL     1     -12.176   0.090 -33.353  1.00  0.00    -0.206 F 
HETATM   17  C   UNL     1     -10.571   1.601 -34.190  1.00  0.00     0.043 A 
HETATM   18  C   UNL     1      -9.252   2.060 -34.220  1.00  0.00     0.011 A 
ENDBRANCH  11  12
BRANCH   1  19
HETATM   19  C   UNL     1      -7.427   3.135 -31.281  1.00  0.00     0.267 C 
HETATM   20  O   UNL     1      -7.372   2.390 -30.313  1.00  0.00    -0.265 OA
BRANCH  19  21
HETATM   21  O   UNL     1      -8.310   4.163 -31.438  1.00  0.00    -0.316 OA
BRANCH  21  22
HETATM   22  C   UNL     1      -9.388   4.259 -30.488  1.00  0.00     0.123 C 
HETATM   23  C   UNL     1     -10.692   3.835 -31.149  1.00  0.00     0.040 C 
HETATM   24  C   UNL     1      -9.455   5.717 -30.048  1.00  0.00     0.040 C 
ENDBRANCH  21  22
ENDBRANCH  19  21
ENDBRANCH   1  19
BRANCH   2  25
HETATM   25  O   UNL     1      -4.197   3.564 -33.129  1.00  0.00    -0.389 OA
HETATM   26  H   UNL     1      -3.368   3.955 -32.800  1.00  0.00     0.210 HD
ENDBRANCH   2  25
BRANCH   7  27
HETATM   27  O   UNL     1      -6.539  -0.851 -35.157  1.00  0.00    -0.343 OA
HETATM   28  H   UNL     1      -7.415  -1.100 -34.824  1.00  0.00     0.219 HD
ENDBRANCH   7  27
TORSDOF 6
ENDMDL
MODEL 6
REMARK VINA RESULT:      -6.6      3.900      6.344
REMARK  6 active torsions:
REMARK  status: ('A' for Active; 'I' for Inactive)
REMARK    1  A    between atoms: C_2  and  O_3 
REMARK    2  A    between atoms: O_3  and  C_4 
REMARK    3  A    between atoms: C_4  and  C_5 
REMARK    4  A    between atoms: C_6  and  O_7 
REMARK    5  A    between atoms: C_12  and  O_13 
REMARK    6  A    between atoms: C_17  and  C_18 
ROOT
HETATM    1  C   UNL     1      -6.623   1.929 -31.607  1.00  0.00     0.133 C 
HETATM    2  C   UNL     1      -7.397   0.587 -31.824  1.00  0.00     0.073 C 
HETATM    3  C   UNL     1      -8.806   0.786 -32.407  1.00  0.00     0.047 C 
HETATM    4  C   UNL     1      -6.621  -0.440 -32.699  1.00  0.00     0.097 C 
HETATM    5  C   UNL     1      -5.210  -0.501 -32.250  1.00  0.00     0.042 A 
HETATM    6  C   UNL     1      -4.522   0.475 -31.562  1.00  0.00     0.030 A 
HETATM    7  C   UNL     1      -3.277  -0.128 -31.315  1.00  0.00     0.190 A 
HETATM    8  N   UNL     1      -3.167  -1.353 -31.816  1.00  0.00    -0.149 NA
HETATM    9  N   UNL     1      -4.370  -1.567 -32.377  1.00  0.00    -0.279 N 
HETATM   10  H   UNL     1      -4.545  -2.468 -32.808  1.00  0.00     0.189 HD
HETATM   11  C   UNL     1      -5.137   1.772 -31.151  1.00  0.00     0.074 C 
ENDROOT
BRANCH  11  12
HETATM   12  C   UNL     1      -4.182   2.877 -31.587  1.00  0.00    -0.048 A 
HETATM   13  C   UNL     1      -3.384   2.775 -32.746  1.00  0.00     0.011 A 
HETATM   14  C   UNL     1      -2.525   3.808 -33.120  1.00  0.00     0.043 A 
HETATM   15  C   UNL     1      -2.465   4.959 -32.350  1.00  0.00     0.116 A 
HETATM   16  F   UNL     1      -1.647   5.956 -32.712  1.00  0.00    -0.206 F 
HETATM   17  C   UNL     1      -3.251   5.095 -31.212  1.00  0.00     0.043 A 
HETATM   18  C   UNL     1      -4.109   4.061 -30.832  1.00  0.00     0.011 A 
ENDBRANCH  11  12
BRANCH   1  19
HETATM   19  C   UNL     1      -6.782   2.842 -32.806  1.00  0.00     0.267 C 
HETATM   20  O   UNL     1      -6.496   2.554 -33.959  1.00  0.00    -0.265 OA
BRANCH  19  21
HETATM   21  O   UNL     1      -7.343   4.018 -32.401  1.00  0.00    -0.316 OA
BRANCH  21  22
HETATM   22  C   UNL     1      -7.321   5.116 -33.332  1.00  0.00     0.123 C 
HETATM   23  C   UNL     1      -6.314   6.159 -32.867  1.00  0.00     0.040 C 
HETATM   24  C   UNL     1      -8.729   5.700 -33.355  1.00  0.00     0.040 C 
ENDBRANCH  21  22
ENDBRANCH  19  21
ENDBRANCH   1  19
BRANCH   2  25
HETATM   25  O   UNL     1      -7.591  -0.016 -30.524  1.00  0.00    -0.389 OA
HETATM   26  H   UNL     1      -8.211   0.532 -30.012  1.00  0.00     0.210 HD
ENDBRANCH   2  25
BRANCH   7  27
HETATM   27  O   UNL     1      -2.212   0.346 -30.666  1.00  0.00    -0.343 OA
HETATM   28  H   UNL     1      -2.439   0.489 -29.735  1.00  0.00     0.219 HD
ENDBRANCH   7  27
TORSDOF 6
ENDMDL
MODEL 7
REMARK VINA RESULT:      -6.5      2.905      5.002
REMARK  6 active torsions:
REMARK  status: ('A' for Active; 'I' for Inactive)
REMARK    1  A    between atoms: C_2  and  O_3 
REMARK    2  A    between atoms: O_3  and  C_4 
REMARK    3  A    between atoms: C_4  and  C_5 
REMARK    4  A    between atoms: C_6  and  O_7 
REMARK    5  A    between atoms: C_12  and  O_13 
REMARK    6  A    between atoms: C_17  and  C_18 
ROOT
HETATM    1  C   UNL     1      -6.901   1.054 -33.486  1.00  0.00     0.133 C 
HETATM    2  C   UNL     1      -7.857  -0.048 -34.051  1.00  0.00     0.073 C 
HETATM    3  C   UNL     1      -7.205  -1.439 -34.126  1.00  0.00     0.047 C 
HETATM    4  C   UNL     1      -9.203  -0.154 -33.276  1.00  0.00     0.097 C 
HETATM    5  C   UNL     1      -9.746   1.205 -33.046  1.00  0.00     0.042 A 
HETATM    6  C   UNL     1      -9.033   2.384 -33.027  1.00  0.00     0.030 A 
HETATM    7  C   UNL     1     -10.033   3.358 -32.863  1.00  0.00     0.190 A 
HETATM    8  N   UNL     1     -11.258   2.855 -32.760  1.00  0.00    -0.149 NA
HETATM    9  N   UNL     1     -11.060   1.531 -32.885  1.00  0.00    -0.279 N 
HETATM   10  H   UNL     1     -11.871   0.921 -32.871  1.00  0.00     0.189 HD
HETATM   11  C   UNL     1      -7.559   2.451 -33.258  1.00  0.00     0.074 C 
ENDROOT
BRANCH  11  12
HETATM   12  C   UNL     1      -6.969   3.294 -32.133  1.00  0.00    -0.048 A 
HETATM   13  C   UNL     1      -7.346   3.128 -30.783  1.00  0.00     0.011 A 
HETATM   14  C   UNL     1      -6.782   3.911 -29.777  1.00  0.00     0.043 A 
HETATM   15  C   UNL     1      -5.825   4.858 -30.106  1.00  0.00     0.116 A 
HETATM   16  F   UNL     1      -5.276   5.607 -29.141  1.00  0.00    -0.206 F 
HETATM   17  C   UNL     1      -5.422   5.035 -31.424  1.00  0.00     0.043 A 
HETATM   18  C   UNL     1      -5.988   4.254 -32.435  1.00  0.00     0.011 A 
ENDBRANCH  11  12
BRANCH   1  19
HETATM   19  C   UNL     1      -6.152   0.545 -32.270  1.00  0.00     0.267 C 
HETATM   20  O   UNL     1      -6.666   0.061 -31.273  1.00  0.00    -0.265 OA
BRANCH  19  21
HETATM   21  O   UNL     1      -4.810   0.664 -32.490  1.00  0.00    -0.316 OA
BRANCH  21  22
HETATM   22  C   UNL     1      -3.958   0.760 -31.334  1.00  0.00     0.123 C 
HETATM   23  C   UNL     1      -3.277   2.121 -31.312  1.00  0.00     0.040 C 
HETATM   24  C   UNL     1      -2.927  -0.357 -31.456  1.00  0.00     0.040 C 
ENDBRANCH  21  22
ENDBRANCH  19  21
ENDBRANCH   1  19
BRANCH   2  25
HETATM   25  O   UNL     1      -8.174   0.312 -35.416  1.00  0.00    -0.389 OA
HETATM   26  H   UNL     1      -7.367   0.640 -35.850  1.00  0.00     0.210 HD
ENDBRANCH   2  25
BRANCH   7  27
HETATM   27  O   UNL     1      -9.929   4.687 -32.795  1.00  0.00    -0.343 OA
HETATM   28  H   UNL     1      -9.019   4.949 -33.001  1.00  0.00     0.219 HD
ENDBRANCH   7  27
TORSDOF 6
ENDMDL
MODEL 8
REMARK VINA RESULT:      -6.5      3.331      5.243
REMARK  6 active torsions:
REMARK  status: ('A' for Active; 'I' for Inactive)
REMARK    1  A    between atoms: C_2  and  O_3 
REMARK    2  A    between atoms: O_3  and  C_4 
REMARK    3  A    between atoms: C_4  and  C_5 
REMARK    4  A    between atoms: C_6  and  O_7 
REMARK    5  A    between atoms: C_12  and  O_13 
REMARK    6  A    between atoms: C_17  and  C_18 
ROOT
HETATM    1  C   UNL     1      -6.361   1.056 -33.896  1.00  0.00     0.133 C 
HETATM    2  C   UNL     1      -7.636   0.225 -34.258  1.00  0.00     0.073 C 
HETATM    3  C   UNL     1      -7.474  -1.282 -33.997  1.00  0.00     0.047 C 
HETATM    4  C   UNL     1      -8.926   0.731 -33.549  1.00  0.00     0.097 C 
HETATM    5  C   UNL     1      -8.992   2.209 -33.647  1.00  0.00     0.042 A 
HETATM    6  C   UNL     1      -7.934   3.068 -33.846  1.00  0.00     0.030 A 
HETATM    7  C   UNL     1      -8.559   4.323 -33.948  1.00  0.00     0.190 A 
HETATM    8  N   UNL     1      -9.879   4.277 -33.803  1.00  0.00    -0.149 NA
HETATM    9  N   UNL     1     -10.125   2.967 -33.628  1.00  0.00    -0.279 N 
HETATM   10  H   UNL     1     -11.089   2.669 -33.524  1.00  0.00     0.189 HD
HETATM   11  C   UNL     1      -6.524   2.605 -34.009  1.00  0.00     0.074 C 
ENDROOT
BRANCH  11  12
HETATM   12  C   UNL     1      -5.668   3.439 -33.063  1.00  0.00    -0.048 A 
HETATM   13  C   UNL     1      -6.094   3.790 -31.765  1.00  0.00     0.011 A 
HETATM   14  C   UNL     1      -5.283   4.550 -30.923  1.00  0.00     0.043 A 
HETATM   15  C   UNL     1      -4.032   4.954 -31.362  1.00  0.00     0.116 A 
HETATM   16  F   UNL     1      -3.247   5.677 -30.552  1.00  0.00    -0.206 F 
HETATM   17  C   UNL     1      -3.578   4.611 -32.630  1.00  0.00     0.043 A 
HETATM   18  C   UNL     1      -4.390   3.854 -33.478  1.00  0.00     0.011 A 
ENDBRANCH  11  12
BRANCH   1  19
HETATM   19  C   UNL     1      -5.792   0.615 -32.562  1.00  0.00     0.267 C 
HETATM   20  O   UNL     1      -6.420   0.530 -31.517  1.00  0.00    -0.265 OA
BRANCH  19  21
HETATM   21  O   UNL     1      -4.480   0.276 -32.726  1.00  0.00    -0.316 OA
BRANCH  21  22
HETATM   22  C   UNL     1      -4.027  -0.934 -32.092  1.00  0.00     0.123 C 
HETATM   23  C   UNL     1      -2.606  -0.742 -31.582  1.00  0.00     0.040 C 
HETATM   24  C   UNL     1      -4.075  -2.028 -33.153  1.00  0.00     0.040 C 
ENDBRANCH  21  22
ENDBRANCH  19  21
ENDBRANCH   1  19
BRANCH   2  25
HETATM   25  O   UNL     1      -7.848   0.356 -35.683  1.00  0.00    -0.389 OA
HETATM   26  H   UNL     1      -8.079   1.280 -35.883  1.00  0.00     0.210 HD
ENDBRANCH   2  25
BRANCH   7  27
HETATM   27  O   UNL     1      -8.027   5.528 -34.163  1.00  0.00    -0.343 OA
HETATM   28  H   UNL     1      -8.735   6.167 -34.335  1.00  0.00     0.219 HD
ENDBRANCH   7  27
TORSDOF 6
ENDMDL
MODEL 9
REMARK VINA RESULT:      -6.5      2.909      4.804
REMARK  6 active torsions:
REMARK  status: ('A' for Active; 'I' for Inactive)
REMARK    1  A    between atoms: C_2  and  O_3 
REMARK    2  A    between atoms: O_3  and  C_4 
REMARK    3  A    between atoms: C_4  and  C_5 
REMARK    4  A    between atoms: C_6  and  O_7 
REMARK    5  A    between atoms: C_12  and  O_13 
REMARK    6  A    between atoms: C_17  and  C_18 
ROOT
HETATM    1  C   UNL     1      -5.590   2.914 -32.544  1.00  0.00     0.133 C 
HETATM    2  C   UNL     1      -4.131   2.971 -31.983  1.00  0.00     0.073 C 
HETATM    3  C   UNL     1      -3.870   4.194 -31.088  1.00  0.00     0.047 C 
HETATM    4  C   UNL     1      -3.711   1.680 -31.221  1.00  0.00     0.097 C 
HETATM    5  C   UNL     1      -4.124   0.491 -32.003  1.00  0.00     0.042 A 
HETATM    6  C   UNL     1      -5.121   0.436 -32.952  1.00  0.00     0.030 A 
HETATM    7  C   UNL     1      -5.028  -0.880 -33.436  1.00  0.00     0.190 A 
HETATM    8  N   UNL     1      -4.086  -1.603 -32.841  1.00  0.00    -0.149 NA
HETATM    9  N   UNL     1      -3.535  -0.738 -31.971  1.00  0.00    -0.279 N 
HETATM   10  H   UNL     1      -2.754  -1.056 -31.408  1.00  0.00     0.189 HD
HETATM   11  C   UNL     1      -5.945   1.619 -33.341  1.00  0.00     0.074 C 
ENDROOT
BRANCH  11  12
HETATM   12  C   UNL     1      -7.405   1.182 -33.293  1.00  0.00    -0.048 A 
HETATM   13  C   UNL     1      -8.320   1.484 -34.323  1.00  0.00     0.011 A 
HETATM   14  C   UNL     1      -9.648   1.064 -34.251  1.00  0.00     0.043 A 
HETATM   15  C   UNL     1     -10.072   0.325 -33.157  1.00  0.00     0.116 A 
HETATM   16  F   UNL     1     -11.344  -0.086 -33.088  1.00  0.00    -0.206 F 
HETATM   17  C   UNL     1      -9.189  -0.000 -32.133  1.00  0.00     0.043 A 
HETATM   18  C   UNL     1      -7.860   0.423 -32.201  1.00  0.00     0.011 A 
ENDBRANCH  11  12
BRANCH   1  19
HETATM   19  C   UNL     1      -6.597   3.238 -31.458  1.00  0.00     0.267 C 
HETATM   20  O   UNL     1      -6.621   2.739 -30.343  1.00  0.00    -0.265 OA
BRANCH  19  21
HETATM   21  O   UNL     1      -7.440   4.213 -31.907  1.00  0.00    -0.316 OA
BRANCH  21  22
HETATM   22  C   UNL     1      -7.002   4.997 -33.032  1.00  0.00     0.123 C 
HETATM   23  C   UNL     1      -6.568   6.376 -32.556  1.00  0.00     0.040 C 
HETATM   24  C   UNL     1      -8.191   5.104 -33.981  1.00  0.00     0.040 C 
ENDBRANCH  21  22
ENDBRANCH  19  21
ENDBRANCH   1  19
BRANCH   2  25
HETATM   25  O   UNL     1      -3.238   3.113 -33.112  1.00  0.00    -0.389 OA
HETATM   26  H   UNL     1      -2.339   3.291 -32.782  1.00  0.00     0.210 HD
ENDBRANCH   2  25
BRANCH   7  27
HETATM   27  O   UNL     1      -5.737  -1.494 -34.385  1.00  0.00    -0.343 OA
HETATM   28  H   UNL     1      -5.887  -2.417 -34.129  1.00  0.00     0.219 HD
ENDBRANCH   7  27
TORSDOF 6
ENDMDL
MODEL 10
REMARK VINA RESULT:      -6.4      3.696      5.259
REMARK  6 active torsions:
REMARK  status: ('A' for Active; 'I' for Inactive)
REMARK    1  A    between atoms: C_2  and  O_3 
REMARK    2  A    between atoms: O_3  and  C_4 
REMARK    3  A    between atoms: C_4  and  C_5 
REMARK    4  A    between atoms: C_6  and  O_7 
REMARK    5  A    between atoms: C_12  and  O_13 
REMARK    6  A    between atoms: C_17  and  C_18 
ROOT
HETATM    1  C   UNL     1      -6.858   3.302 -32.477  1.00  0.00     0.133 C 
HETATM    2  C   UNL     1      -7.698   2.826 -31.247  1.00  0.00     0.073 C 
HETATM    3  C   UNL     1      -8.399   1.477 -31.474  1.00  0.00     0.047 C 
HETATM    4  C   UNL     1      -6.876   2.759 -29.926  1.00  0.00     0.097 C 
HETATM    5  C   UNL     1      -6.058   3.989 -29.794  1.00  0.00     0.042 A 
HETATM    6  C   UNL     1      -5.655   4.822 -30.813  1.00  0.00     0.030 A 
HETATM    7  C   UNL     1      -4.997   5.862 -30.133  1.00  0.00     0.190 A 
HETATM    8  N   UNL     1      -4.960   5.699 -28.816  1.00  0.00    -0.149 NA
HETATM    9  N   UNL     1      -5.626   4.546 -28.627  1.00  0.00    -0.279 N 
HETATM   10  H   UNL     1      -5.760   4.219 -27.677  1.00  0.00     0.189 HD
HETATM   11  C   UNL     1      -6.013   4.595 -32.245  1.00  0.00     0.074 C 
ENDROOT
BRANCH  11  12
HETATM   12  C   UNL     1      -4.724   4.706 -33.051  1.00  0.00    -0.048 A 
HETATM   13  C   UNL     1      -3.467   4.339 -32.526  1.00  0.00     0.011 A 
HETATM   14  C   UNL     1      -2.308   4.448 -33.292  1.00  0.00     0.043 A 
HETATM   15  C   UNL     1      -2.393   4.909 -34.597  1.00  0.00     0.116 A 
HETATM   16  F   UNL     1      -1.282   5.007 -35.338  1.00  0.00    -0.206 F 
HETATM   17  C   UNL     1      -3.619   5.264 -35.148  1.00  0.00     0.043 A 
HETATM   18  C   UNL     1      -4.781   5.160 -34.380  1.00  0.00     0.011 A 
ENDBRANCH  11  12
BRANCH   1  19
HETATM   19  C   UNL     1      -6.045   2.157 -33.050  1.00  0.00     0.267 C 
HETATM   20  O   UNL     1      -6.078   1.776 -34.211  1.00  0.00    -0.265 OA
BRANCH  19  21
HETATM   21  O   UNL     1      -5.233   1.655 -32.075  1.00  0.00    -0.316 OA
BRANCH  21  22
HETATM   22  C   UNL     1      -4.562   0.411 -32.351  1.00  0.00     0.123 C 
HETATM   23  C   UNL     1      -5.452  -0.752 -31.937  1.00  0.00     0.040 C 
HETATM   24  C   UNL     1      -3.273   0.419 -31.538  1.00  0.00     0.040 C 
ENDBRANCH  21  22
ENDBRANCH  19  21
ENDBRANCH   1  19
BRANCH   2  25
HETATM   25  O   UNL     1      -8.757   3.791 -31.046  1.00  0.00    -0.389 OA
HETATM   26  H   UNL     1      -9.595   3.408 -31.361  1.00  0.00     0.210 HD
ENDBRANCH   2  25
BRANCH   7  27
HETATM   27  O   UNL     1      -4.417   6.964 -30.613  1.00  0.00    -0.343 OA
HETATM   28  H   UNL     1      -3.456   6.838 -30.634  1.00  0.00     0.219 HD
ENDBRANCH   7  27
TORSDOF 6
ENDMDL
