MODEL 1
REMARK VINA RESULT:      -9.7      0.000      0.000
REMARK  8 active torsions:
REMARK  status: ('A' for Active; 'I' for Inactive)
REMARK    1  A    between atoms: C_4  and  C_5 
REMARK    2  A    between atoms: C_5  and  C_6 
REMARK    3  A    between atoms: C_6  and  C_7 
REMARK    4  A    between atoms: C_7  and  N_8 
REMARK    5  A    between atoms: C_17  and  C_18 
REMARK    6  A    between atoms: C_18  and  N_19 
REMARK    7  A    between atoms: C_23  and  O_24 
REMARK    8  A    between atoms: C_23  and  C_25 
ROOT
HETATM    1  N   UNL     1     -10.127   1.039 -32.770  1.00  0.00    -0.065 N 
HETATM    2  H   UNL     1     -10.481   0.263 -32.195  1.00  0.00     0.280 HD
HETATM    3  C   UNL     1      -9.426   1.978 -31.808  1.00  0.00     0.276 C 
HETATM    4  C   UNL     1      -8.646   3.080 -32.472  1.00  0.00     0.001 A 
HETATM    5  C   UNL     1      -9.323   4.064 -33.196  1.00  0.00     0.076 A 
HETATM    6  O   UNL     1     -10.684   4.030 -33.307  1.00  0.00    -0.349 OA
HETATM    7  C   UNL     1     -11.111   2.955 -34.159  1.00  0.00     0.203 C 
HETATM    8  C   UNL     1     -11.389   1.677 -33.358  1.00  0.00     0.261 C 
HETATM    9  C   UNL     1      -7.242   3.145 -32.404  1.00  0.00     0.020 A 
HETATM   10  C   UNL     1      -6.529   4.176 -33.050  1.00  0.00    -0.032 A 
HETATM   11  C   UNL     1      -7.246   5.172 -33.729  1.00  0.00     0.011 A 
HETATM   12  C   UNL     1      -8.640   5.120 -33.789  1.00  0.00     0.038 A 
ENDROOT
BRANCH  10  13
HETATM   13  C   UNL     1      -5.018   4.187 -33.047  1.00  0.00     0.273 C 
BRANCH  13  14
HETATM   14  N   UNL     1      -4.369   5.558 -33.079  1.00  0.00    -0.067 N 
HETATM   15  H   UNL     1      -4.994   6.170 -33.625  1.00  0.00     0.280 HD
HETATM   16  C   UNL     1      -4.233   6.174 -31.707  1.00  0.00     0.238 C 
HETATM   17  C   UNL     1      -3.543   7.521 -31.807  1.00  0.00     0.071 C 
HETATM   18  C   UNL     1      -2.135   7.401 -32.421  1.00  0.00     0.089 C 
HETATM   19  C   UNL     1      -2.334   6.815 -33.832  1.00  0.00     0.071 C 
HETATM   20  C   UNL     1      -3.054   5.476 -33.825  1.00  0.00     0.238 C 
BRANCH  18  21
HETATM   21  O   UNL     1      -1.657   8.733 -32.604  1.00  0.00    -0.385 OA
HETATM   22  H   UNL     1      -0.777   8.836 -32.194  1.00  0.00     0.211 HD
ENDBRANCH  18  21
BRANCH  18  23
HETATM   23  C   UNL     1      -1.158   6.661 -31.514  1.00  0.00    -0.006 A 
HETATM   24  C   UNL     1      -0.498   5.492 -31.890  1.00  0.00     0.126 A 
HETATM   25  N   UNL     1       0.305   4.768 -31.081  1.00  0.00    -0.272 NA
HETATM   26  C   UNL     1       0.558   5.261 -29.854  1.00  0.00     0.116 A 
HETATM   27  C   UNL     1       0.018   6.446 -29.394  1.00  0.00     0.020 A 
HETATM   28  C   UNL     1      -0.843   7.150 -30.235  1.00  0.00     0.013 A 
ENDBRANCH  18  23
ENDBRANCH  13  14
ENDBRANCH  10  13
BRANCH   1  29
HETATM   29  C   UNL     1      -9.243   0.397 -33.833  1.00  0.00     0.236 C 
BRANCH  29  30
HETATM   30  C   UNL     1      -8.065  -0.347 -33.196  1.00  0.00     0.039 C 
BRANCH  30  31
HETATM   31  C   UNL     1      -6.708  -0.132 -33.896  1.00  0.00     0.040 C 
HETATM   32  C   UNL     1      -6.830   0.701 -35.176  1.00  0.00     0.017 C 
BRANCH  31  33
HETATM   33  C   UNL     1      -5.995  -1.412 -34.153  1.00  0.00     0.057 A 
HETATM   34  O   UNL     1      -6.729  -2.436 -34.673  1.00  0.00    -0.319 OA
HETATM   35  C   UNL     1      -5.875  -3.484 -34.854  1.00  0.00     0.049 A 
HETATM   36  C   UNL     1      -6.438  -4.719 -35.439  1.00  0.00     0.076 C 
HETATM   37  C   UNL     1      -4.606  -3.139 -34.444  1.00  0.00     0.035 A 
HETATM   38  C   UNL     1      -4.683  -1.801 -33.990  1.00  0.00     0.035 A 
ENDBRANCH  31  33
ENDBRANCH  30  31
ENDBRANCH  29  30
ENDBRANCH   1  29
TORSDOF 8
ENDMDL
MODEL 2
REMARK VINA RESULT:      -9.6      1.468      1.799
REMARK  8 active torsions:
REMARK  status: ('A' for Active; 'I' for Inactive)
REMARK    1  A    between atoms: C_4  and  C_5 
REMARK    2  A    between atoms: C_5  and  C_6 
REMARK    3  A    between atoms: C_6  and  C_7 
REMARK    4  A    between atoms: C_7  and  N_8 
REMARK    5  A    between atoms: C_17  and  C_18 
REMARK    6  A    between atoms: C_18  and  N_19 
REMARK    7  A    between atoms: C_23  and  O_24 
REMARK    8  A    between atoms: C_23  and  C_25 
ROOT
HETATM    1  N   UNL     1      -9.357   0.402 -33.548  1.00  0.00    -0.065 N 
HETATM    2  H   UNL     1      -9.545  -0.601 -33.674  1.00  0.00     0.280 HD
HETATM    3  C   UNL     1      -8.973   0.569 -32.091  1.00  0.00     0.276 C 
HETATM    4  C   UNL     1      -8.447   1.933 -31.737  1.00  0.00     0.001 A 
HETATM    5  C   UNL     1      -9.297   3.039 -31.809  1.00  0.00     0.076 A 
HETATM    6  O   UNL     1     -10.598   2.889 -32.199  1.00  0.00    -0.349 OA
HETATM    7  C   UNL     1     -10.691   2.590 -33.601  1.00  0.00     0.203 C 
HETATM    8  C   UNL     1     -10.696   1.077 -33.855  1.00  0.00     0.261 C 
HETATM    9  C   UNL     1      -7.110   2.140 -31.352  1.00  0.00     0.020 A 
HETATM   10  C   UNL     1      -6.632   3.430 -31.044  1.00  0.00    -0.032 A 
HETATM   11  C   UNL     1      -7.527   4.510 -31.081  1.00  0.00     0.011 A 
HETATM   12  C   UNL     1      -8.859   4.309 -31.451  1.00  0.00     0.038 A 
ENDROOT
BRANCH  10  13
HETATM   13  C   UNL     1      -5.174   3.655 -30.718  1.00  0.00     0.273 C 
BRANCH  13  14
HETATM   14  N   UNL     1      -4.381   4.434 -31.751  1.00  0.00    -0.067 N 
HETATM   15  H   UNL     1      -4.977   4.508 -32.589  1.00  0.00     0.280 HD
HETATM   16  C   UNL     1      -4.064   5.842 -31.307  1.00  0.00     0.238 C 
HETATM   17  C   UNL     1      -3.239   6.549 -32.366  1.00  0.00     0.071 C 
HETATM   18  C   UNL     1      -1.909   5.820 -32.637  1.00  0.00     0.089 C 
HETATM   19  C   UNL     1      -2.287   4.411 -33.132  1.00  0.00     0.071 C 
HETATM   20  C   UNL     1      -3.149   3.644 -32.142  1.00  0.00     0.238 C 
BRANCH  18  21
HETATM   21  O   UNL     1      -1.302   6.484 -33.746  1.00  0.00    -0.385 OA
HETATM   22  H   UNL     1      -0.459   6.050 -33.980  1.00  0.00     0.211 HD
ENDBRANCH  18  21
BRANCH  18  23
HETATM   23  C   UNL     1      -0.949   5.885 -31.455  1.00  0.00    -0.006 A 
HETATM   24  C   UNL     1      -0.284   4.771 -30.944  1.00  0.00     0.126 A 
HETATM   25  N   UNL     1       0.503   4.781 -29.848  1.00  0.00    -0.272 NA
HETATM   26  C   UNL     1       0.736   5.970 -29.260  1.00  0.00     0.116 A 
HETATM   27  C   UNL     1       0.191   7.154 -29.717  1.00  0.00     0.020 A 
HETATM   28  C   UNL     1      -0.654   7.107 -30.825  1.00  0.00     0.013 A 
ENDBRANCH  18  23
ENDBRANCH  13  14
ENDBRANCH  10  13
BRANCH   1  29
HETATM   29  C   UNL     1      -8.275   0.753 -34.563  1.00  0.00     0.236 C 
BRANCH  29  30
HETATM   30  C   UNL     1      -7.514  -0.499 -35.011  1.00  0.00     0.039 C 
BRANCH  30  31
HETATM   31  C   UNL     1      -6.566  -1.095 -33.950  1.00  0.00     0.040 C 
HETATM   32  C   UNL     1      -5.362  -0.193 -33.662  1.00  0.00     0.017 C 
BRANCH  31  33
HETATM   33  C   UNL     1      -6.134  -2.477 -34.290  1.00  0.00     0.057 A 
HETATM   34  O   UNL     1      -4.874  -2.840 -33.921  1.00  0.00    -0.319 OA
HETATM   35  C   UNL     1      -4.708  -4.141 -34.299  1.00  0.00     0.049 A 
HETATM   36  C   UNL     1      -3.412  -4.775 -33.979  1.00  0.00     0.076 C 
HETATM   37  C   UNL     1      -5.850  -4.604 -34.914  1.00  0.00     0.035 A 
HETATM   38  C   UNL     1      -6.771  -3.531 -34.910  1.00  0.00     0.035 A 
ENDBRANCH  31  33
ENDBRANCH  30  31
ENDBRANCH  29  30
ENDBRANCH   1  29
TORSDOF 8
ENDMDL
MODEL 3
REMARK VINA RESULT:      -9.5      1.508      2.296
REMARK  8 active torsions:
REMARK  status: ('A' for Active; 'I' for Inactive)
REMARK    1  A    between atoms: C_4  and  C_5 
REMARK    2  A    between atoms: C_5  and  C_6 
REMARK    3  A    between atoms: C_6  and  C_7 
REMARK    4  A    between atoms: C_7  and  N_8 
REMARK    5  A    between atoms: C_17  and  C_18 
REMARK    6  A    between atoms: C_18  and  N_19 
REMARK    7  A    between atoms: C_23  and  O_24 
REMARK    8  A    between atoms: C_23  and  C_25 
ROOT
HETATM    1  N   UNL     1      -8.551   0.045 -32.853  1.00  0.00    -0.065 N 
HETATM    2  H   UNL     1      -8.637  -0.815 -32.295  1.00  0.00     0.280 HD
HETATM    3  C   UNL     1      -7.905   1.067 -31.938  1.00  0.00     0.276 C 
HETATM    4  C   UNL     1      -7.489   2.341 -32.623  1.00  0.00     0.001 A 
HETATM    5  C   UNL     1      -8.465   3.189 -33.151  1.00  0.00     0.076 A 
HETATM    6  O   UNL     1      -9.790   2.868 -33.053  1.00  0.00    -0.349 OA
HETATM    7  C   UNL     1     -10.125   1.768 -33.913  1.00  0.00     0.203 C 
HETATM    8  C   UNL     1      -9.997   0.424 -33.185  1.00  0.00     0.261 C 
HETATM    9  C   UNL     1      -6.137   2.702 -32.768  1.00  0.00     0.020 A 
HETATM   10  C   UNL     1      -5.769   3.891 -33.431  1.00  0.00    -0.032 A 
HETATM   11  C   UNL     1      -6.778   4.741 -33.907  1.00  0.00     0.011 A 
HETATM   12  C   UNL     1      -8.122   4.394 -33.755  1.00  0.00     0.038 A 
ENDROOT
BRANCH  10  13
HETATM   13  C   UNL     1      -4.314   4.225 -33.660  1.00  0.00     0.273 C 
BRANCH  13  14
HETATM   14  N   UNL     1      -3.925   5.672 -33.421  1.00  0.00    -0.067 N 
HETATM   15  H   UNL     1      -4.546   6.249 -34.008  1.00  0.00     0.280 HD
HETATM   16  C   UNL     1      -4.137   6.107 -31.991  1.00  0.00     0.238 C 
HETATM   17  C   UNL     1      -3.693   7.547 -31.812  1.00  0.00     0.071 C 
HETATM   18  C   UNL     1      -2.202   7.734 -32.154  1.00  0.00     0.089 C 
HETATM   19  C   UNL     1      -2.049   7.324 -33.631  1.00  0.00     0.071 C 
HETATM   20  C   UNL     1      -2.508   5.901 -33.906  1.00  0.00     0.238 C 
BRANCH  18  21
HETATM   21  O   UNL     1      -1.946   9.137 -32.099  1.00  0.00    -0.385 OA
HETATM   22  H   UNL     1      -2.438   9.598 -32.805  1.00  0.00     0.211 HD
ENDBRANCH  18  21
BRANCH  18  23
HETATM   23  C   UNL     1      -1.278   7.037 -31.161  1.00  0.00    -0.006 A 
HETATM   24  C   UNL     1      -1.487   7.046 -29.783  1.00  0.00     0.126 A 
HETATM   25  N   UNL     1      -0.643   6.513 -28.874  1.00  0.00    -0.272 NA
HETATM   26  C   UNL     1       0.431   5.846 -29.339  1.00  0.00     0.116 A 
HETATM   27  C   UNL     1       0.705   5.708 -30.685  1.00  0.00     0.020 A 
HETATM   28  C   UNL     1      -0.160   6.307 -31.599  1.00  0.00     0.013 A 
ENDBRANCH  18  23
ENDBRANCH  13  14
ENDBRANCH  10  13
BRANCH   1  29
HETATM   29  C   UNL     1      -7.747  -0.341 -34.089  1.00  0.00     0.236 C 
BRANCH  29  30
HETATM   30  C   UNL     1      -7.140  -1.740 -33.936  1.00  0.00     0.039 C 
BRANCH  30  31
HETATM   31  C   UNL     1      -5.709  -1.889 -34.494  1.00  0.00     0.040 C 
HETATM   32  C   UNL     1      -5.489  -3.228 -35.203  1.00  0.00     0.017 C 
BRANCH  31  33
HETATM   33  C   UNL     1      -4.670  -1.651 -33.456  1.00  0.00     0.057 A 
HETATM   34  O   UNL     1      -4.549  -0.379 -32.981  1.00  0.00    -0.319 OA
HETATM   35  C   UNL     1      -3.572  -0.402 -32.030  1.00  0.00     0.049 A 
HETATM   36  C   UNL     1      -3.273   0.871 -31.341  1.00  0.00     0.076 C 
HETATM   37  C   UNL     1      -3.064  -1.675 -31.903  1.00  0.00     0.035 A 
HETATM   38  C   UNL     1      -3.771  -2.482 -32.824  1.00  0.00     0.035 A 
ENDBRANCH  31  33
ENDBRANCH  30  31
ENDBRANCH  29  30
ENDBRANCH   1  29
TORSDOF 8
ENDMDL
MODEL 4
REMARK VINA RESULT:      -9.4      2.747      9.243
REMARK  8 active torsions:
REMARK  status: ('A' for Active; 'I' for Inactive)
REMARK    1  A    between atoms: C_4  and  C_5 
REMARK    2  A    between atoms: C_5  and  C_6 
REMARK    3  A    between atoms: C_6  and  C_7 
REMARK    4  A    between atoms: C_7  and  N_8 
REMARK    5  A    between atoms: C_17  and  C_18 
REMARK    6  A    between atoms: C_18  and  N_19 
REMARK    7  A    between atoms: C_23  and  O_24 
REMARK    8  A    between atoms: C_23  and  C_25 
ROOT
HETATM    1  N   UNL     1      -4.220  -0.058 -31.296  1.00  0.00    -0.065 N 
HETATM    2  H   UNL     1      -3.932  -0.089 -30.309  1.00  0.00     0.280 HD
HETATM    3  C   UNL     1      -5.699  -0.388 -31.304  1.00  0.00     0.276 C 
HETATM    4  C   UNL     1      -6.375  -0.189 -32.634  1.00  0.00     0.001 A 
HETATM    5  C   UNL     1      -6.021  -1.000 -33.714  1.00  0.00     0.076 A 
HETATM    6  O   UNL     1      -5.067  -1.968 -33.572  1.00  0.00    -0.349 OA
HETATM    7  C   UNL     1      -3.758  -1.393 -33.434  1.00  0.00     0.203 C 
HETATM    8  C   UNL     1      -3.395  -1.163 -31.962  1.00  0.00     0.261 C 
HETATM    9  C   UNL     1      -7.346   0.809 -32.834  1.00  0.00     0.020 A 
HETATM   10  C   UNL     1      -7.952   0.992 -34.093  1.00  0.00    -0.032 A 
HETATM   11  C   UNL     1      -7.606   0.128 -35.143  1.00  0.00     0.011 A 
HETATM   12  C   UNL     1      -6.652  -0.873 -34.947  1.00  0.00     0.038 A 
ENDROOT
BRANCH  10  13
HETATM   13  C   UNL     1      -8.927   2.122 -34.323  1.00  0.00     0.273 C 
BRANCH  13  14
HETATM   14  N   UNL     1     -10.353   1.709 -34.640  1.00  0.00    -0.067 N 
HETATM   15  H   UNL     1     -10.294   0.924 -35.305  1.00  0.00     0.280 HD
HETATM   16  C   UNL     1     -11.101   1.208 -33.428  1.00  0.00     0.238 C 
HETATM   17  C   UNL     1     -12.526   0.850 -33.806  1.00  0.00     0.071 C 
HETATM   18  C   UNL     1     -13.290   2.062 -34.375  1.00  0.00     0.089 C 
HETATM   19  C   UNL     1     -12.515   2.503 -35.631  1.00  0.00     0.071 C 
HETATM   20  C   UNL     1     -11.062   2.846 -35.346  1.00  0.00     0.238 C 
BRANCH  18  21
HETATM   21  O   UNL     1     -14.549   1.569 -34.832  1.00  0.00    -0.385 OA
HETATM   22  H   UNL     1     -15.149   1.422 -34.076  1.00  0.00     0.211 HD
ENDBRANCH  18  21
BRANCH  18  23
HETATM   23  C   UNL     1     -13.548   3.140 -33.328  1.00  0.00    -0.006 A 
HETATM   24  C   UNL     1     -13.244   4.486 -33.522  1.00  0.00     0.126 A 
HETATM   25  N   UNL     1     -13.380   5.449 -32.585  1.00  0.00    -0.272 NA
HETATM   26  C   UNL     1     -13.936   5.097 -31.410  1.00  0.00     0.116 A 
HETATM   27  C   UNL     1     -14.343   3.809 -31.126  1.00  0.00     0.020 A 
HETATM   28  C   UNL     1     -14.149   2.827 -32.097  1.00  0.00     0.013 A 
ENDBRANCH  18  23
ENDBRANCH  13  14
ENDBRANCH  10  13
BRANCH   1  29
HETATM   29  C   UNL     1      -3.848   1.334 -31.793  1.00  0.00     0.236 C 
BRANCH  29  30
HETATM   30  C   UNL     1      -4.456   2.420 -30.900  1.00  0.00     0.039 C 
BRANCH  30  31
HETATM   31  C   UNL     1      -4.529   3.820 -31.542  1.00  0.00     0.040 C 
HETATM   32  C   UNL     1      -5.573   3.903 -32.659  1.00  0.00     0.017 C 
BRANCH  31  33
HETATM   33  C   UNL     1      -3.200   4.298 -32.010  1.00  0.00     0.057 A 
HETATM   34  O   UNL     1      -3.053   4.506 -33.349  1.00  0.00    -0.319 OA
HETATM   35  C   UNL     1      -1.784   4.966 -33.543  1.00  0.00     0.049 A 
HETATM   36  C   UNL     1      -1.391   5.293 -34.930  1.00  0.00     0.076 C 
HETATM   37  C   UNL     1      -1.119   5.044 -32.340  1.00  0.00     0.035 A 
HETATM   38  C   UNL     1      -2.032   4.611 -31.350  1.00  0.00     0.035 A 
ENDBRANCH  31  33
ENDBRANCH  30  31
ENDBRANCH  29  30
ENDBRANCH   1  29
TORSDOF 8
ENDMDL
MODEL 5
REMARK VINA RESULT:      -9.0      1.902      2.592
REMARK  8 active torsions:
REMARK  status: ('A' for Active; 'I' for Inactive)
REMARK    1  A    between atoms: C_4  and  C_5 
REMARK    2  A    between atoms: C_5  and  C_6 
REMARK    3  A    between atoms: C_6  and  C_7 
REMARK    4  A    between atoms: C_7  and  N_8 
REMARK    5  A    between atoms: C_17  and  C_18 
REMARK    6  A    between atoms: C_18  and  N_19 
REMARK    7  A    between atoms: C_23  and  O_24 
REMARK    8  A    between atoms: C_23  and  C_25 
ROOT
HETATM    1  N   UNL     1      -8.141   1.892 -31.014  1.00  0.00    -0.065 N 
HETATM    2  H   UNL     1      -8.217   1.036 -30.447  1.00  0.00     0.280 HD
HETATM    3  C   UNL     1      -6.809   2.513 -30.644  1.00  0.00     0.276 C 
HETATM    4  C   UNL     1      -6.397   3.668 -31.517  1.00  0.00     0.001 A 
HETATM    5  C   UNL     1      -7.141   4.849 -31.492  1.00  0.00     0.076 A 
HETATM    6  O   UNL     1      -8.237   4.962 -30.684  1.00  0.00    -0.349 OA
HETATM    7  C   UNL     1      -9.326   4.159 -31.168  1.00  0.00     0.203 C 
HETATM    8  C   UNL     1      -9.314   2.758 -30.544  1.00  0.00     0.261 C 
HETATM    9  C   UNL     1      -5.290   3.591 -32.381  1.00  0.00     0.020 A 
HETATM   10  C   UNL     1      -4.933   4.678 -33.205  1.00  0.00    -0.032 A 
HETATM   11  C   UNL     1      -5.675   5.865 -33.118  1.00  0.00     0.011 A 
HETATM   12  C   UNL     1      -6.768   5.952 -32.253  1.00  0.00     0.038 A 
ENDROOT
BRANCH  10  13
HETATM   13  C   UNL     1      -3.797   4.555 -34.194  1.00  0.00     0.273 C 
BRANCH  13  14
HETATM   14  N   UNL     1      -2.450   5.063 -33.716  1.00  0.00    -0.067 N 
HETATM   15  H   UNL     1      -1.735   4.607 -34.302  1.00  0.00     0.280 HD
HETATM   16  C   UNL     1      -2.287   6.553 -33.898  1.00  0.00     0.238 C 
HETATM   17  C   UNL     1      -0.938   6.999 -33.365  1.00  0.00     0.071 C 
HETATM   18  C   UNL     1      -0.778   6.678 -31.867  1.00  0.00     0.089 C 
HETATM   19  C   UNL     1      -0.904   5.147 -31.742  1.00  0.00     0.071 C 
HETATM   20  C   UNL     1      -2.217   4.611 -32.289  1.00  0.00     0.238 C 
BRANCH  18  21
HETATM   21  O   UNL     1       0.570   6.998 -31.525  1.00  0.00    -0.385 OA
HETATM   22  H   UNL     1       0.651   7.136 -30.562  1.00  0.00     0.211 HD
ENDBRANCH  18  21
BRANCH  18  23
HETATM   23  C   UNL     1      -1.707   7.505 -30.985  1.00  0.00    -0.006 A 
HETATM   24  C   UNL     1      -2.208   7.055 -29.764  1.00  0.00     0.126 A 
HETATM   25  N   UNL     1      -3.097   7.727 -29.003  1.00  0.00    -0.272 NA
HETATM   26  C   UNL     1      -3.455   8.961 -29.408  1.00  0.00     0.116 A 
HETATM   27  C   UNL     1      -2.970   9.542 -30.563  1.00  0.00     0.020 A 
HETATM   28  C   UNL     1      -2.087   8.807 -31.352  1.00  0.00     0.013 A 
ENDBRANCH  18  23
ENDBRANCH  13  14
ENDBRANCH  10  13
BRANCH   1  29
HETATM   29  C   UNL     1      -8.285   1.443 -32.463  1.00  0.00     0.236 C 
BRANCH  29  30
HETATM   30  C   UNL     1      -7.566   0.112 -32.703  1.00  0.00     0.039 C 
BRANCH  30  31
HETATM   31  C   UNL     1      -6.670   0.078 -33.958  1.00  0.00     0.040 C 
HETATM   32  C   UNL     1      -7.420   0.486 -35.229  1.00  0.00     0.017 C 
BRANCH  31  33
HETATM   33  C   UNL     1      -5.990  -1.234 -34.132  1.00  0.00     0.057 A 
HETATM   34  O   UNL     1      -6.713  -2.234 -34.711  1.00  0.00    -0.319 OA
HETATM   35  C   UNL     1      -5.891  -3.319 -34.799  1.00  0.00     0.049 A 
HETATM   36  C   UNL     1      -6.448  -4.537 -35.425  1.00  0.00     0.076 C 
HETATM   37  C   UNL     1      -4.655  -3.021 -34.270  1.00  0.00     0.035 A 
HETATM   38  C   UNL     1      -4.718  -1.676 -33.839  1.00  0.00     0.035 A 
ENDBRANCH  31  33
ENDBRANCH  30  31
ENDBRANCH  29  30
ENDBRANCH   1  29
TORSDOF 8
ENDMDL
MODEL 6
REMARK VINA RESULT:      -8.8      1.657      2.413
REMARK  8 active torsions:
REMARK  status: ('A' for Active; 'I' for Inactive)
REMARK    1  A    between atoms: C_4  and  C_5 
REMARK    2  A    between atoms: C_5  and  C_6 
REMARK    3  A    between atoms: C_6  and  C_7 
REMARK    4  A    between atoms: C_7  and  N_8 
REMARK    5  A    between atoms: C_17  and  C_18 
REMARK    6  A    between atoms: C_18  and  N_19 
REMARK    7  A    between atoms: C_23  and  O_24 
REMARK    8  A    between atoms: C_23  and  C_25 
ROOT
HETATM    1  N   UNL     1      -9.186   0.723 -33.192  1.00  0.00    -0.065 N 
HETATM    2  H   UNL     1      -9.306  -0.298 -33.192  1.00  0.00     0.280 HD
HETATM    3  C   UNL     1      -9.046   1.121 -31.736  1.00  0.00     0.276 C 
HETATM    4  C   UNL     1      -8.645   2.555 -31.518  1.00  0.00     0.001 A 
HETATM    5  C   UNL     1      -9.523   3.578 -31.882  1.00  0.00     0.076 A 
HETATM    6  O   UNL     1     -10.738   3.285 -32.435  1.00  0.00    -0.349 OA
HETATM    7  C   UNL     1     -10.594   2.784 -33.774  1.00  0.00     0.203 C 
HETATM    8  C   UNL     1     -10.490   1.254 -33.795  1.00  0.00     0.261 C 
HETATM    9  C   UNL     1      -7.396   2.905 -30.972  1.00  0.00     0.020 A 
HETATM   10  C   UNL     1      -7.033   4.255 -30.795  1.00  0.00    -0.032 A 
HETATM   11  C   UNL     1      -7.959   5.255 -31.129  1.00  0.00     0.011 A 
HETATM   12  C   UNL     1      -9.205   4.913 -31.659  1.00  0.00     0.038 A 
ENDROOT
BRANCH  10  13
HETATM   13  C   UNL     1      -5.657   4.624 -30.293  1.00  0.00     0.273 C 
BRANCH  13  14
HETATM   14  N   UNL     1      -4.991   5.794 -30.992  1.00  0.00    -0.067 N 
HETATM   15  H   UNL     1      -5.747   6.367 -31.397  1.00  0.00     0.280 HD
HETATM   16  C   UNL     1      -4.220   6.682 -30.046  1.00  0.00     0.238 C 
HETATM   17  C   UNL     1      -3.550   7.806 -30.814  1.00  0.00     0.071 C 
HETATM   18  C   UNL     1      -2.570   7.270 -31.875  1.00  0.00     0.089 C 
HETATM   19  C   UNL     1      -3.412   6.413 -32.840  1.00  0.00     0.071 C 
HETATM   20  C   UNL     1      -4.150   5.282 -32.143  1.00  0.00     0.238 C 
BRANCH  18  21
HETATM   21  O   UNL     1      -2.127   8.401 -32.625  1.00  0.00    -0.385 OA
HETATM   22  H   UNL     1      -2.694   9.174 -32.438  1.00  0.00     0.211 HD
ENDBRANCH  18  21
BRANCH  18  23
HETATM   23  C   UNL     1      -1.349   6.593 -31.262  1.00  0.00    -0.006 A 
HETATM   24  C   UNL     1      -0.826   5.388 -31.727  1.00  0.00     0.126 A 
HETATM   25  N   UNL     1       0.198   4.721 -31.152  1.00  0.00    -0.272 NA
HETATM   26  C   UNL     1       0.817   5.311 -30.112  1.00  0.00     0.116 A 
HETATM   27  C   UNL     1       0.434   6.538 -29.606  1.00  0.00     0.020 A 
HETATM   28  C   UNL     1      -0.655   7.182 -30.191  1.00  0.00     0.013 A 
ENDBRANCH  18  23
ENDBRANCH  13  14
ENDBRANCH  10  13
BRANCH   1  29
HETATM   29  C   UNL     1      -7.975   0.999 -34.075  1.00  0.00     0.236 C 
BRANCH  29  30
HETATM   30  C   UNL     1      -7.660  -0.204 -34.970  1.00  0.00     0.039 C 
BRANCH  30  31
HETATM   31  C   UNL     1      -6.358  -0.950 -34.618  1.00  0.00     0.040 C 
HETATM   32  C   UNL     1      -6.520  -2.473 -34.658  1.00  0.00     0.017 C 
BRANCH  31  33
HETATM   33  C   UNL     1      -5.784  -0.504 -33.320  1.00  0.00     0.057 A 
HETATM   34  O   UNL     1      -4.838   0.476 -33.365  1.00  0.00    -0.319 OA
HETATM   35  C   UNL     1      -4.483   0.746 -32.076  1.00  0.00     0.049 A 
HETATM   36  C   UNL     1      -3.478   1.807 -31.862  1.00  0.00     0.076 C 
HETATM   37  C   UNL     1      -5.188  -0.063 -31.211  1.00  0.00     0.035 A 
HETATM   38  C   UNL     1      -6.027  -0.871 -32.013  1.00  0.00     0.035 A 
ENDBRANCH  31  33
ENDBRANCH  30  31
ENDBRANCH  29  30
ENDBRANCH   1  29
TORSDOF 8
ENDMDL
MODEL 7
REMARK VINA RESULT:      -8.7      1.997      5.059
REMARK  8 active torsions:
REMARK  status: ('A' for Active; 'I' for Inactive)
REMARK    1  A    between atoms: C_4  and  C_5 
REMARK    2  A    between atoms: C_5  and  C_6 
REMARK    3  A    between atoms: C_6  and  C_7 
REMARK    4  A    between atoms: C_7  and  N_8 
REMARK    5  A    between atoms: C_17  and  C_18 
REMARK    6  A    between atoms: C_18  and  N_19 
REMARK    7  A    between atoms: C_23  and  O_24 
REMARK    8  A    between atoms: C_23  and  C_25 
ROOT
HETATM    1  N   UNL     1      -8.295   1.174 -33.690  1.00  0.00    -0.065 N 
HETATM    2  H   UNL     1      -9.085   1.582 -34.206  1.00  0.00     0.280 HD
HETATM    3  C   UNL     1      -7.048   1.804 -34.277  1.00  0.00     0.276 C 
HETATM    4  C   UNL     1      -5.783   1.506 -33.519  1.00  0.00     0.001 A 
HETATM    5  C   UNL     1      -5.299   0.197 -33.477  1.00  0.00     0.076 A 
HETATM    6  O   UNL     1      -5.966  -0.811 -34.115  1.00  0.00    -0.349 OA
HETATM    7  C   UNL     1      -7.195  -1.128 -33.444  1.00  0.00     0.203 C 
HETATM    8  C   UNL     1      -8.371  -0.322 -34.010  1.00  0.00     0.261 C 
HETATM    9  C   UNL     1      -5.074   2.505 -32.829  1.00  0.00     0.020 A 
HETATM   10  C   UNL     1      -3.901   2.200 -32.108  1.00  0.00    -0.032 A 
HETATM   11  C   UNL     1      -3.419   0.882 -32.127  1.00  0.00     0.011 A 
HETATM   12  C   UNL     1      -4.111  -0.112 -32.821  1.00  0.00     0.038 A 
ENDROOT
BRANCH  10  13
HETATM   13  C   UNL     1      -3.196   3.261 -31.297  1.00  0.00     0.273 C 
BRANCH  13  14
HETATM   14  N   UNL     1      -2.968   4.586 -32.001  1.00  0.00    -0.067 N 
HETATM   15  H   UNL     1      -3.392   4.502 -32.936  1.00  0.00     0.280 HD
HETATM   16  C   UNL     1      -3.645   5.743 -31.308  1.00  0.00     0.238 C 
HETATM   17  C   UNL     1      -3.344   7.038 -32.039  1.00  0.00     0.071 C 
HETATM   18  C   UNL     1      -1.831   7.328 -32.092  1.00  0.00     0.089 C 
HETATM   19  C   UNL     1      -1.195   6.146 -32.848  1.00  0.00     0.071 C 
HETATM   20  C   UNL     1      -1.481   4.801 -32.199  1.00  0.00     0.238 C 
BRANCH  18  21
HETATM   21  O   UNL     1      -1.667   8.473 -32.928  1.00  0.00    -0.385 OA
HETATM   22  H   UNL     1      -0.833   8.933 -32.712  1.00  0.00     0.211 HD
ENDBRANCH  18  21
BRANCH  18  23
HETATM   23  C   UNL     1      -1.244   7.646 -30.721  1.00  0.00    -0.006 A 
HETATM   24  C   UNL     1      -1.880   8.459 -29.785  1.00  0.00     0.126 A 
HETATM   25  N   UNL     1      -1.349   8.828 -28.599  1.00  0.00    -0.272 NA
HETATM   26  C   UNL     1      -0.159   8.298 -28.260  1.00  0.00     0.116 A 
HETATM   27  C   UNL     1       0.535   7.424 -29.074  1.00  0.00     0.020 A 
HETATM   28  C   UNL     1      -0.018   7.096 -30.311  1.00  0.00     0.013 A 
ENDBRANCH  18  23
ENDBRANCH  13  14
ENDBRANCH  10  13
BRANCH   1  29
HETATM   29  C   UNL     1      -8.561   1.474 -32.219  1.00  0.00     0.236 C 
BRANCH  29  30
HETATM   30  C   UNL     1      -9.784   2.382 -32.054  1.00  0.00     0.039 C 
BRANCH  30  31
HETATM   31  C   UNL     1     -10.583   2.633 -33.349  1.00  0.00     0.040 C 
HETATM   32  C   UNL     1     -10.825   4.122 -33.613  1.00  0.00     0.017 C 
BRANCH  31  33
HETATM   33  C   UNL     1     -11.856   1.865 -33.387  1.00  0.00     0.057 A 
HETATM   34  O   UNL     1     -12.964   2.478 -32.882  1.00  0.00    -0.319 OA
HETATM   35  C   UNL     1     -14.006   1.614 -33.048  1.00  0.00     0.049 A 
HETATM   36  C   UNL     1     -15.338   2.070 -32.597  1.00  0.00     0.076 C 
HETATM   37  C   UNL     1     -13.569   0.453 -33.645  1.00  0.00     0.035 A 
HETATM   38  C   UNL     1     -12.181   0.613 -33.863  1.00  0.00     0.035 A 
ENDBRANCH  31  33
ENDBRANCH  30  31
ENDBRANCH  29  30
ENDBRANCH   1  29
TORSDOF 8
ENDMDL
MODEL 8
REMARK VINA RESULT:      -8.7      1.768      4.761
REMARK  8 active torsions:
REMARK  status: ('A' for Active; 'I' for Inactive)
REMARK    1  A    between atoms: C_4  and  C_5 
REMARK    2  A    between atoms: C_5  and  C_6 
REMARK    3  A    between atoms: C_6  and  C_7 
REMARK    4  A    between atoms: C_7  and  N_8 
REMARK    5  A    between atoms: C_17  and  C_18 
REMARK    6  A    between atoms: C_18  and  N_19 
REMARK    7  A    between atoms: C_23  and  O_24 
REMARK    8  A    between atoms: C_23  and  C_25 
ROOT
HETATM    1  N   UNL     1      -7.777  -0.311 -34.135  1.00  0.00    -0.065 N 
HETATM    2  H   UNL     1      -8.561  -0.209 -34.792  1.00  0.00     0.280 HD
HETATM    3  C   UNL     1      -6.726   0.682 -34.589  1.00  0.00     0.276 C 
HETATM    4  C   UNL     1      -5.575   0.850 -33.635  1.00  0.00     0.001 A 
HETATM    5  C   UNL     1      -4.703  -0.218 -33.412  1.00  0.00     0.076 A 
HETATM    6  O   UNL     1      -4.891  -1.411 -34.051  1.00  0.00    -0.349 OA
HETATM    7  C   UNL     1      -6.042  -2.101 -33.539  1.00  0.00     0.203 C 
HETATM    8  C   UNL     1      -7.307  -1.755 -34.334  1.00  0.00     0.261 C 
HETATM    9  C   UNL     1      -5.354   2.052 -32.938  1.00  0.00     0.020 A 
HETATM   10  C   UNL     1      -4.280   2.182 -32.033  1.00  0.00    -0.032 A 
HETATM   11  C   UNL     1      -3.398   1.103 -31.871  1.00  0.00     0.011 A 
HETATM   12  C   UNL     1      -3.605  -0.088 -32.569  1.00  0.00     0.038 A 
ENDROOT
BRANCH  10  13
HETATM   13  C   UNL     1      -4.104   3.444 -31.223  1.00  0.00     0.273 C 
BRANCH  13  14
HETATM   14  N   UNL     1      -3.695   4.678 -32.005  1.00  0.00    -0.067 N 
HETATM   15  H   UNL     1      -4.205   4.646 -32.900  1.00  0.00     0.280 HD
HETATM   16  C   UNL     1      -4.085   5.965 -31.318  1.00  0.00     0.238 C 
HETATM   17  C   UNL     1      -3.613   7.155 -32.132  1.00  0.00     0.071 C 
HETATM   18  C   UNL     1      -2.083   7.154 -32.315  1.00  0.00     0.089 C 
HETATM   19  C   UNL     1      -1.743   5.849 -33.060  1.00  0.00     0.071 C 
HETATM   20  C   UNL     1      -2.216   4.603 -32.328  1.00  0.00     0.238 C 
BRANCH  18  21
HETATM   21  O   UNL     1      -1.781   8.219 -33.215  1.00  0.00    -0.385 OA
HETATM   22  H   UNL     1      -0.968   8.019 -33.717  1.00  0.00     0.211 HD
ENDBRANCH  18  21
BRANCH  18  23
HETATM   23  C   UNL     1      -1.333   7.400 -31.011  1.00  0.00    -0.006 A 
HETATM   24  C   UNL     1      -1.843   8.172 -29.968  1.00  0.00     0.126 A 
HETATM   25  N   UNL     1      -1.169   8.479 -28.838  1.00  0.00    -0.272 NA
HETATM   26  C   UNL     1       0.045   7.923 -28.668  1.00  0.00     0.116 A 
HETATM   27  C   UNL     1       0.625   7.085 -29.600  1.00  0.00     0.020 A 
HETATM   28  C   UNL     1      -0.074   6.821 -30.776  1.00  0.00     0.013 A 
ENDBRANCH  18  23
ENDBRANCH  13  14
ENDBRANCH  10  13
BRANCH   1  29
HETATM   29  C   UNL     1      -8.363  -0.070 -32.749  1.00  0.00     0.236 C 
BRANCH  29  30
HETATM   30  C   UNL     1      -9.886   0.083 -32.813  1.00  0.00     0.039 C 
BRANCH  30  31
HETATM   31  C   UNL     1     -10.382   1.525 -33.042  1.00  0.00     0.040 C 
HETATM   32  C   UNL     1     -10.685   1.819 -34.514  1.00  0.00     0.017 C 
BRANCH  31  33
HETATM   33  C   UNL     1      -9.456   2.540 -32.470  1.00  0.00     0.057 A 
HETATM   34  O   UNL     1      -8.802   3.348 -33.352  1.00  0.00    -0.319 OA
HETATM   35  C   UNL     1      -8.044   4.209 -32.615  1.00  0.00     0.049 A 
HETATM   36  C   UNL     1      -7.253   5.214 -33.356  1.00  0.00     0.076 C 
HETATM   37  C   UNL     1      -8.202   3.949 -31.272  1.00  0.00     0.035 A 
HETATM   38  C   UNL     1      -9.113   2.871 -31.177  1.00  0.00     0.035 A 
ENDBRANCH  31  33
ENDBRANCH  30  31
ENDBRANCH  29  30
ENDBRANCH   1  29
TORSDOF 8
ENDMDL
MODEL 9
REMARK VINA RESULT:      -8.5      2.350      8.468
REMARK  8 active torsions:
REMARK  status: ('A' for Active; 'I' for Inactive)
REMARK    1  A    between atoms: C_4  and  C_5 
REMARK    2  A    between atoms: C_5  and  C_6 
REMARK    3  A    between atoms: C_6  and  C_7 
REMARK    4  A    between atoms: C_7  and  N_8 
REMARK    5  A    between atoms: C_17  and  C_18 
REMARK    6  A    between atoms: C_18  and  N_19 
REMARK    7  A    between atoms: C_23  and  O_24 
REMARK    8  A    between atoms: C_23  and  C_25 
ROOT
HETATM    1  N   UNL     1      -3.307   3.727 -32.721  1.00  0.00    -0.065 N 
HETATM    2  H   UNL     1      -2.665   3.272 -33.382  1.00  0.00     0.280 HD
HETATM    3  C   UNL     1      -4.463   4.240 -33.556  1.00  0.00     0.276 C 
HETATM    4  C   UNL     1      -5.629   4.756 -32.756  1.00  0.00     0.001 A 
HETATM    5  C   UNL     1      -5.473   5.902 -31.974  1.00  0.00     0.076 A 
HETATM    6  O   UNL     1      -4.272   6.553 -31.928  1.00  0.00    -0.349 OA
HETATM    7  C   UNL     1      -3.294   5.792 -31.202  1.00  0.00     0.203 C 
HETATM    8  C   UNL     1      -2.486   4.878 -32.132  1.00  0.00     0.261 C 
HETATM    9  C   UNL     1      -6.877   4.108 -32.755  1.00  0.00     0.020 A 
HETATM   10  C   UNL     1      -7.950   4.597 -31.983  1.00  0.00    -0.032 A 
HETATM   11  C   UNL     1      -7.770   5.778 -31.245  1.00  0.00     0.011 A 
HETATM   12  C   UNL     1      -6.537   6.433 -31.253  1.00  0.00     0.038 A 
ENDROOT
BRANCH  10  13
HETATM   13  C   UNL     1      -9.258   3.845 -31.916  1.00  0.00     0.273 C 
BRANCH  13  14
HETATM   14  N   UNL     1      -9.767   3.291 -33.234  1.00  0.00    -0.067 N 
HETATM   15  H   UNL     1      -8.954   3.230 -33.865  1.00  0.00     0.280 HD
HETATM   16  C   UNL     1     -10.334   1.898 -33.105  1.00  0.00     0.238 C 
HETATM   17  C   UNL     1     -10.858   1.421 -34.446  1.00  0.00     0.071 C 
HETATM   18  C   UNL     1     -11.969   2.342 -34.987  1.00  0.00     0.089 C 
HETATM   19  C   UNL     1     -11.329   3.735 -35.146  1.00  0.00     0.071 C 
HETATM   20  C   UNL     1     -10.743   4.273 -33.851  1.00  0.00     0.238 C 
BRANCH  18  21
HETATM   21  O   UNL     1     -12.268   1.886 -36.306  1.00  0.00    -0.385 OA
HETATM   22  H   UNL     1     -11.447   1.802 -36.829  1.00  0.00     0.211 HD
ENDBRANCH  18  21
BRANCH  18  23
HETATM   23  C   UNL     1     -13.245   2.277 -34.156  1.00  0.00    -0.006 A 
HETATM   24  C   UNL     1     -13.613   3.259 -33.237  1.00  0.00     0.126 A 
HETATM   25  N   UNL     1     -14.690   3.188 -32.426  1.00  0.00    -0.272 NA
HETATM   26  C   UNL     1     -15.518   2.138 -32.582  1.00  0.00     0.116 A 
HETATM   27  C   UNL     1     -15.297   1.138 -33.509  1.00  0.00     0.020 A 
HETATM   28  C   UNL     1     -14.153   1.214 -34.302  1.00  0.00     0.013 A 
ENDBRANCH  18  23
ENDBRANCH  13  14
ENDBRANCH  10  13
BRANCH   1  29
HETATM   29  C   UNL     1      -3.657   2.665 -31.684  1.00  0.00     0.236 C 
BRANCH  29  30
HETATM   30  C   UNL     1      -4.029   1.340 -32.357  1.00  0.00     0.039 C 
BRANCH  30  31
HETATM   31  C   UNL     1      -5.480   0.877 -32.115  1.00  0.00     0.040 C 
HETATM   32  C   UNL     1      -5.735   0.471 -30.661  1.00  0.00     0.017 C 
BRANCH  31  33
HETATM   33  C   UNL     1      -5.894  -0.199 -33.055  1.00  0.00     0.057 A 
HETATM   34  O   UNL     1      -4.936  -1.091 -33.437  1.00  0.00    -0.319 OA
HETATM   35  C   UNL     1      -5.540  -1.994 -34.262  1.00  0.00     0.049 A 
HETATM   36  C   UNL     1      -4.701  -3.089 -34.791  1.00  0.00     0.076 C 
HETATM   37  C   UNL     1      -6.872  -1.679 -34.416  1.00  0.00     0.035 A 
HETATM   38  C   UNL     1      -7.102  -0.520 -33.638  1.00  0.00     0.035 A 
ENDBRANCH  31  33
ENDBRANCH  30  31
ENDBRANCH  29  30
ENDBRANCH   1  29
TORSDOF 8
ENDMDL
MODEL 10
REMARK VINA RESULT:      -8.3      2.956      8.759
REMARK  8 active torsions:
REMARK  status: ('A' for Active; 'I' for Inactive)
REMARK    1  A    between atoms: C_4  and  C_5 
REMARK    2  A    between atoms: C_5  and  C_6 
REMARK    3  A    between atoms: C_6  and  C_7 
REMARK    4  A    between atoms: C_7  and  N_8 
REMARK    5  A    between atoms: C_17  and  C_18 
REMARK    6  A    between atoms: C_18  and  N_19 
REMARK    7  A    between atoms: C_23  and  O_24 
REMARK    8  A    between atoms: C_23  and  C_25 
ROOT
HETATM    1  N   UNL     1      -4.158  -0.106 -31.580  1.00  0.00    -0.065 N 
HETATM    2  H   UNL     1      -3.786  -0.060 -30.622  1.00  0.00     0.280 HD
HETATM    3  C   UNL     1      -5.653  -0.307 -31.431  1.00  0.00     0.276 C 
HETATM    4  C   UNL     1      -6.428  -0.188 -32.715  1.00  0.00     0.001 A 
HETATM    5  C   UNL     1      -6.237  -1.133 -33.725  1.00  0.00     0.076 A 
HETATM    6  O   UNL     1      -5.351  -2.160 -33.556  1.00  0.00    -0.349 OA
HETATM    7  C   UNL     1      -3.995  -1.689 -33.589  1.00  0.00     0.203 C 
HETATM    8  C   UNL     1      -3.484  -1.341 -32.185  1.00  0.00     0.261 C 
HETATM    9  C   UNL     1      -7.334   0.864 -32.944  1.00  0.00     0.020 A 
HETATM   10  C   UNL     1      -8.036   0.967 -34.163  1.00  0.00    -0.032 A 
HETATM   11  C   UNL     1      -7.852  -0.027 -35.136  1.00  0.00     0.011 A 
HETATM   12  C   UNL     1      -6.964  -1.080 -34.909  1.00  0.00     0.038 A 
ENDROOT
BRANCH  10  13
HETATM   13  C   UNL     1      -8.938   2.148 -34.435  1.00  0.00     0.273 C 
BRANCH  13  14
HETATM   14  N   UNL     1     -10.088   2.336 -33.463  1.00  0.00    -0.067 N 
HETATM   15  H   UNL     1     -10.050   1.547 -32.801  1.00  0.00     0.280 HD
HETATM   16  C   UNL     1      -9.969   3.602 -32.651  1.00  0.00     0.238 C 
HETATM   17  C   UNL     1     -11.167   3.747 -31.732  1.00  0.00     0.071 C 
HETATM   18  C   UNL     1     -12.491   3.805 -32.520  1.00  0.00     0.089 C 
HETATM   19  C   UNL     1     -12.587   2.475 -33.291  1.00  0.00     0.071 C 
HETATM   20  C   UNL     1     -11.402   2.233 -34.212  1.00  0.00     0.238 C 
BRANCH  18  21
HETATM   21  O   UNL     1     -13.540   3.785 -31.552  1.00  0.00    -0.385 OA
HETATM   22  H   UNL     1     -13.262   3.281 -30.763  1.00  0.00     0.211 HD
ENDBRANCH  18  21
BRANCH  18  23
HETATM   23  C   UNL     1     -12.627   5.077 -33.349  1.00  0.00    -0.006 A 
HETATM   24  C   UNL     1     -12.269   6.340 -32.880  1.00  0.00     0.126 A 
HETATM   25  N   UNL     1     -12.457   7.494 -33.557  1.00  0.00    -0.272 NA
HETATM   26  C   UNL     1     -12.940   7.406 -34.811  1.00  0.00     0.116 A 
HETATM   27  C   UNL     1     -13.265   6.205 -35.410  1.00  0.00     0.020 A 
HETATM   28  C   UNL     1     -13.102   5.034 -34.671  1.00  0.00     0.013 A 
ENDBRANCH  18  23
ENDBRANCH  13  14
ENDBRANCH  10  13
BRANCH   1  29
HETATM   29  C   UNL     1      -3.727   1.190 -32.256  1.00  0.00     0.236 C 
BRANCH  29  30
HETATM   30  C   UNL     1      -3.348   2.253 -31.219  1.00  0.00     0.039 C 
BRANCH  30  31
HETATM   31  C   UNL     1      -4.094   3.594 -31.366  1.00  0.00     0.040 C 
HETATM   32  C   UNL     1      -5.593   3.470 -31.075  1.00  0.00     0.017 C 
BRANCH  31  33
HETATM   33  C   UNL     1      -3.853   4.235 -32.687  1.00  0.00     0.057 A 
HETATM   34  O   UNL     1      -2.556   4.480 -33.028  1.00  0.00    -0.319 OA
HETATM   35  C   UNL     1      -2.571   5.032 -34.275  1.00  0.00     0.049 A 
HETATM   36  C   UNL     1      -1.265   5.365 -34.880  1.00  0.00     0.076 C 
HETATM   37  C   UNL     1      -3.867   5.150 -34.725  1.00  0.00     0.035 A 
HETATM   38  C   UNL     1      -4.695   4.637 -33.700  1.00  0.00     0.035 A 
ENDBRANCH  31  33
ENDBRANCH  30  31
ENDBRANCH  29  30
ENDBRANCH   1  29
TORSDOF 8
ENDMDL
