MODEL 1
REMARK VINA RESULT:      -9.8      0.000      0.000
REMARK  3 active torsions:
REMARK  status: ('A' for Active; 'I' for Inactive)
REMARK    1  A    between atoms: C_8  and  C_9 
REMARK    2  A    between atoms: C_12  and  C_13 
REMARK    3  A    between atoms: C_24  and  N_25 
ROOT
HETATM    1  C   UNL     1     -12.249   0.131 -33.615  1.00  0.00     0.073 C 
HETATM    2  C   UNL     1     -12.008   1.355 -34.417  1.00  0.00     0.062 A 
HETATM    3  N   UNL     1     -12.801   1.652 -35.460  1.00  0.00    -0.177 NA
HETATM    4  N   UNL     1     -12.291   2.799 -35.953  1.00  0.00    -0.256 N 
HETATM    5  H   UNL     1     -12.737   3.230 -36.755  1.00  0.00     0.191 HD
HETATM    6  C   UNL     1     -11.213   3.236 -35.253  1.00  0.00     0.175 A 
HETATM    7  C   UNL     1     -10.989   2.322 -34.256  1.00  0.00     0.034 A 
HETATM    8  C   UNL     1      -9.859   2.518 -33.303  1.00  0.00     0.104 A 
HETATM    9  C   UNL     1      -9.217   3.883 -33.535  1.00  0.00     0.067 A 
HETATM   10  C   UNL     1      -8.294   4.396 -32.442  1.00  0.00     0.020 C 
HETATM   11  N   UNL     1      -7.528   4.822 -31.534  1.00  0.00    -0.096 N 
HETATM   12  C   UNL     1      -9.552   4.705 -34.567  1.00  0.00     0.139 A 
HETATM   13  O   UNL     1     -10.535   4.349 -35.510  1.00  0.00    -0.279 OA
ENDROOT
BRANCH   8  14
HETATM   14  C   UNL     1      -8.913   1.351 -33.547  1.00  0.00    -0.044 A 
HETATM   15  C   UNL     1      -8.348   1.093 -34.808  1.00  0.00     0.009 A 
HETATM   16  C   UNL     1      -7.542  -0.030 -35.020  1.00  0.00     0.013 A 
HETATM   17  C   UNL     1      -7.254  -0.926 -33.980  1.00  0.00    -0.026 A 
HETATM   18  C   UNL     1      -7.783  -0.640 -32.711  1.00  0.00     0.013 A 
HETATM   19  C   UNL     1      -8.598   0.478 -32.495  1.00  0.00     0.009 A 
BRANCH  17  20
HETATM   20  C   UNL     1      -6.448  -2.138 -34.222  1.00  0.00    -0.026 A 
HETATM   21  C   UNL     1      -7.038  -3.328 -34.682  1.00  0.00     0.012 A 
HETATM   22  C   UNL     1      -6.277  -4.483 -34.884  1.00  0.00     0.001 A 
HETATM   23  C   UNL     1      -4.908  -4.469 -34.634  1.00  0.00     0.000 A 
HETATM   24  C   UNL     1      -4.300  -3.301 -34.182  1.00  0.00     0.001 A 
HETATM   25  C   UNL     1      -5.064  -2.148 -33.978  1.00  0.00     0.012 A 
ENDBRANCH  17  20
ENDBRANCH   8  14
BRANCH  12  26
HETATM   26  N   UNL     1      -9.021   5.953 -34.797  1.00  0.00    -0.282 NA
HETATM   27  H   UNL     1      -8.764   6.483 -33.967  1.00  0.00     0.126 HD
HETATM   28  H   UNL     1      -8.285   5.933 -35.499  1.00  0.00     0.126 HD
ENDBRANCH  12  26
TORSDOF 3
ENDMDL
MODEL 2
REMARK VINA RESULT:      -9.4      2.524      3.489
REMARK  3 active torsions:
REMARK  status: ('A' for Active; 'I' for Inactive)
REMARK    1  A    between atoms: C_8  and  C_9 
REMARK    2  A    between atoms: C_12  and  C_13 
REMARK    3  A    between atoms: C_24  and  N_25 
ROOT
HETATM    1  C   UNL     1      -9.364   2.265 -31.444  1.00  0.00     0.073 C 
HETATM    2  C   UNL     1      -8.850   3.263 -32.412  1.00  0.00     0.062 A 
HETATM    3  N   UNL     1      -9.701   4.016 -33.130  1.00  0.00    -0.177 NA
HETATM    4  N   UNL     1      -8.901   4.785 -33.898  1.00  0.00    -0.256 N 
HETATM    5  H   UNL     1      -9.325   5.454 -34.531  1.00  0.00     0.191 HD
HETATM    6  C   UNL     1      -7.582   4.547 -33.683  1.00  0.00     0.175 A 
HETATM    7  C   UNL     1      -7.505   3.560 -32.735  1.00  0.00     0.034 A 
HETATM    8  C   UNL     1      -6.175   3.065 -32.277  1.00  0.00     0.104 A 
HETATM    9  C   UNL     1      -5.068   3.929 -32.875  1.00  0.00     0.067 A 
HETATM   10  C   UNL     1      -3.689   3.799 -32.248  1.00  0.00     0.020 C 
HETATM   11  N   UNL     1      -2.545   3.692 -31.728  1.00  0.00    -0.096 N 
HETATM   12  C   UNL     1      -5.291   4.897 -33.805  1.00  0.00     0.139 A 
HETATM   13  O   UNL     1      -6.583   5.178 -34.289  1.00  0.00    -0.279 OA
ENDROOT
BRANCH   8  14
HETATM   14  C   UNL     1      -6.111   1.607 -32.709  1.00  0.00    -0.044 A 
HETATM   15  C   UNL     1      -5.739   0.578 -31.828  1.00  0.00     0.009 A 
HETATM   16  C   UNL     1      -5.616  -0.742 -32.274  1.00  0.00     0.013 A 
HETATM   17  C   UNL     1      -5.879  -1.087 -33.608  1.00  0.00    -0.026 A 
HETATM   18  C   UNL     1      -6.295  -0.063 -34.474  1.00  0.00     0.013 A 
HETATM   19  C   UNL     1      -6.410   1.262 -34.035  1.00  0.00     0.009 A 
BRANCH  17  20
HETATM   20  C   UNL     1      -5.696  -2.472 -34.085  1.00  0.00    -0.026 A 
HETATM   21  C   UNL     1      -6.739  -3.169 -34.720  1.00  0.00     0.012 A 
HETATM   22  C   UNL     1      -6.572  -4.490 -35.146  1.00  0.00     0.001 A 
HETATM   23  C   UNL     1      -5.356  -5.138 -34.950  1.00  0.00     0.000 A 
HETATM   24  C   UNL     1      -4.307  -4.467 -34.328  1.00  0.00     0.001 A 
HETATM   25  C   UNL     1      -4.477  -3.148 -33.899  1.00  0.00     0.012 A 
ENDBRANCH  17  20
ENDBRANCH   8  14
BRANCH  12  26
HETATM   26  N   UNL     1      -4.329   5.717 -34.350  1.00  0.00    -0.282 NA
HETATM   27  H   UNL     1      -3.368   5.490 -34.107  1.00  0.00     0.126 HD
HETATM   28  H   UNL     1      -4.464   5.856 -35.348  1.00  0.00     0.126 HD
ENDBRANCH  12  26
TORSDOF 3
ENDMDL
MODEL 3
REMARK VINA RESULT:      -9.3      2.042      4.182
REMARK  3 active torsions:
REMARK  status: ('A' for Active; 'I' for Inactive)
REMARK    1  A    between atoms: C_8  and  C_9 
REMARK    2  A    between atoms: C_12  and  C_13 
REMARK    3  A    between atoms: C_24  and  N_25 
ROOT
HETATM    1  C   UNL     1      -5.324   4.262 -34.228  1.00  0.00     0.073 C 
HETATM    2  C   UNL     1      -6.014   4.387 -32.922  1.00  0.00     0.062 A 
HETATM    3  N   UNL     1      -5.446   5.073 -31.916  1.00  0.00    -0.177 NA
HETATM    4  N   UNL     1      -6.327   4.969 -30.900  1.00  0.00    -0.256 N 
HETATM    5  H   UNL     1      -6.116   5.423 -30.018  1.00  0.00     0.191 HD
HETATM    6  C   UNL     1      -7.429   4.250 -31.233  1.00  0.00     0.175 A 
HETATM    7  C   UNL     1      -7.261   3.845 -32.533  1.00  0.00     0.034 A 
HETATM    8  C   UNL     1      -8.311   3.023 -33.201  1.00  0.00     0.104 A 
HETATM    9  C   UNL     1      -9.537   2.919 -32.300  1.00  0.00     0.067 A 
HETATM   10  C   UNL     1     -10.820   2.427 -32.950  1.00  0.00     0.020 C 
HETATM   11  N   UNL     1     -11.886   2.020 -33.489  1.00  0.00    -0.096 N 
HETATM   12  C   UNL     1      -9.573   3.386 -31.021  1.00  0.00     0.139 A 
HETATM   13  O   UNL     1      -8.459   4.013 -30.430  1.00  0.00    -0.279 OA
ENDROOT
BRANCH   8  14
HETATM   14  C   UNL     1      -7.654   1.681 -33.494  1.00  0.00    -0.044 A 
HETATM   15  C   UNL     1      -7.507   1.187 -34.801  1.00  0.00     0.009 A 
HETATM   16  C   UNL     1      -6.967  -0.083 -35.033  1.00  0.00     0.013 A 
HETATM   17  C   UNL     1      -6.537  -0.896 -33.975  1.00  0.00    -0.026 A 
HETATM   18  C   UNL     1      -6.643  -0.378 -32.673  1.00  0.00     0.013 A 
HETATM   19  C   UNL     1      -7.192   0.888 -32.434  1.00  0.00     0.009 A 
BRANCH  17  20
HETATM   20  C   UNL     1      -6.018  -2.255 -34.222  1.00  0.00    -0.026 A 
HETATM   21  C   UNL     1      -6.853  -3.279 -34.703  1.00  0.00     0.012 A 
HETATM   22  C   UNL     1      -6.365  -4.573 -34.910  1.00  0.00     0.001 A 
HETATM   23  C   UNL     1      -5.031  -4.866 -34.645  1.00  0.00     0.000 A 
HETATM   24  C   UNL     1      -4.184  -3.868 -34.173  1.00  0.00     0.001 A 
HETATM   25  C   UNL     1      -4.674  -2.576 -33.963  1.00  0.00     0.012 A 
ENDBRANCH  17  20
ENDBRANCH   8  14
BRANCH  12  26
HETATM   26  N   UNL     1     -10.664   3.338 -30.184  1.00  0.00    -0.282 NA
HETATM   27  H   UNL     1     -11.367   4.057 -30.336  1.00  0.00     0.126 HD
HETATM   28  H   UNL     1     -11.058   2.403 -30.122  1.00  0.00     0.126 HD
ENDBRANCH  12  26
TORSDOF 3
ENDMDL
MODEL 4
REMARK VINA RESULT:      -8.9      3.611      5.371
REMARK  3 active torsions:
REMARK  status: ('A' for Active; 'I' for Inactive)
REMARK    1  A    between atoms: C_8  and  C_9 
REMARK    2  A    between atoms: C_12  and  C_13 
REMARK    3  A    between atoms: C_24  and  N_25 
ROOT
HETATM    1  C   UNL     1      -4.448   4.741 -34.854  1.00  0.00     0.073 C 
HETATM    2  C   UNL     1      -4.297   4.951 -33.394  1.00  0.00     0.062 A 
HETATM    3  N   UNL     1      -3.200   5.554 -32.904  1.00  0.00    -0.177 NA
HETATM    4  N   UNL     1      -3.393   5.563 -31.568  1.00  0.00    -0.256 N 
HETATM    5  H   UNL     1      -2.687   5.983 -30.974  1.00  0.00     0.191 HD
HETATM    6  C   UNL     1      -4.571   4.996 -31.205  1.00  0.00     0.175 A 
HETATM    7  C   UNL     1      -5.183   4.576 -32.358  1.00  0.00     0.034 A 
HETATM    8  C   UNL     1      -6.512   3.901 -32.296  1.00  0.00     0.104 A 
HETATM    9  C   UNL     1      -7.053   3.955 -30.871  1.00  0.00     0.067 A 
HETATM   10  C   UNL     1      -8.529   3.638 -30.691  1.00  0.00     0.020 C 
HETATM   11  N   UNL     1      -9.754   3.376 -30.541  1.00  0.00    -0.096 N 
HETATM   12  C   UNL     1      -6.335   4.419 -29.811  1.00  0.00     0.139 A 
HETATM   13  O   UNL     1      -5.018   4.893 -29.958  1.00  0.00    -0.279 OA
ENDROOT
BRANCH   8  14
HETATM   14  C   UNL     1      -6.274   2.486 -32.804  1.00  0.00    -0.044 A 
HETATM   15  C   UNL     1      -6.901   1.987 -33.958  1.00  0.00     0.009 A 
HETATM   16  C   UNL     1      -6.721   0.659 -34.358  1.00  0.00     0.013 A 
HETATM   17  C   UNL     1      -5.896  -0.214 -33.634  1.00  0.00    -0.026 A 
HETATM   18  C   UNL     1      -5.234   0.302 -32.507  1.00  0.00     0.013 A 
HETATM   19  C   UNL     1      -5.418   1.628 -32.097  1.00  0.00     0.009 A 
BRANCH  17  20
HETATM   20  C   UNL     1      -5.752  -1.628 -34.029  1.00  0.00    -0.026 A 
HETATM   21  C   UNL     1      -4.502  -2.271 -34.004  1.00  0.00     0.012 A 
HETATM   22  C   UNL     1      -4.364  -3.602 -34.405  1.00  0.00     0.001 A 
HETATM   23  C   UNL     1      -5.476  -4.320 -34.836  1.00  0.00     0.000 A 
HETATM   24  C   UNL     1      -6.725  -3.707 -34.866  1.00  0.00     0.001 A 
HETATM   25  C   UNL     1      -6.860  -2.375 -34.467  1.00  0.00     0.012 A 
ENDBRANCH  17  20
ENDBRANCH   8  14
BRANCH  12  26
HETATM   26  N   UNL     1      -6.793   4.513 -28.517  1.00  0.00    -0.282 NA
HETATM   27  H   UNL     1      -7.392   5.310 -28.318  1.00  0.00     0.126 HD
HETATM   28  H   UNL     1      -7.178   3.633 -28.182  1.00  0.00     0.126 HD
ENDBRANCH  12  26
TORSDOF 3
ENDMDL
MODEL 5
REMARK VINA RESULT:      -8.8      3.624      4.837
REMARK  3 active torsions:
REMARK  status: ('A' for Active; 'I' for Inactive)
REMARK    1  A    between atoms: C_8  and  C_9 
REMARK    2  A    between atoms: C_12  and  C_13 
REMARK    3  A    between atoms: C_24  and  N_25 
ROOT
HETATM    1  C   UNL     1      -7.518   2.895 -30.384  1.00  0.00     0.073 C 
HETATM    2  C   UNL     1      -7.345   3.687 -31.625  1.00  0.00     0.062 A 
HETATM    3  N   UNL     1      -8.414   4.192 -32.264  1.00  0.00    -0.177 NA
HETATM    4  N   UNL     1      -7.895   4.828 -33.335  1.00  0.00    -0.256 N 
HETATM    5  H   UNL     1      -8.522   5.303 -33.975  1.00  0.00     0.191 HD
HETATM    6  C   UNL     1      -6.541   4.747 -33.386  1.00  0.00     0.175 A 
HETATM    7  C   UNL     1      -6.145   4.007 -32.302  1.00  0.00     0.034 A 
HETATM    8  C   UNL     1      -4.697   3.733 -32.073  1.00  0.00     0.104 A 
HETATM    9  C   UNL     1      -3.857   4.523 -33.071  1.00  0.00     0.067 A 
HETATM   10  C   UNL     1      -2.373   4.644 -32.766  1.00  0.00     0.020 C 
HETATM   11  N   UNL     1      -1.141   4.746 -32.513  1.00  0.00    -0.096 N 
HETATM   12  C   UNL     1      -4.388   5.238 -34.101  1.00  0.00     0.139 A 
HETATM   13  O   UNL     1      -5.777   5.302 -34.321  1.00  0.00    -0.279 OA
ENDROOT
BRANCH   8  14
HETATM   14  C   UNL     1      -4.542   2.224 -32.205  1.00  0.00    -0.044 A 
HETATM   15  C   UNL     1      -3.612   1.495 -31.445  1.00  0.00     0.009 A 
HETATM   16  C   UNL     1      -3.441   0.121 -31.642  1.00  0.00     0.013 A 
HETATM   17  C   UNL     1      -4.201  -0.579 -32.590  1.00  0.00    -0.026 A 
HETATM   18  C   UNL     1      -5.162   0.145 -33.316  1.00  0.00     0.013 A 
HETATM   19  C   UNL     1      -5.331   1.523 -33.128  1.00  0.00     0.009 A 
BRANCH  17  20
HETATM   20  C   UNL     1      -3.978  -2.017 -32.832  1.00  0.00    -0.026 A 
HETATM   21  C   UNL     1      -3.201  -2.794 -31.955  1.00  0.00     0.012 A 
HETATM   22  C   UNL     1      -2.969  -4.150 -32.201  1.00  0.00     0.001 A 
HETATM   23  C   UNL     1      -3.513  -4.758 -33.329  1.00  0.00     0.000 A 
HETATM   24  C   UNL     1      -4.290  -4.011 -34.210  1.00  0.00     0.001 A 
HETATM   25  C   UNL     1      -4.518  -2.654 -33.963  1.00  0.00     0.012 A 
ENDBRANCH  17  20
ENDBRANCH   8  14
BRANCH  12  26
HETATM   26  N   UNL     1      -3.671   5.987 -35.006  1.00  0.00    -0.282 NA
HETATM   27  H   UNL     1      -3.961   6.957 -35.102  1.00  0.00     0.126 HD
HETATM   28  H   UNL     1      -2.668   5.882 -34.880  1.00  0.00     0.126 HD
ENDBRANCH  12  26
TORSDOF 3
ENDMDL
MODEL 6
REMARK VINA RESULT:      -8.8      1.174      2.045
REMARK  3 active torsions:
REMARK  status: ('A' for Active; 'I' for Inactive)
REMARK    1  A    between atoms: C_8  and  C_9 
REMARK    2  A    between atoms: C_12  and  C_13 
REMARK    3  A    between atoms: C_24  and  N_25 
ROOT
HETATM    1  C   UNL     1     -11.723   1.721 -34.036  1.00  0.00     0.073 C 
HETATM    2  C   UNL     1     -10.964   2.929 -34.439  1.00  0.00     0.062 A 
HETATM    3  N   UNL     1     -11.386   3.686 -35.466  1.00  0.00    -0.177 NA
HETATM    4  N   UNL     1     -10.467   4.670 -35.555  1.00  0.00    -0.256 N 
HETATM    5  H   UNL     1     -10.579   5.383 -36.267  1.00  0.00     0.191 HD
HETATM    6  C   UNL     1      -9.491   4.562 -34.618  1.00  0.00     0.175 A 
HETATM    7  C   UNL     1      -9.770   3.440 -33.881  1.00  0.00     0.034 A 
HETATM    8  C   UNL     1      -8.871   3.041 -32.759  1.00  0.00     0.104 A 
HETATM    9  C   UNL     1      -7.825   4.125 -32.524  1.00  0.00     0.067 A 
HETATM   10  C   UNL     1      -7.057   4.058 -31.213  1.00  0.00     0.020 C 
HETATM   11  N   UNL     1      -6.421   4.003 -30.125  1.00  0.00    -0.096 N 
HETATM   12  C   UNL     1      -7.668   5.208 -33.334  1.00  0.00     0.139 A 
HETATM   13  O   UNL     1      -8.478   5.408 -34.469  1.00  0.00    -0.279 OA
ENDROOT
BRANCH   8  14
HETATM   14  C   UNL     1      -8.278   1.700 -33.171  1.00  0.00    -0.044 A 
HETATM   15  C   UNL     1      -8.731   0.483 -32.637  1.00  0.00     0.009 A 
HETATM   16  C   UNL     1      -8.116  -0.726 -32.978  1.00  0.00     0.013 A 
HETATM   17  C   UNL     1      -7.041  -0.768 -33.877  1.00  0.00    -0.026 A 
HETATM   18  C   UNL     1      -6.620   0.447 -34.444  1.00  0.00     0.013 A 
HETATM   19  C   UNL     1      -7.227   1.661 -34.099  1.00  0.00     0.009 A 
BRANCH  17  20
HETATM   20  C   UNL     1      -6.361  -2.039 -34.192  1.00  0.00    -0.026 A 
HETATM   21  C   UNL     1      -4.964  -2.163 -34.098  1.00  0.00     0.012 A 
HETATM   22  C   UNL     1      -4.320  -3.360 -34.423  1.00  0.00     0.001 A 
HETATM   23  C   UNL     1      -5.062  -4.460 -34.845  1.00  0.00     0.000 A 
HETATM   24  C   UNL     1      -6.447  -4.363 -34.941  1.00  0.00     0.001 A 
HETATM   25  C   UNL     1      -7.088  -3.164 -34.619  1.00  0.00     0.012 A 
ENDBRANCH  17  20
ENDBRANCH   8  14
BRANCH  12  26
HETATM   26  N   UNL     1      -6.759   6.223 -33.144  1.00  0.00    -0.282 NA
HETATM   27  H   UNL     1      -5.832   5.932 -32.841  1.00  0.00     0.126 HD
HETATM   28  H   UNL     1      -6.736   6.868 -33.929  1.00  0.00     0.126 HD
ENDBRANCH  12  26
TORSDOF 3
ENDMDL
MODEL 7
REMARK VINA RESULT:      -8.3      4.766      7.075
REMARK  3 active torsions:
REMARK  status: ('A' for Active; 'I' for Inactive)
REMARK    1  A    between atoms: C_8  and  C_9 
REMARK    2  A    between atoms: C_12  and  C_13 
REMARK    3  A    between atoms: C_24  and  N_25 
ROOT
HETATM    1  C   UNL     1      -3.983  -1.447 -32.342  1.00  0.00     0.073 C 
HETATM    2  C   UNL     1      -5.177  -1.310 -33.209  1.00  0.00     0.062 A 
HETATM    3  N   UNL     1      -5.341  -2.115 -34.273  1.00  0.00    -0.177 NA
HETATM    4  N   UNL     1      -6.503  -1.708 -34.824  1.00  0.00    -0.256 N 
HETATM    5  H   UNL     1      -6.846  -2.183 -35.652  1.00  0.00     0.191 HD
HETATM    6  C   UNL     1      -7.076  -0.684 -34.143  1.00  0.00     0.175 A 
HETATM    7  C   UNL     1      -6.243  -0.389 -33.094  1.00  0.00     0.034 A 
HETATM    8  C   UNL     1      -6.596   0.707 -32.146  1.00  0.00     0.104 A 
HETATM    9  C   UNL     1      -7.999   1.222 -32.449  1.00  0.00     0.067 A 
HETATM   10  C   UNL     1      -8.656   2.080 -31.380  1.00  0.00     0.020 C 
HETATM   11  N   UNL     1      -9.201   2.792 -30.492  1.00  0.00    -0.096 N 
HETATM   12  C   UNL     1      -8.729   0.825 -33.528  1.00  0.00     0.139 A 
HETATM   13  O   UNL     1      -8.232  -0.109 -34.457  1.00  0.00    -0.279 OA
ENDROOT
BRANCH   8  14
HETATM   14  C   UNL     1      -5.510   1.761 -32.319  1.00  0.00    -0.044 A 
HETATM   15  C   UNL     1      -4.387   1.826 -31.478  1.00  0.00     0.009 A 
HETATM   16  C   UNL     1      -3.444   2.850 -31.614  1.00  0.00     0.013 A 
HETATM   17  C   UNL     1      -3.576   3.834 -32.604  1.00  0.00    -0.026 A 
HETATM   18  C   UNL     1      -4.676   3.739 -33.472  1.00  0.00     0.013 A 
HETATM   19  C   UNL     1      -5.628   2.721 -33.334  1.00  0.00     0.009 A 
BRANCH  17  20
HETATM   20  C   UNL     1      -2.608   4.943 -32.709  1.00  0.00    -0.026 A 
HETATM   21  C   UNL     1      -1.508   5.037 -31.838  1.00  0.00     0.012 A 
HETATM   22  C   UNL     1      -0.608   6.103 -31.922  1.00  0.00     0.001 A 
HETATM   23  C   UNL     1      -0.788   7.095 -32.882  1.00  0.00     0.000 A 
HETATM   24  C   UNL     1      -1.866   7.021 -33.759  1.00  0.00     0.001 A 
HETATM   25  C   UNL     1      -2.767   5.956 -33.671  1.00  0.00     0.012 A 
ENDBRANCH  17  20
ENDBRANCH   8  14
BRANCH  12  26
HETATM   26  N   UNL     1     -10.007   1.241 -33.824  1.00  0.00    -0.282 NA
HETATM   27  H   UNL     1     -10.259   1.222 -34.809  1.00  0.00     0.126 HD
HETATM   28  H   UNL     1     -10.702   0.798 -33.228  1.00  0.00     0.126 HD
ENDBRANCH  12  26
TORSDOF 3
ENDMDL
MODEL 8
REMARK VINA RESULT:      -8.3      2.303      4.706
REMARK  3 active torsions:
REMARK  status: ('A' for Active; 'I' for Inactive)
REMARK    1  A    between atoms: C_8  and  C_9 
REMARK    2  A    between atoms: C_12  and  C_13 
REMARK    3  A    between atoms: C_24  and  N_25 
ROOT
HETATM    1  C   UNL     1      -4.631   3.930 -31.615  1.00  0.00     0.073 C 
HETATM    2  C   UNL     1      -5.796   4.044 -30.705  1.00  0.00     0.062 A 
HETATM    3  N   UNL     1      -5.614   4.270 -29.393  1.00  0.00    -0.177 NA
HETATM    4  N   UNL     1      -6.863   4.300 -28.883  1.00  0.00    -0.256 N 
HETATM    5  H   UNL     1      -6.984   4.468 -27.890  1.00  0.00     0.191 HD
HETATM    6  C   UNL     1      -7.820   4.108 -29.827  1.00  0.00     0.175 A 
HETATM    7  C   UNL     1      -7.169   3.928 -31.020  1.00  0.00     0.034 A 
HETATM    8  C   UNL     1      -7.951   3.688 -32.268  1.00  0.00     0.104 A 
HETATM    9  C   UNL     1      -9.440   3.865 -31.988  1.00  0.00     0.067 A 
HETATM   10  C   UNL     1     -10.349   4.007 -33.198  1.00  0.00     0.020 C 
HETATM   11  N   UNL     1     -11.103   4.126 -34.202  1.00  0.00    -0.096 N 
HETATM   12  C   UNL     1      -9.952   4.058 -30.741  1.00  0.00     0.139 A 
HETATM   13  O   UNL     1      -9.128   4.112 -29.601  1.00  0.00    -0.279 OA
ENDROOT
BRANCH   8  14
HETATM   14  C   UNL     1      -7.578   2.282 -32.719  1.00  0.00    -0.044 A 
HETATM   15  C   UNL     1      -7.772   1.156 -31.902  1.00  0.00     0.009 A 
HETATM   16  C   UNL     1      -7.351  -0.113 -32.314  1.00  0.00     0.013 A 
HETATM   17  C   UNL     1      -6.740  -0.308 -33.561  1.00  0.00    -0.026 A 
HETATM   18  C   UNL     1      -6.590   0.813 -34.394  1.00  0.00     0.013 A 
HETATM   19  C   UNL     1      -7.002   2.088 -33.983  1.00  0.00     0.009 A 
BRANCH  17  20
HETATM   20  C   UNL     1      -6.249  -1.638 -33.968  1.00  0.00    -0.026 A 
HETATM   21  C   UNL     1      -4.881  -1.960 -33.917  1.00  0.00     0.012 A 
HETATM   22  C   UNL     1      -4.416  -3.212 -34.329  1.00  0.00     0.001 A 
HETATM   23  C   UNL     1      -5.311  -4.170 -34.796  1.00  0.00     0.000 A 
HETATM   24  C   UNL     1      -6.671  -3.877 -34.851  1.00  0.00     0.001 A 
HETATM   25  C   UNL     1      -7.133  -2.623 -34.441  1.00  0.00     0.012 A 
ENDBRANCH  17  20
ENDBRANCH   8  14
BRANCH  12  26
HETATM   26  N   UNL     1     -11.282   4.250 -30.446  1.00  0.00    -0.282 NA
HETATM   27  H   UNL     1     -11.478   4.634 -29.524  1.00  0.00     0.126 HD
HETATM   28  H   UNL     1     -11.774   4.737 -31.191  1.00  0.00     0.126 HD
ENDBRANCH  12  26
TORSDOF 3
ENDMDL
MODEL 9
REMARK VINA RESULT:      -8.2      3.516      6.662
REMARK  3 active torsions:
REMARK  status: ('A' for Active; 'I' for Inactive)
REMARK    1  A    between atoms: C_8  and  C_9 
REMARK    2  A    between atoms: C_12  and  C_13 
REMARK    3  A    between atoms: C_24  and  N_25 
ROOT
HETATM    1  C   UNL     1      -5.242  -1.801 -34.197  1.00  0.00     0.073 C 
HETATM    2  C   UNL     1      -4.702  -1.074 -33.023  1.00  0.00     0.062 A 
HETATM    3  N   UNL     1      -4.057  -1.739 -32.050  1.00  0.00    -0.177 NA
HETATM    4  N   UNL     1      -3.723  -0.784 -31.157  1.00  0.00    -0.256 N 
HETATM    5  H   UNL     1      -3.212  -1.050 -30.323  1.00  0.00     0.191 HD
HETATM    6  C   UNL     1      -4.128   0.454 -31.537  1.00  0.00     0.175 A 
HETATM    7  C   UNL     1      -4.776   0.309 -32.737  1.00  0.00     0.034 A 
HETATM    8  C   UNL     1      -5.348   1.502 -33.427  1.00  0.00     0.104 A 
HETATM    9  C   UNL     1      -4.932   2.772 -32.692  1.00  0.00     0.067 A 
HETATM   10  C   UNL     1      -5.122   4.083 -33.438  1.00  0.00     0.020 C 
HETATM   11  N   UNL     1      -5.278   5.171 -34.058  1.00  0.00    -0.096 N 
HETATM   12  C   UNL     1      -4.269   2.771 -31.503  1.00  0.00     0.139 A 
HETATM   13  O   UNL     1      -3.911   1.573 -30.855  1.00  0.00    -0.279 OA
ENDROOT
BRANCH   8  14
HETATM   14  C   UNL     1      -6.854   1.276 -33.448  1.00  0.00    -0.044 A 
HETATM   15  C   UNL     1      -7.542   0.916 -34.619  1.00  0.00     0.009 A 
HETATM   16  C   UNL     1      -8.935   0.789 -34.625  1.00  0.00     0.013 A 
HETATM   17  C   UNL     1      -9.690   0.997 -33.461  1.00  0.00    -0.026 A 
HETATM   18  C   UNL     1      -8.993   1.312 -32.282  1.00  0.00     0.013 A 
HETATM   19  C   UNL     1      -7.600   1.449 -32.273  1.00  0.00     0.009 A 
BRANCH  17  20
HETATM   20  C   UNL     1     -11.163   0.915 -33.485  1.00  0.00    -0.026 A 
HETATM   21  C   UNL     1     -11.826  -0.324 -33.438  1.00  0.00     0.012 A 
HETATM   22  C   UNL     1     -13.221  -0.401 -33.488  1.00  0.00     0.001 A 
HETATM   23  C   UNL     1     -13.981   0.761 -33.583  1.00  0.00     0.000 A 
HETATM   24  C   UNL     1     -13.347   2.000 -33.626  1.00  0.00     0.001 A 
HETATM   25  C   UNL     1     -11.952   2.074 -33.579  1.00  0.00     0.012 A 
ENDBRANCH  17  20
ENDBRANCH   8  14
BRANCH  12  26
HETATM   26  N   UNL     1      -3.849   3.890 -30.822  1.00  0.00    -0.282 NA
HETATM   27  H   UNL     1      -3.079   4.401 -31.246  1.00  0.00     0.126 HD
HETATM   28  H   UNL     1      -4.626   4.490 -30.556  1.00  0.00     0.126 HD
ENDBRANCH  12  26
TORSDOF 3
ENDMDL
MODEL 10
REMARK VINA RESULT:      -7.6      4.648      6.804
REMARK  3 active torsions:
REMARK  status: ('A' for Active; 'I' for Inactive)
REMARK    1  A    between atoms: C_8  and  C_9 
REMARK    2  A    between atoms: C_12  and  C_13 
REMARK    3  A    between atoms: C_24  and  N_25 
ROOT
HETATM    1  C   UNL     1      -6.577   5.192 -28.947  1.00  0.00     0.073 C 
HETATM    2  C   UNL     1      -6.095   6.358 -29.726  1.00  0.00     0.062 A 
HETATM    3  N   UNL     1      -6.844   7.469 -29.820  1.00  0.00    -0.177 NA
HETATM    4  N   UNL     1      -6.116   8.299 -30.597  1.00  0.00    -0.256 N 
HETATM    5  H   UNL     1      -6.481   9.221 -30.806  1.00  0.00     0.191 HD
HETATM    6  C   UNL     1      -4.937   7.751 -30.986  1.00  0.00     0.175 A 
HETATM    7  C   UNL     1      -4.888   6.490 -30.452  1.00  0.00     0.034 A 
HETATM    8  C   UNL     1      -3.704   5.617 -30.702  1.00  0.00     0.104 A 
HETATM    9  C   UNL     1      -2.619   6.412 -31.422  1.00  0.00     0.067 A 
HETATM   10  C   UNL     1      -1.228   5.800 -31.443  1.00  0.00     0.020 C 
HETATM   11  N   UNL     1      -0.073   5.293 -31.460  1.00  0.00    -0.096 N 
HETATM   12  C   UNL     1      -2.800   7.678 -31.889  1.00  0.00     0.139 A 
HETATM   13  O   UNL     1      -4.023   8.358 -31.735  1.00  0.00    -0.279 OA
ENDROOT
BRANCH   8  14
HETATM   14  C   UNL     1      -4.231   4.437 -31.506  1.00  0.00    -0.044 A 
HETATM   15  C   UNL     1      -4.894   4.601 -32.734  1.00  0.00     0.009 A 
HETATM   16  C   UNL     1      -5.432   3.503 -33.413  1.00  0.00     0.013 A 
HETATM   17  C   UNL     1      -5.312   2.202 -32.904  1.00  0.00    -0.026 A 
HETATM   18  C   UNL     1      -4.609   2.037 -31.700  1.00  0.00     0.013 A 
HETATM   19  C   UNL     1      -4.076   3.134 -31.011  1.00  0.00     0.009 A 
BRANCH  17  20
HETATM   20  C   UNL     1      -5.929   1.054 -33.598  1.00  0.00    -0.026 A 
HETATM   21  C   UNL     1      -5.532  -0.266 -33.321  1.00  0.00     0.012 A 
HETATM   22  C   UNL     1      -6.097  -1.349 -34.000  1.00  0.00     0.001 A 
HETATM   23  C   UNL     1      -7.076  -1.134 -34.966  1.00  0.00     0.000 A 
HETATM   24  C   UNL     1      -7.489   0.164 -35.254  1.00  0.00     0.001 A 
HETATM   25  C   UNL     1      -6.920   1.246 -34.577  1.00  0.00     0.012 A 
ENDBRANCH  17  20
ENDBRANCH   8  14
BRANCH  12  26
HETATM   26  N   UNL     1      -1.842   8.441 -32.517  1.00  0.00    -0.282 NA
HETATM   27  H   UNL     1      -0.908   8.389 -32.119  1.00  0.00     0.126 HD
HETATM   28  H   UNL     1      -1.852   8.313 -33.526  1.00  0.00     0.126 HD
ENDBRANCH  12  26
TORSDOF 3
ENDMDL
