MODEL 1
REMARK VINA RESULT:      -9.2      0.000      0.000
REMARK  6 active torsions:
REMARK  status: ('A' for Active; 'I' for Inactive)
REMARK       I    between atoms: N_2  and  C_3 
REMARK    1  A    between atoms: N_2  and  C_15 
REMARK       I    between atoms: C_3  and  N_4 
REMARK    2  A    between atoms: N_4  and  C_5 
REMARK    3  A    between atoms: C_15  and  C_16 
REMARK    4  A    between atoms: C_16  and  C_17 
REMARK    5  A    between atoms: C_17  and  C_18 
REMARK    6  A    between atoms: C_22  and  C_23 
ROOT
HETATM    1  C   UNL     1      -4.688   3.119 -32.503  1.00  0.00     0.127 C 
ENDROOT
BRANCH   1   2
HETATM    2  N   UNL     1      -4.866   2.104 -31.459  1.00  0.00    -0.338 N 
HETATM    3  C   UNL     1      -5.174   2.614 -30.126  1.00  0.00     0.154 C 
HETATM    4  C   UNL     1      -5.195   0.768 -31.695  1.00  0.00     0.322 C 
HETATM    5  N   UNL     1      -4.805   0.282 -32.918  1.00  0.00    -0.309 N 
HETATM    6  O   UNL     1      -5.857   0.138 -30.874  1.00  0.00    -0.247 OA
HETATM    7  H   UNL     1      -4.081   0.796 -33.389  1.00  0.00     0.170 HD
BRANCH   5   8
HETATM    8  C   UNL     1      -5.178  -0.939 -33.523  1.00  0.00     0.036 A 
HETATM    9  C   UNL     1      -4.420  -2.111 -33.449  1.00  0.00     0.039 A 
HETATM   10  C   UNL     1      -4.898  -3.257 -34.071  1.00  0.00    -0.024 A 
HETATM   11  C   UNL     1      -6.113  -3.267 -34.734  1.00  0.00    -0.026 A 
HETATM   12  C   UNL     1      -4.286  -4.607 -34.140  1.00  0.00     0.207 C 
HETATM   13  C   UNL     1      -6.373  -4.632 -35.252  1.00  0.00     0.207 C 
HETATM   14  C   UNL     1      -6.889  -2.127 -34.812  1.00  0.00     0.012 A 
HETATM   15  O   UNL     1      -5.124  -5.338 -35.067  1.00  0.00    -0.382 OA
HETATM   16  C   UNL     1      -6.409  -0.958 -34.210  1.00  0.00     0.030 A 
ENDBRANCH   5   8
ENDBRANCH   1   2
BRANCH   1  17
HETATM   17  C   UNL     1      -6.004   3.727 -33.010  1.00  0.00     0.026 C 
BRANCH  17  18
HETATM   18  C   UNL     1      -6.709   2.886 -34.080  1.00  0.00     0.060 C 
BRANCH  18  19
HETATM   19  C   UNL     1      -8.040   2.368 -33.660  1.00  0.00     0.030 A 
HETATM   20  N   UNL     1      -8.279   1.735 -32.471  1.00  0.00    -0.282 N 
HETATM   21  H   UNL     1      -7.634   1.544 -31.707  1.00  0.00     0.189 HD
HETATM   22  N   UNL     1      -9.546   1.314 -32.334  1.00  0.00    -0.174 NA
HETATM   23  C   UNL     1     -10.157   1.656 -33.479  1.00  0.00     0.089 A 
HETATM   24  C   UNL     1      -9.246   2.343 -34.328  1.00  0.00     0.060 A 
BRANCH  23  25
HETATM   25  C   UNL     1     -11.561   1.310 -33.734  1.00  0.00    -0.005 A 
HETATM   26  C   UNL     1     -12.447   2.234 -34.315  1.00  0.00     0.017 A 
HETATM   27  C   UNL     1     -13.776   1.882 -34.570  1.00  0.00     0.043 A 
HETATM   28  C   UNL     1     -14.226   0.608 -34.245  1.00  0.00     0.116 A 
HETATM   29  F   UNL     1     -15.499   0.274 -34.494  1.00  0.00    -0.206 F 
HETATM   30  C   UNL     1     -13.373  -0.322 -33.669  1.00  0.00     0.043 A 
HETATM   31  C   UNL     1     -12.044   0.029 -33.414  1.00  0.00     0.017 A 
ENDBRANCH  23  25
ENDBRANCH  18  19
ENDBRANCH  17  18
ENDBRANCH   1  17
TORSDOF 6
ENDMDL
MODEL 2
REMARK VINA RESULT:      -8.9      4.998      8.348
REMARK  6 active torsions:
REMARK  status: ('A' for Active; 'I' for Inactive)
REMARK       I    between atoms: N_2  and  C_3 
REMARK    1  A    between atoms: N_2  and  C_15 
REMARK       I    between atoms: C_3  and  N_4 
REMARK    2  A    between atoms: N_4  and  C_5 
REMARK    3  A    between atoms: C_15  and  C_16 
REMARK    4  A    between atoms: C_16  and  C_17 
REMARK    5  A    between atoms: C_17  and  C_18 
REMARK    6  A    between atoms: C_22  and  C_23 
ROOT
HETATM    1  C   UNL     1      -6.238   3.231 -34.156  1.00  0.00     0.127 C 
ENDROOT
BRANCH   1   2
HETATM    2  N   UNL     1      -6.487   2.532 -32.892  1.00  0.00    -0.338 N 
HETATM    3  C   UNL     1      -7.344   3.232 -31.940  1.00  0.00     0.154 C 
HETATM    4  C   UNL     1      -6.363   1.154 -32.706  1.00  0.00     0.322 C 
HETATM    5  N   UNL     1      -5.475   0.532 -33.547  1.00  0.00    -0.309 N 
HETATM    6  O   UNL     1      -7.075   0.570 -31.892  1.00  0.00    -0.247 OA
HETATM    7  H   UNL     1      -4.793   1.125 -33.989  1.00  0.00     0.170 HD
BRANCH   5   8
HETATM    8  C   UNL     1      -5.296  -0.855 -33.746  1.00  0.00     0.036 A 
HETATM    9  C   UNL     1      -6.170  -1.656 -34.488  1.00  0.00     0.039 A 
HETATM   10  C   UNL     1      -5.882  -3.006 -34.629  1.00  0.00    -0.024 A 
HETATM   11  C   UNL     1      -4.742  -3.565 -34.077  1.00  0.00    -0.026 A 
HETATM   12  C   UNL     1      -6.643  -4.054 -35.354  1.00  0.00     0.207 C 
HETATM   13  C   UNL     1      -4.683  -5.004 -34.432  1.00  0.00     0.207 C 
HETATM   14  C   UNL     1      -3.854  -2.795 -33.352  1.00  0.00     0.012 A 
HETATM   15  O   UNL     1      -5.980  -5.293 -35.004  1.00  0.00    -0.382 OA
HETATM   16  C   UNL     1      -4.143  -1.436 -33.180  1.00  0.00     0.030 A 
ENDBRANCH   5   8
ENDBRANCH   1   2
BRANCH   1  17
HETATM   17  C   UNL     1      -5.720   4.667 -33.982  1.00  0.00     0.026 C 
BRANCH  17  18
HETATM   18  C   UNL     1      -4.469   4.984 -34.808  1.00  0.00     0.060 C 
BRANCH  18  19
HETATM   19  C   UNL     1      -3.354   5.571 -34.014  1.00  0.00     0.030 A 
HETATM   20  N   UNL     1      -2.376   6.370 -34.538  1.00  0.00    -0.282 N 
HETATM   21  H   UNL     1      -2.263   6.702 -35.493  1.00  0.00     0.189 HD
HETATM   22  N   UNL     1      -1.450   6.740 -33.639  1.00  0.00    -0.174 NA
HETATM   23  C   UNL     1      -1.814   6.145 -32.492  1.00  0.00     0.089 A 
HETATM   24  C   UNL     1      -3.022   5.420 -32.685  1.00  0.00     0.060 A 
BRANCH  23  25
HETATM   25  C   UNL     1      -1.006   6.270 -31.272  1.00  0.00    -0.005 A 
HETATM   26  C   UNL     1      -1.003   7.454 -30.515  1.00  0.00     0.017 A 
HETATM   27  C   UNL     1      -0.244   7.549 -29.344  1.00  0.00     0.043 A 
HETATM   28  C   UNL     1       0.515   6.463 -28.925  1.00  0.00     0.116 A 
HETATM   29  F   UNL     1       1.237   6.558 -27.802  1.00  0.00    -0.206 F 
HETATM   30  C   UNL     1       0.531   5.283 -29.654  1.00  0.00     0.043 A 
HETATM   31  C   UNL     1      -0.227   5.187 -30.825  1.00  0.00     0.017 A 
ENDBRANCH  23  25
ENDBRANCH  18  19
ENDBRANCH  17  18
ENDBRANCH   1  17
TORSDOF 6
ENDMDL
MODEL 3
REMARK VINA RESULT:      -8.9      5.891      9.396
REMARK  6 active torsions:
REMARK  status: ('A' for Active; 'I' for Inactive)
REMARK       I    between atoms: N_2  and  C_3 
REMARK    1  A    between atoms: N_2  and  C_15 
REMARK       I    between atoms: C_3  and  N_4 
REMARK    2  A    between atoms: N_4  and  C_5 
REMARK    3  A    between atoms: C_15  and  C_16 
REMARK    4  A    between atoms: C_16  and  C_17 
REMARK    5  A    between atoms: C_17  and  C_18 
REMARK    6  A    between atoms: C_22  and  C_23 
ROOT
HETATM    1  C   UNL     1      -4.091   3.190 -32.819  1.00  0.00     0.127 C 
ENDROOT
BRANCH   1   2
HETATM    2  N   UNL     1      -4.524   2.304 -31.733  1.00  0.00    -0.338 N 
HETATM    3  C   UNL     1      -4.887   2.966 -30.484  1.00  0.00     0.154 C 
HETATM    4  C   UNL     1      -5.023   1.013 -31.910  1.00  0.00     0.322 C 
HETATM    5  N   UNL     1      -4.587   0.372 -33.042  1.00  0.00    -0.309 N 
HETATM    6  O   UNL     1      -5.852   0.555 -31.127  1.00  0.00    -0.247 OA
HETATM    7  H   UNL     1      -3.750   0.737 -33.464  1.00  0.00     0.170 HD
BRANCH   5   8
HETATM    8  C   UNL     1      -5.075  -0.832 -33.598  1.00  0.00     0.036 A 
HETATM    9  C   UNL     1      -4.380  -2.044 -33.566  1.00  0.00     0.039 A 
HETATM   10  C   UNL     1      -4.969  -3.167 -34.132  1.00  0.00    -0.024 A 
HETATM   11  C   UNL     1      -6.231  -3.116 -34.697  1.00  0.00    -0.026 A 
HETATM   12  C   UNL     1      -4.441  -4.551 -34.228  1.00  0.00     0.207 C 
HETATM   13  C   UNL     1      -6.608  -4.469 -35.173  1.00  0.00     0.207 C 
HETATM   14  C   UNL     1      -6.946  -1.934 -34.731  1.00  0.00     0.012 A 
HETATM   15  O   UNL     1      -5.389  -5.243 -35.075  1.00  0.00    -0.382 OA
HETATM   16  C   UNL     1      -6.356  -0.788 -34.186  1.00  0.00     0.030 A 
ENDBRANCH   5   8
ENDBRANCH   1   2
BRANCH   1  17
HETATM   17  C   UNL     1      -2.643   3.684 -32.680  1.00  0.00     0.026 C 
BRANCH  17  18
HETATM   18  C   UNL     1      -2.496   5.208 -32.719  1.00  0.00     0.060 C 
BRANCH  18  19
HETATM   19  C   UNL     1      -2.172   5.817 -31.400  1.00  0.00     0.030 A 
HETATM   20  N   UNL     1      -3.078   6.476 -30.614  1.00  0.00    -0.282 N 
HETATM   21  H   UNL     1      -4.071   6.630 -30.774  1.00  0.00     0.189 HD
HETATM   22  N   UNL     1      -2.544   6.982 -29.491  1.00  0.00    -0.174 NA
HETATM   23  C   UNL     1      -1.240   6.671 -29.550  1.00  0.00     0.089 A 
HETATM   24  C   UNL     1      -0.974   5.917 -30.726  1.00  0.00     0.060 A 
BRANCH  23  25
HETATM   25  C   UNL     1      -0.299   7.108 -28.511  1.00  0.00    -0.005 A 
HETATM   26  C   UNL     1      -0.345   6.573 -27.211  1.00  0.00     0.017 A 
HETATM   27  C   UNL     1       0.572   6.984 -26.239  1.00  0.00     0.043 A 
HETATM   28  C   UNL     1       1.537   7.930 -26.559  1.00  0.00     0.116 A 
HETATM   29  F   UNL     1       2.415   8.318 -25.625  1.00  0.00    -0.206 F 
HETATM   30  C   UNL     1       1.605   8.475 -27.833  1.00  0.00     0.043 A 
HETATM   31  C   UNL     1       0.689   8.065 -28.806  1.00  0.00     0.017 A 
ENDBRANCH  23  25
ENDBRANCH  18  19
ENDBRANCH  17  18
ENDBRANCH   1  17
TORSDOF 6
ENDMDL
MODEL 4
REMARK VINA RESULT:      -8.8      5.837     10.079
REMARK  6 active torsions:
REMARK  status: ('A' for Active; 'I' for Inactive)
REMARK       I    between atoms: N_2  and  C_3 
REMARK    1  A    between atoms: N_2  and  C_15 
REMARK       I    between atoms: C_3  and  N_4 
REMARK    2  A    between atoms: N_4  and  C_5 
REMARK    3  A    between atoms: C_15  and  C_16 
REMARK    4  A    between atoms: C_16  and  C_17 
REMARK    5  A    between atoms: C_17  and  C_18 
REMARK    6  A    between atoms: C_22  and  C_23 
ROOT
HETATM    1  C   UNL     1      -3.103   4.652 -31.897  1.00  0.00     0.127 C 
ENDROOT
BRANCH   1   2
HETATM    2  N   UNL     1      -1.800   5.152 -32.348  1.00  0.00    -0.338 N 
HETATM    3  C   UNL     1      -1.589   5.155 -33.793  1.00  0.00     0.154 C 
HETATM    4  C   UNL     1      -0.970   5.995 -31.607  1.00  0.00     0.322 C 
HETATM    5  N   UNL     1      -1.116   5.901 -30.245  1.00  0.00    -0.309 N 
HETATM    6  O   UNL     1      -0.237   6.801 -32.174  1.00  0.00    -0.247 OA
HETATM    7  H   UNL     1      -1.553   5.063 -29.903  1.00  0.00     0.170 HD
BRANCH   5   8
HETATM    8  C   UNL     1      -0.586   6.761 -29.257  1.00  0.00     0.036 A 
HETATM    9  C   UNL     1      -1.087   8.037 -28.983  1.00  0.00     0.039 A 
HETATM   10  C   UNL     1      -0.494   8.785 -27.975  1.00  0.00    -0.024 A 
HETATM   11  C   UNL     1       0.557   8.285 -27.224  1.00  0.00    -0.026 A 
HETATM   12  C   UNL     1      -0.833  10.150 -27.500  1.00  0.00     0.207 C 
HETATM   13  C   UNL     1       0.946   9.287 -26.202  1.00  0.00     0.207 C 
HETATM   14  C   UNL     1       1.062   7.022 -27.464  1.00  0.00     0.012 A 
HETATM   15  O   UNL     1       0.227  10.486 -26.574  1.00  0.00    -0.382 OA
HETATM   16  C   UNL     1       0.491   6.265 -28.493  1.00  0.00     0.030 A 
ENDBRANCH   5   8
ENDBRANCH   1   2
BRANCH   1  17
HETATM   17  C   UNL     1      -3.397   3.206 -32.325  1.00  0.00     0.026 C 
BRANCH  17  18
HETATM   18  C   UNL     1      -3.137   2.165 -31.231  1.00  0.00     0.060 C 
BRANCH  18  19
HETATM   19  C   UNL     1      -3.449   0.769 -31.641  1.00  0.00     0.030 A 
HETATM   20  N   UNL     1      -2.782  -0.334 -31.183  1.00  0.00    -0.282 N 
HETATM   21  H   UNL     1      -2.023  -0.388 -30.507  1.00  0.00     0.189 HD
HETATM   22  N   UNL     1      -3.209  -1.483 -31.729  1.00  0.00    -0.174 NA
HETATM   23  C   UNL     1      -4.171  -1.126 -32.595  1.00  0.00     0.089 A 
HETATM   24  C   UNL     1      -4.366   0.282 -32.548  1.00  0.00     0.060 A 
BRANCH  23  25
HETATM   25  C   UNL     1      -4.852  -2.117 -33.438  1.00  0.00    -0.005 A 
HETATM   26  C   UNL     1      -6.144  -1.883 -33.940  1.00  0.00     0.017 A 
HETATM   27  C   UNL     1      -6.771  -2.828 -34.759  1.00  0.00     0.043 A 
HETATM   28  C   UNL     1      -6.112  -4.009 -35.078  1.00  0.00     0.116 A 
HETATM   29  F   UNL     1      -6.715  -4.909 -35.865  1.00  0.00    -0.206 F 
HETATM   30  C   UNL     1      -4.837  -4.265 -34.594  1.00  0.00     0.043 A 
HETATM   31  C   UNL     1      -4.210  -3.321 -33.776  1.00  0.00     0.017 A 
ENDBRANCH  23  25
ENDBRANCH  18  19
ENDBRANCH  17  18
ENDBRANCH   1  17
TORSDOF 6
ENDMDL
MODEL 5
REMARK VINA RESULT:      -8.6      3.199      6.594
REMARK  6 active torsions:
REMARK  status: ('A' for Active; 'I' for Inactive)
REMARK       I    between atoms: N_2  and  C_3 
REMARK    1  A    between atoms: N_2  and  C_15 
REMARK       I    between atoms: C_3  and  N_4 
REMARK    2  A    between atoms: N_4  and  C_5 
REMARK    3  A    between atoms: C_15  and  C_16 
REMARK    4  A    between atoms: C_16  and  C_17 
REMARK    5  A    between atoms: C_17  and  C_18 
REMARK    6  A    between atoms: C_22  and  C_23 
ROOT
HETATM    1  C   UNL     1      -4.191   4.177 -32.959  1.00  0.00     0.127 C 
ENDROOT
BRANCH   1   2
HETATM    2  N   UNL     1      -5.143   4.553 -31.909  1.00  0.00    -0.338 N 
HETATM    3  C   UNL     1      -4.843   5.792 -31.198  1.00  0.00     0.154 C 
HETATM    4  C   UNL     1      -6.464   4.110 -31.836  1.00  0.00     0.322 C 
HETATM    5  N   UNL     1      -6.702   2.893 -32.426  1.00  0.00    -0.309 N 
HETATM    6  O   UNL     1      -7.333   4.825 -31.343  1.00  0.00    -0.247 OA
HETATM    7  H   UNL     1      -5.897   2.309 -32.576  1.00  0.00     0.170 HD
BRANCH   5   8
HETATM    8  C   UNL     1      -7.951   2.294 -32.702  1.00  0.00     0.036 A 
HETATM    9  C   UNL     1      -8.913   2.850 -33.551  1.00  0.00     0.039 A 
HETATM   10  C   UNL     1     -10.099   2.160 -33.759  1.00  0.00    -0.024 A 
HETATM   11  C   UNL     1     -10.334   0.929 -33.170  1.00  0.00    -0.026 A 
HETATM   12  C   UNL     1     -11.264   2.535 -34.600  1.00  0.00     0.207 C 
HETATM   13  C   UNL     1     -11.655   0.421 -33.612  1.00  0.00     0.207 C 
HETATM   14  C   UNL     1      -9.395   0.350 -32.338  1.00  0.00     0.012 A 
HETATM   15  O   UNL     1     -12.271   1.543 -34.287  1.00  0.00    -0.382 OA
HETATM   16  C   UNL     1      -8.205   1.045 -32.099  1.00  0.00     0.030 A 
ENDBRANCH   5   8
ENDBRANCH   1   2
BRANCH   1  17
HETATM   17  C   UNL     1      -2.988   3.369 -32.448  1.00  0.00     0.026 C 
BRANCH  17  18
HETATM   18  C   UNL     1      -3.312   2.444 -31.270  1.00  0.00     0.060 C 
BRANCH  18  19
HETATM   19  C   UNL     1      -3.550   1.028 -31.663  1.00  0.00     0.030 A 
HETATM   20  N   UNL     1      -2.797  -0.027 -31.227  1.00  0.00    -0.282 N 
HETATM   21  H   UNL     1      -2.011  -0.029 -30.581  1.00  0.00     0.189 HD
HETATM   22  N   UNL     1      -3.170  -1.205 -31.753  1.00  0.00    -0.174 NA
HETATM   23  C   UNL     1      -4.185  -0.914 -32.582  1.00  0.00     0.089 A 
HETATM   24  C   UNL     1      -4.468   0.479 -32.533  1.00  0.00     0.060 A 
BRANCH  23  25
HETATM   25  C   UNL     1      -4.833  -1.951 -33.395  1.00  0.00    -0.005 A 
HETATM   26  C   UNL     1      -6.117  -1.760 -33.935  1.00  0.00     0.017 A 
HETATM   27  C   UNL     1      -6.712  -2.748 -34.725  1.00  0.00     0.043 A 
HETATM   28  C   UNL     1      -6.029  -3.932 -34.978  1.00  0.00     0.116 A 
HETATM   29  F   UNL     1      -6.601  -4.875 -35.737  1.00  0.00    -0.206 F 
HETATM   30  C   UNL     1      -4.761  -4.147 -34.456  1.00  0.00     0.043 A 
HETATM   31  C   UNL     1      -4.166  -3.159 -33.667  1.00  0.00     0.017 A 
ENDBRANCH  23  25
ENDBRANCH  18  19
ENDBRANCH  17  18
ENDBRANCH   1  17
TORSDOF 6
ENDMDL
MODEL 6
REMARK VINA RESULT:      -8.5      5.116      9.002
REMARK  6 active torsions:
REMARK  status: ('A' for Active; 'I' for Inactive)
REMARK       I    between atoms: N_2  and  C_3 
REMARK    1  A    between atoms: N_2  and  C_15 
REMARK       I    between atoms: C_3  and  N_4 
REMARK    2  A    between atoms: N_4  and  C_5 
REMARK    3  A    between atoms: C_15  and  C_16 
REMARK    4  A    between atoms: C_16  and  C_17 
REMARK    5  A    between atoms: C_17  and  C_18 
REMARK    6  A    between atoms: C_22  and  C_23 
ROOT
HETATM    1  C   UNL     1      -5.078   5.506 -33.341  1.00  0.00     0.127 C 
ENDROOT
BRANCH   1   2
HETATM    2  N   UNL     1      -3.720   5.299 -33.855  1.00  0.00    -0.338 N 
HETATM    3  C   UNL     1      -3.601   5.200 -35.306  1.00  0.00     0.154 C 
HETATM    4  C   UNL     1      -2.550   5.620 -33.165  1.00  0.00     0.322 C 
HETATM    5  N   UNL     1      -2.661   5.608 -31.797  1.00  0.00    -0.309 N 
HETATM    6  O   UNL     1      -1.542   5.961 -33.778  1.00  0.00    -0.247 OA
HETATM    7  H   UNL     1      -3.439   5.094 -31.420  1.00  0.00     0.170 HD
BRANCH   5   8
HETATM    8  C   UNL     1      -1.733   6.092 -30.849  1.00  0.00     0.036 A 
HETATM    9  C   UNL     1      -1.884   7.294 -30.151  1.00  0.00     0.039 A 
HETATM   10  C   UNL     1      -0.912   7.658 -29.229  1.00  0.00    -0.024 A 
HETATM   11  C   UNL     1       0.181   6.849 -28.970  1.00  0.00    -0.026 A 
HETATM   12  C   UNL     1      -0.841   8.870 -28.375  1.00  0.00     0.207 C 
HETATM   13  C   UNL     1       1.013   7.476 -27.915  1.00  0.00     0.207 C 
HETATM   14  C   UNL     1       0.349   5.650 -29.636  1.00  0.00     0.012 A 
HETATM   15  O   UNL     1       0.470   8.808 -27.765  1.00  0.00    -0.382 OA
HETATM   16  C   UNL     1      -0.610   5.280 -30.585  1.00  0.00     0.030 A 
ENDBRANCH   5   8
ENDBRANCH   1   2
BRANCH   1  17
HETATM   17  C   UNL     1      -6.086   4.441 -33.800  1.00  0.00     0.026 C 
BRANCH  17  18
HETATM   18  C   UNL     1      -6.219   3.253 -32.841  1.00  0.00     0.060 C 
BRANCH  18  19
HETATM   19  C   UNL     1      -6.278   1.931 -33.523  1.00  0.00     0.030 A 
HETATM   20  N   UNL     1      -7.104   1.644 -34.574  1.00  0.00    -0.282 N 
HETATM   21  H   UNL     1      -7.760   2.254 -35.057  1.00  0.00     0.189 HD
HETATM   22  N   UNL     1      -7.016   0.372 -34.993  1.00  0.00    -0.174 NA
HETATM   23  C   UNL     1      -6.122  -0.207 -34.175  1.00  0.00     0.089 A 
HETATM   24  C   UNL     1      -5.619   0.750 -33.252  1.00  0.00     0.060 A 
BRANCH  23  25
HETATM   25  C   UNL     1      -5.793  -1.634 -34.284  1.00  0.00    -0.005 A 
HETATM   26  C   UNL     1      -6.729  -2.565 -34.767  1.00  0.00     0.017 A 
HETATM   27  C   UNL     1      -6.392  -3.917 -34.885  1.00  0.00     0.043 A 
HETATM   28  C   UNL     1      -5.121  -4.345 -34.521  1.00  0.00     0.116 A 
HETATM   29  F   UNL     1      -4.802  -5.640 -34.638  1.00  0.00    -0.206 F 
HETATM   30  C   UNL     1      -4.179  -3.447 -34.040  1.00  0.00     0.043 A 
HETATM   31  C   UNL     1      -4.515  -2.096 -33.922  1.00  0.00     0.017 A 
ENDBRANCH  23  25
ENDBRANCH  18  19
ENDBRANCH  17  18
ENDBRANCH   1  17
TORSDOF 6
ENDMDL
MODEL 7
REMARK VINA RESULT:      -8.3      3.550      6.618
REMARK  6 active torsions:
REMARK  status: ('A' for Active; 'I' for Inactive)
REMARK       I    between atoms: N_2  and  C_3 
REMARK    1  A    between atoms: N_2  and  C_15 
REMARK       I    between atoms: C_3  and  N_4 
REMARK    2  A    between atoms: N_4  and  C_5 
REMARK    3  A    between atoms: C_15  and  C_16 
REMARK    4  A    between atoms: C_16  and  C_17 
REMARK    5  A    between atoms: C_17  and  C_18 
REMARK    6  A    between atoms: C_22  and  C_23 
ROOT
HETATM    1  C   UNL     1     -12.142   4.391 -33.185  1.00  0.00     0.127 C 
ENDROOT
BRANCH   1   2
HETATM    2  N   UNL     1     -11.645   4.311 -31.807  1.00  0.00    -0.338 N 
HETATM    3  C   UNL     1     -12.660   4.099 -30.780  1.00  0.00     0.154 C 
HETATM    4  C   UNL     1     -10.336   3.986 -31.450  1.00  0.00     0.322 C 
HETATM    5  N   UNL     1      -9.385   4.288 -32.393  1.00  0.00    -0.309 N 
HETATM    6  O   UNL     1     -10.107   3.401 -30.395  1.00  0.00    -0.247 OA
HETATM    7  H   UNL     1      -9.650   4.965 -33.089  1.00  0.00     0.170 HD
BRANCH   5   8
HETATM    8  C   UNL     1      -8.030   3.889 -32.416  1.00  0.00     0.036 A 
HETATM    9  C   UNL     1      -7.277   3.618 -31.270  1.00  0.00     0.039 A 
HETATM   10  C   UNL     1      -5.957   3.216 -31.417  1.00  0.00    -0.024 A 
HETATM   11  C   UNL     1      -5.384   3.054 -32.667  1.00  0.00    -0.026 A 
HETATM   12  C   UNL     1      -4.960   2.877 -30.371  1.00  0.00     0.207 C 
HETATM   13  C   UNL     1      -3.989   2.577 -32.507  1.00  0.00     0.207 C 
HETATM   14  C   UNL     1      -6.109   3.302 -33.817  1.00  0.00     0.012 A 
HETATM   15  O   UNL     1      -3.715   2.717 -31.093  1.00  0.00    -0.382 OA
HETATM   16  C   UNL     1      -7.434   3.731 -33.684  1.00  0.00     0.030 A 
ENDBRANCH   5   8
ENDBRANCH   1   2
BRANCH   1  17
HETATM   17  C   UNL     1     -12.667   3.056 -33.735  1.00  0.00     0.026 C 
BRANCH  17  18
HETATM   18  C   UNL     1     -11.734   2.390 -34.752  1.00  0.00     0.060 C 
BRANCH  18  19
HETATM   19  C   UNL     1     -10.749   1.454 -34.144  1.00  0.00     0.030 A 
HETATM   20  N   UNL     1     -10.969   0.747 -32.994  1.00  0.00    -0.282 N 
HETATM   21  H   UNL     1     -11.800   0.721 -32.407  1.00  0.00     0.189 HD
HETATM   22  N   UNL     1      -9.918   0.004 -32.612  1.00  0.00    -0.174 NA
HETATM   23  C   UNL     1      -8.965   0.248 -33.525  1.00  0.00     0.089 A 
HETATM   24  C   UNL     1      -9.460   1.138 -34.518  1.00  0.00     0.060 A 
BRANCH  23  25
HETATM   25  C   UNL     1      -7.627  -0.350 -33.418  1.00  0.00    -0.005 A 
HETATM   26  C   UNL     1      -7.067  -1.082 -34.479  1.00  0.00     0.017 A 
HETATM   27  C   UNL     1      -5.784  -1.627 -34.369  1.00  0.00     0.043 A 
HETATM   28  C   UNL     1      -5.057  -1.445 -33.200  1.00  0.00     0.116 A 
HETATM   29  F   UNL     1      -3.827  -1.966 -33.100  1.00  0.00    -0.206 F 
HETATM   30  C   UNL     1      -5.586  -0.728 -32.136  1.00  0.00     0.043 A 
HETATM   31  C   UNL     1      -6.869  -0.182 -32.246  1.00  0.00     0.017 A 
ENDBRANCH  23  25
ENDBRANCH  18  19
ENDBRANCH  17  18
ENDBRANCH   1  17
TORSDOF 6
ENDMDL
MODEL 8
REMARK VINA RESULT:      -8.2      2.843      5.902
REMARK  6 active torsions:
REMARK  status: ('A' for Active; 'I' for Inactive)
REMARK       I    between atoms: N_2  and  C_3 
REMARK    1  A    between atoms: N_2  and  C_15 
REMARK       I    between atoms: C_3  and  N_4 
REMARK    2  A    between atoms: N_4  and  C_5 
REMARK    3  A    between atoms: C_15  and  C_16 
REMARK    4  A    between atoms: C_16  and  C_17 
REMARK    5  A    between atoms: C_17  and  C_18 
REMARK    6  A    between atoms: C_22  and  C_23 
ROOT
HETATM    1  C   UNL     1      -4.224  -1.577 -32.616  1.00  0.00     0.127 C 
ENDROOT
BRANCH   1   2
HETATM    2  N   UNL     1      -4.905  -1.850 -33.887  1.00  0.00    -0.338 N 
HETATM    3  C   UNL     1      -4.435  -3.023 -34.617  1.00  0.00     0.154 C 
HETATM    4  C   UNL     1      -6.179  -1.389 -34.223  1.00  0.00     0.322 C 
HETATM    5  N   UNL     1      -6.559  -0.228 -33.598  1.00  0.00    -0.309 N 
HETATM    6  O   UNL     1      -6.902  -2.050 -34.964  1.00  0.00    -0.247 OA
HETATM    7  H   UNL     1      -5.818   0.333 -33.216  1.00  0.00     0.170 HD
BRANCH   5   8
HETATM    8  C   UNL     1      -7.846   0.356 -33.565  1.00  0.00     0.036 A 
HETATM    9  C   UNL     1      -8.179   1.546 -34.218  1.00  0.00     0.039 A 
HETATM   10  C   UNL     1      -9.483   2.015 -34.127  1.00  0.00    -0.024 A 
HETATM   11  C   UNL     1     -10.456   1.320 -33.431  1.00  0.00    -0.026 A 
HETATM   12  C   UNL     1     -10.079   3.239 -34.719  1.00  0.00     0.207 C 
HETATM   13  C   UNL     1     -11.748   2.038 -33.550  1.00  0.00     0.207 C 
HETATM   14  C   UNL     1     -10.157   0.134 -32.788  1.00  0.00     0.012 A 
HETATM   15  O   UNL     1     -11.404   3.313 -34.140  1.00  0.00    -0.382 OA
HETATM   16  C   UNL     1      -8.842  -0.340 -32.850  1.00  0.00     0.030 A 
ENDBRANCH   5   8
ENDBRANCH   1   2
BRANCH   1  17
HETATM   17  C   UNL     1      -3.238  -0.401 -32.679  1.00  0.00     0.026 C 
BRANCH  17  18
HETATM   18  C   UNL     1      -3.173   0.428 -31.392  1.00  0.00     0.060 C 
BRANCH  18  19
HETATM   19  C   UNL     1      -4.473   1.042 -31.004  1.00  0.00     0.030 A 
HETATM   20  N   UNL     1      -5.281   0.564 -30.009  1.00  0.00    -0.282 N 
HETATM   21  H   UNL     1      -5.131  -0.226 -29.386  1.00  0.00     0.189 HD
HETATM   22  N   UNL     1      -6.426   1.253 -29.872  1.00  0.00    -0.174 NA
HETATM   23  C   UNL     1      -6.383   2.198 -30.824  1.00  0.00     0.089 A 
HETATM   24  C   UNL     1      -5.158   2.111 -31.540  1.00  0.00     0.060 A 
BRANCH  23  25
HETATM   25  C   UNL     1      -7.499   3.131 -31.030  1.00  0.00    -0.005 A 
HETATM   26  C   UNL     1      -7.343   4.299 -31.797  1.00  0.00     0.017 A 
HETATM   27  C   UNL     1      -8.421   5.166 -32.001  1.00  0.00     0.043 A 
HETATM   28  C   UNL     1      -9.658   4.871 -31.440  1.00  0.00     0.116 A 
HETATM   29  F   UNL     1     -10.689   5.702 -31.641  1.00  0.00    -0.206 F 
HETATM   30  C   UNL     1      -9.839   3.725 -30.678  1.00  0.00     0.043 A 
HETATM   31  C   UNL     1      -8.762   2.858 -30.474  1.00  0.00     0.017 A 
ENDBRANCH  23  25
ENDBRANCH  18  19
ENDBRANCH  17  18
ENDBRANCH   1  17
TORSDOF 6
ENDMDL
MODEL 9
REMARK VINA RESULT:      -8.2      3.628      6.431
REMARK  6 active torsions:
REMARK  status: ('A' for Active; 'I' for Inactive)
REMARK       I    between atoms: N_2  and  C_3 
REMARK    1  A    between atoms: N_2  and  C_15 
REMARK       I    between atoms: C_3  and  N_4 
REMARK    2  A    between atoms: N_4  and  C_5 
REMARK    3  A    between atoms: C_15  and  C_16 
REMARK    4  A    between atoms: C_16  and  C_17 
REMARK    5  A    between atoms: C_17  and  C_18 
REMARK    6  A    between atoms: C_22  and  C_23 
ROOT
HETATM    1  C   UNL     1     -10.077   2.159 -32.342  1.00  0.00     0.127 C 
ENDROOT
BRANCH   1   2
HETATM    2  N   UNL     1      -9.512   2.190 -33.695  1.00  0.00    -0.338 N 
HETATM    3  C   UNL     1      -9.746   3.416 -34.451  1.00  0.00     0.154 C 
HETATM    4  C   UNL     1      -8.453   1.393 -34.134  1.00  0.00     0.322 C 
HETATM    5  N   UNL     1      -8.314   0.198 -33.474  1.00  0.00    -0.309 N 
HETATM    6  O   UNL     1      -7.680   1.807 -34.994  1.00  0.00    -0.247 OA
HETATM    7  H   UNL     1      -9.123  -0.129 -32.974  1.00  0.00     0.170 HD
BRANCH   5   8
HETATM    8  C   UNL     1      -7.231  -0.707 -33.539  1.00  0.00     0.036 A 
HETATM    9  C   UNL     1      -7.200  -1.829 -34.372  1.00  0.00     0.039 A 
HETATM   10  C   UNL     1      -6.072  -2.637 -34.363  1.00  0.00    -0.024 A 
HETATM   11  C   UNL     1      -4.975  -2.342 -33.572  1.00  0.00    -0.026 A 
HETATM   12  C   UNL     1      -5.800  -3.871 -35.142  1.00  0.00     0.207 C 
HETATM   13  C   UNL     1      -3.916  -3.352 -33.809  1.00  0.00     0.207 C 
HETATM   14  C   UNL     1      -4.973  -1.232 -32.749  1.00  0.00     0.012 A 
HETATM   15  O   UNL     1      -4.563  -4.384 -34.589  1.00  0.00    -0.382 OA
HETATM   16  C   UNL     1      -6.112  -0.420 -32.729  1.00  0.00     0.030 A 
ENDBRANCH   5   8
ENDBRANCH   1   2
BRANCH   1  17
HETATM   17  C   UNL     1      -9.829   3.443 -31.534  1.00  0.00     0.026 C 
BRANCH  17  18
HETATM   18  C   UNL     1      -8.743   3.306 -30.463  1.00  0.00     0.060 C 
BRANCH  18  19
HETATM   19  C   UNL     1      -7.358   3.273 -31.008  1.00  0.00     0.030 A 
HETATM   20  N   UNL     1      -6.350   2.500 -30.500  1.00  0.00    -0.282 N 
HETATM   21  H   UNL     1      -6.378   1.838 -29.728  1.00  0.00     0.189 HD
HETATM   22  N   UNL     1      -5.175   2.674 -31.126  1.00  0.00    -0.174 NA
HETATM   23  C   UNL     1      -5.408   3.610 -32.059  1.00  0.00     0.089 A 
HETATM   24  C   UNL     1      -6.777   3.993 -32.030  1.00  0.00     0.060 A 
BRANCH  23  25
HETATM   25  C   UNL     1      -4.335   4.115 -32.925  1.00  0.00    -0.005 A 
HETATM   26  C   UNL     1      -4.620   4.763 -34.140  1.00  0.00     0.017 A 
HETATM   27  C   UNL     1      -3.588   5.257 -34.943  1.00  0.00     0.043 A 
HETATM   28  C   UNL     1      -2.267   5.105 -34.538  1.00  0.00     0.116 A 
HETATM   29  F   UNL     1      -1.282   5.583 -35.308  1.00  0.00    -0.206 F 
HETATM   30  C   UNL     1      -1.958   4.469 -33.344  1.00  0.00     0.043 A 
HETATM   31  C   UNL     1      -2.990   3.975 -32.541  1.00  0.00     0.017 A 
ENDBRANCH  23  25
ENDBRANCH  18  19
ENDBRANCH  17  18
ENDBRANCH   1  17
TORSDOF 6
ENDMDL
MODEL 10
REMARK VINA RESULT:      -8.1      4.155      7.536
REMARK  6 active torsions:
REMARK  status: ('A' for Active; 'I' for Inactive)
REMARK       I    between atoms: N_2  and  C_3 
REMARK    1  A    between atoms: N_2  and  C_15 
REMARK       I    between atoms: C_3  and  N_4 
REMARK    2  A    between atoms: N_4  and  C_5 
REMARK    3  A    between atoms: C_15  and  C_16 
REMARK    4  A    between atoms: C_16  and  C_17 
REMARK    5  A    between atoms: C_17  and  C_18 
REMARK    6  A    between atoms: C_22  and  C_23 
ROOT
HETATM    1  C   UNL     1     -10.549   3.053 -32.776  1.00  0.00     0.127 C 
ENDROOT
BRANCH   1   2
HETATM    2  N   UNL     1     -10.173   4.192 -33.619  1.00  0.00    -0.338 N 
HETATM    3  C   UNL     1     -11.267   5.071 -34.021  1.00  0.00     0.154 C 
HETATM    4  C   UNL     1      -8.890   4.737 -33.695  1.00  0.00     0.322 C 
HETATM    5  N   UNL     1      -7.871   3.863 -33.411  1.00  0.00    -0.309 N 
HETATM    6  O   UNL     1      -8.737   5.934 -33.924  1.00  0.00    -0.247 OA
HETATM    7  H   UNL     1      -8.094   2.885 -33.477  1.00  0.00     0.170 HD
BRANCH   5   8
HETATM    8  C   UNL     1      -6.507   4.164 -33.195  1.00  0.00     0.036 A 
HETATM    9  C   UNL     1      -5.604   4.471 -34.216  1.00  0.00     0.039 A 
HETATM   10  C   UNL     1      -4.290   4.767 -33.880  1.00  0.00    -0.024 A 
HETATM   11  C   UNL     1      -3.868   4.791 -32.562  1.00  0.00    -0.026 A 
HETATM   12  C   UNL     1      -3.154   5.116 -34.769  1.00  0.00     0.207 C 
HETATM   13  C   UNL     1      -2.437   5.181 -32.516  1.00  0.00     0.207 C 
HETATM   14  C   UNL     1      -4.742   4.505 -31.532  1.00  0.00     0.012 A 
HETATM   15  O   UNL     1      -2.000   5.133 -33.894  1.00  0.00    -0.382 OA
HETATM   16  C   UNL     1      -6.064   4.181 -31.856  1.00  0.00     0.030 A 
ENDBRANCH   5   8
ENDBRANCH   1   2
BRANCH   1  17
HETATM   17  C   UNL     1     -11.385   1.988 -33.503  1.00  0.00     0.026 C 
BRANCH  17  18
HETATM   18  C   UNL     1     -10.768   0.586 -33.479  1.00  0.00     0.060 C 
BRANCH  18  19
HETATM   19  C   UNL     1      -9.293   0.573 -33.679  1.00  0.00     0.030 A 
HETATM   20  N   UNL     1      -8.672   0.926 -34.845  1.00  0.00    -0.282 N 
HETATM   21  H   UNL     1      -9.083   1.262 -35.713  1.00  0.00     0.189 HD
HETATM   22  N   UNL     1      -7.337   0.789 -34.804  1.00  0.00    -0.174 NA
HETATM   23  C   UNL     1      -7.070   0.304 -33.581  1.00  0.00     0.089 A 
HETATM   24  C   UNL     1      -8.275   0.178 -32.836  1.00  0.00     0.060 A 
BRANCH  23  25
HETATM   25  C   UNL     1      -5.701  -0.034 -33.170  1.00  0.00    -0.005 A 
HETATM   26  C   UNL     1      -4.831   0.943 -32.655  1.00  0.00     0.017 A 
HETATM   27  C   UNL     1      -3.538   0.600 -32.249  1.00  0.00     0.043 A 
HETATM   28  C   UNL     1      -3.108  -0.717 -32.355  1.00  0.00     0.116 A 
HETATM   29  F   UNL     1      -1.870  -1.041 -31.962  1.00  0.00    -0.206 F 
HETATM   30  C   UNL     1      -3.947  -1.700 -32.861  1.00  0.00     0.043 A 
HETATM   31  C   UNL     1      -5.240  -1.359 -33.267  1.00  0.00     0.017 A 
ENDBRANCH  23  25
ENDBRANCH  18  19
ENDBRANCH  17  18
ENDBRANCH   1  17
TORSDOF 6
ENDMDL
