MODEL 1
REMARK VINA RESULT:      -8.7      0.000      0.000
REMARK  8 active torsions:
REMARK  status: ('A' for Active; 'I' for Inactive)
REMARK    1  A    between atoms: C_1  and  C_15 
REMARK    2  A    between atoms: C_2  and  C_5 
REMARK    3  A    between atoms: C_5  and  C_13 
REMARK       I    between atoms: C_7  and  N_8 
REMARK    4  A    between atoms: N_8  and  C_9 
REMARK       I    between atoms: C_13  and  N_14 
REMARK    5  A    between atoms: N_14  and  C_15 
REMARK    6  A    between atoms: C_23  and  C_24 
REMARK    7  A    between atoms: C_24  and  O_25 
REMARK    8  A    between atoms: C_27  and  O_28 
ROOT
HETATM    1  C           1      -5.813   1.715 -32.546  0.00  0.00     0.056 C 
HETATM    2  C           1      -7.734   3.931 -33.352  0.00  0.00     0.055 C 
HETATM    3  C           1      -8.152   2.449 -33.202  0.00  0.00     0.012 C 
HETATM    4  C           1      -4.184   4.714 -33.242  0.00  0.00     0.173 A 
HETATM    5  S           1      -5.477   5.318 -33.568  0.00  0.00    -0.055 SA
HETATM    6  C           1      -6.242   4.091 -33.305  0.00  0.00     0.012 A 
HETATM    7  C           1      -5.413   3.107 -32.945  0.00  0.00     0.056 A 
HETATM    8  C           1      -7.315   1.713 -32.101  0.00  0.00    -0.030 C 
HETATM    9  C           1      -7.415   2.395 -30.719  0.00  0.00     0.016 C 
HETATM   10  C           1      -9.703   2.220 -33.247  0.00  0.00     0.008 C 
HETATM   11  C           1     -10.223   2.647 -34.650  0.00  0.00     0.020 C 
HETATM   12  C           1      -9.986   0.712 -33.091  0.00  0.00     0.128 C 
HETATM   13  C           1      -9.303   0.089 -31.880  0.00  0.00     0.033 C 
HETATM   14  C           1      -7.784   0.243 -31.990  0.00  0.00     0.013 C 
HETATM   15  N           1      -4.217   3.495 -32.916  0.00  0.00    -0.227 NA
ENDROOT
BRANCH   1  16
HETATM   16  C           1      -4.790   1.125 -31.548  0.00  0.00     0.114 C 
BRANCH  16  17
HETATM   17  C           1      -4.032  -0.074 -32.111  0.00  0.00     0.218 C 
HETATM   18  N           1      -4.601  -0.668 -33.203  0.00  0.00    -0.355 N 
HETATM   19  H           1      -5.528  -0.379 -33.522  0.00  0.00     0.162 HD
HETATM   20  O           1      -3.003  -0.460 -31.614  0.00  0.00    -0.274 OA
BRANCH  18  21
HETATM   21  C           1      -3.963  -1.785 -33.902  0.00  0.00     0.187 C 
BRANCH  21  22
HETATM   22  C           1      -5.025  -2.769 -34.299  0.00  0.00     0.070 A 
HETATM   23  C           1      -6.329  -2.498 -34.455  0.00  0.00     0.036 A 
HETATM   24  C           1      -6.873  -3.661 -34.832  0.00  0.00     0.027 A 
HETATM   25  C           1      -5.837  -4.508 -34.858  0.00  0.00     0.142 A 
HETATM   26  O           1      -4.785  -3.954 -34.539  0.00  0.00    -0.325 OA
ENDBRANCH  21  22
ENDBRANCH  18  21
ENDBRANCH  16  17
ENDBRANCH   1  16
BRANCH  10  27
HETATM   27  C           1     -10.486   3.038 -32.202  0.00  0.00     0.176 C 
BRANCH  27  28
HETATM   28  O           1     -11.872   3.073 -32.495  0.00  0.00    -0.400 OA
HETATM   29  H           1     -12.363   2.623 -31.806  0.00  0.00     0.209 HD
ENDBRANCH  27  28
ENDBRANCH  10  27
BRANCH   4  30
HETATM   30  N           1      -3.085   5.491 -33.184  0.00  0.00    -0.306 N 
HETATM   31  C           1      -2.172   5.734 -34.171  0.00  0.00     0.219 C 
HETATM   32  C           1      -1.083   6.712 -33.780  0.00  0.00     0.117 C 
HETATM   33  O           1      -2.222   5.210 -35.256  0.00  0.00    -0.274 OA
HETATM   34  H           1      -2.937   5.876 -32.263  0.00  0.00     0.171 HD
ENDBRANCH   4  30
BRANCH  12  35
HETATM   35  O           1     -11.368   0.464 -32.987  0.00  0.00    -0.395 OA
HETATM   36  H           1     -11.613   0.346 -32.068  0.00  0.00     0.210 HD
ENDBRANCH  12  35
TORSDOF 8
ENDMDL
MODEL 2
REMARK VINA RESULT:      -8.1      1.879      2.584
REMARK  8 active torsions:
REMARK  status: ('A' for Active; 'I' for Inactive)
REMARK    1  A    between atoms: C_1  and  C_15 
REMARK    2  A    between atoms: C_2  and  C_5 
REMARK    3  A    between atoms: C_5  and  C_13 
REMARK       I    between atoms: C_7  and  N_8 
REMARK    4  A    between atoms: N_8  and  C_9 
REMARK       I    between atoms: C_13  and  N_14 
REMARK    5  A    between atoms: N_14  and  C_15 
REMARK    6  A    between atoms: C_23  and  C_24 
REMARK    7  A    between atoms: C_24  and  O_25 
REMARK    8  A    between atoms: C_27  and  O_28 
ROOT
HETATM    1  C           1      -8.485   1.727 -33.914  0.00  0.00     0.056 C 
HETATM    2  C           1      -9.889   4.424 -33.918  0.00  0.00     0.055 C 
HETATM    3  C           1     -10.598   3.091 -34.254  0.00  0.00     0.012 C 
HETATM    4  C           1      -6.264   4.394 -33.616  0.00  0.00     0.173 A 
HETATM    5  S           1      -7.395   5.319 -33.705  0.00  0.00    -0.055 SA
HETATM    6  C           1      -8.399   4.255 -33.846  0.00  0.00     0.012 A 
HETATM    7  C           1      -7.799   3.061 -33.842  0.00  0.00     0.056 A 
HETATM    8  C           1      -9.978   1.885 -33.470  0.00  0.00    -0.030 C 
HETATM    9  C           1     -10.013   2.088 -31.939  0.00  0.00     0.016 C 
HETATM   10  C           1     -12.159   3.209 -34.347  0.00  0.00     0.008 C 
HETATM   11  C           1     -12.512   4.163 -35.523  0.00  0.00     0.020 C 
HETATM   12  C           1     -12.741   1.822 -34.689  0.00  0.00     0.128 C 
HETATM   13  C           1     -12.256   0.715 -33.760  0.00  0.00     0.033 C 
HETATM   14  C           1     -10.733   0.585 -33.839  0.00  0.00     0.013 C 
HETATM   15  N           1      -6.553   3.168 -33.707  0.00  0.00    -0.227 NA
ENDROOT
BRANCH   1  16
HETATM   16  C           1      -7.651   0.651 -33.182  0.00  0.00     0.114 C 
BRANCH  16  17
HETATM   17  C           1      -6.630  -0.031 -34.089  0.00  0.00     0.218 C 
HETATM   18  N           1      -5.691  -0.791 -33.448  0.00  0.00    -0.355 N 
HETATM   19  H           1      -5.633  -0.785 -32.428  0.00  0.00     0.162 HD
HETATM   20  O           1      -6.663   0.100 -35.287  0.00  0.00    -0.274 OA
BRANCH  18  21
HETATM   21  C           1      -4.686  -1.565 -34.178  0.00  0.00     0.187 C 
BRANCH  21  22
HETATM   22  C           1      -5.219  -2.950 -34.403  0.00  0.00     0.070 A 
HETATM   23  C           1      -6.447  -3.257 -34.847  0.00  0.00     0.036 A 
HETATM   24  C           1      -6.458  -4.593 -34.912  0.00  0.00     0.027 A 
HETATM   25  C           1      -5.236  -4.946 -34.496  0.00  0.00     0.142 A 
HETATM   26  O           1      -4.550  -3.967 -34.207  0.00  0.00    -0.325 OA
ENDBRANCH  21  22
ENDBRANCH  18  21
ENDBRANCH  16  17
ENDBRANCH   1  16
BRANCH  10  27
HETATM   27  C           1     -12.818   3.785 -33.078  0.00  0.00     0.176 C 
BRANCH  27  28
HETATM   28  O           1     -14.018   4.475 -33.379  0.00  0.00    -0.400 OA
HETATM   29  H           1     -14.211   5.111 -32.688  0.00  0.00     0.209 HD
ENDBRANCH  27  28
ENDBRANCH  10  27
BRANCH   4  30
HETATM   30  N           1      -5.038   4.871 -33.325  0.00  0.00    -0.306 N 
HETATM   31  C           1      -4.082   5.320 -34.192  0.00  0.00     0.219 C 
HETATM   32  C           1      -2.832   5.845 -33.515  0.00  0.00     0.117 C 
HETATM   33  O           1      -4.215   5.294 -35.389  0.00  0.00    -0.274 OA
HETATM   34  H           1      -4.833   4.820 -32.339  0.00  0.00     0.171 HD
ENDBRANCH   4  30
BRANCH  12  35
HETATM   35  O           1     -14.148   1.839 -34.649  0.00  0.00    -0.395 OA
HETATM   36  H           1     -14.504   1.745 -35.534  0.00  0.00     0.210 HD
ENDBRANCH  12  35
TORSDOF 8
ENDMDL
MODEL 3
REMARK VINA RESULT:      -7.9      2.921      6.083
REMARK  8 active torsions:
REMARK  status: ('A' for Active; 'I' for Inactive)
REMARK    1  A    between atoms: C_1  and  C_15 
REMARK    2  A    between atoms: C_2  and  C_5 
REMARK    3  A    between atoms: C_5  and  C_13 
REMARK       I    between atoms: C_7  and  N_8 
REMARK    4  A    between atoms: N_8  and  C_9 
REMARK       I    between atoms: C_13  and  N_14 
REMARK    5  A    between atoms: N_14  and  C_15 
REMARK    6  A    between atoms: C_23  and  C_24 
REMARK    7  A    between atoms: C_24  and  O_25 
REMARK    8  A    between atoms: C_27  and  O_28 
ROOT
HETATM    1  C           1      -7.201   0.740 -33.211  0.00  0.00     0.056 C 
HETATM    2  C           1      -7.798   3.284 -31.655  0.00  0.00     0.055 C 
HETATM    3  C           1      -6.394   2.639 -31.733  0.00  0.00     0.012 C 
HETATM    4  C           1     -10.614   1.391 -32.963  0.00  0.00     0.173 A 
HETATM    5  S           1     -10.309   2.582 -32.169  0.00  0.00    -0.055 SA
HETATM    6  C           1      -8.855   2.377 -32.215  0.00  0.00     0.012 A 
HETATM    7  C           1      -8.574   1.264 -32.900  0.00  0.00     0.056 A 
HETATM    8  C           1      -6.162   1.906 -33.098  0.00  0.00    -0.030 C 
HETATM    9  C           1      -6.342   2.840 -34.315  0.00  0.00     0.016 C 
HETATM   10  C           1      -5.249   3.541 -31.157  0.00  0.00     0.008 C 
HETATM   11  C           1      -5.509   3.760 -29.639  0.00  0.00     0.020 C 
HETATM   12  C           1      -3.910   2.787 -31.289  0.00  0.00     0.128 C 
HETATM   13  C           1      -3.642   2.269 -32.697  0.00  0.00     0.033 C 
HETATM   14  C           1      -4.741   1.292 -33.121  0.00  0.00     0.013 C 
HETATM   15  N           1      -9.617   0.706 -33.326  0.00  0.00    -0.227 NA
ENDROOT
BRANCH   1  16
HETATM   16  C           1      -7.215  -0.054 -34.538  0.00  0.00     0.114 C 
BRANCH  16  17
HETATM   17  C           1      -6.746  -1.497 -34.373  0.00  0.00     0.218 C 
HETATM   18  N           1      -5.493  -1.765 -34.848  0.00  0.00    -0.355 N 
HETATM   19  H           1      -4.980  -1.056 -35.377  0.00  0.00     0.162 HD
HETATM   20  O           1      -7.446  -2.333 -33.858  0.00  0.00    -0.274 OA
BRANCH  18  21
HETATM   21  C           1      -4.871  -3.082 -34.705  0.00  0.00     0.187 C 
BRANCH  21  22
HETATM   22  C           1      -4.041  -3.085 -33.454  0.00  0.00     0.070 A 
HETATM   23  C           1      -3.479  -4.163 -32.886  0.00  0.00     0.036 A 
HETATM   24  C           1      -2.826  -3.683 -31.822  0.00  0.00     0.027 A 
HETATM   25  C           1      -3.069  -2.367 -31.863  0.00  0.00     0.142 A 
HETATM   26  O           1      -3.778  -2.061 -32.820  0.00  0.00    -0.325 OA
ENDBRANCH  21  22
ENDBRANCH  18  21
ENDBRANCH  16  17
ENDBRANCH   1  16
BRANCH  10  27
HETATM   27  C           1      -5.162   4.934 -31.811  0.00  0.00     0.176 C 
BRANCH  27  28
HETATM   28  O           1      -4.437   5.847 -31.006  0.00  0.00    -0.400 OA
HETATM   29  H           1      -3.525   5.884 -31.296  0.00  0.00     0.209 HD
ENDBRANCH  27  28
ENDBRANCH  10  27
BRANCH   4  30
HETATM   30  N           1     -11.882   1.165 -33.360  0.00  0.00    -0.306 N 
HETATM   31  C           1     -12.492   1.586 -34.508  0.00  0.00     0.219 C 
HETATM   32  C           1     -13.918   1.098 -34.664  0.00  0.00     0.117 C 
HETATM   33  O           1     -11.949   2.290 -35.321  0.00  0.00    -0.274 OA
HETATM   34  H           1     -12.416   0.664 -32.666  0.00  0.00     0.171 HD
ENDBRANCH   4  30
BRANCH  12  35
HETATM   35  O           1      -2.828   3.606 -30.914  0.00  0.00    -0.395 OA
HETATM   36  H           1      -2.863   3.789 -29.974  0.00  0.00     0.210 HD
ENDBRANCH  12  35
TORSDOF 8
ENDMDL
MODEL 4
REMARK VINA RESULT:      -7.8      3.779      7.795
REMARK  8 active torsions:
REMARK  status: ('A' for Active; 'I' for Inactive)
REMARK    1  A    between atoms: C_1  and  C_15 
REMARK    2  A    between atoms: C_2  and  C_5 
REMARK    3  A    between atoms: C_5  and  C_13 
REMARK       I    between atoms: C_7  and  N_8 
REMARK    4  A    between atoms: N_8  and  C_9 
REMARK       I    between atoms: C_13  and  N_14 
REMARK    5  A    between atoms: N_14  and  C_15 
REMARK    6  A    between atoms: C_23  and  C_24 
REMARK    7  A    between atoms: C_24  and  O_25 
REMARK    8  A    between atoms: C_27  and  O_28 
ROOT
HETATM    1  C           1      -9.800   1.814 -33.360  0.00  0.00     0.056 C 
HETATM    2  C           1      -7.569   2.069 -31.308  0.00  0.00     0.055 C 
HETATM    3  C           1      -7.591   0.992 -32.419  0.00  0.00     0.012 C 
HETATM    4  C           1     -10.575   4.054 -30.808  0.00  0.00     0.173 A 
HETATM    5  S           1      -9.285   3.758 -30.182  0.00  0.00    -0.055 SA
HETATM    6  C           1      -8.883   2.789 -31.211  0.00  0.00     0.012 A 
HETATM    7  C           1      -9.851   2.668 -32.125  0.00  0.00     0.056 A 
HETATM    8  C           1      -8.307   1.503 -33.715  0.00  0.00    -0.030 C 
HETATM    9  C           1      -7.664   2.786 -34.286  0.00  0.00     0.016 C 
HETATM   10  C           1      -6.243   0.203 -32.563  0.00  0.00     0.008 C 
HETATM   11  C           1      -5.988  -0.582 -31.245  0.00  0.00     0.020 C 
HETATM   12  C           1      -6.395  -0.835 -33.694  0.00  0.00     0.128 C 
HETATM   13  C           1      -6.908  -0.239 -34.999  0.00  0.00     0.033 C 
HETATM   14  C           1      -8.287   0.390 -34.790  0.00  0.00     0.013 C 
HETATM   15  N           1     -10.828   3.416 -31.867  0.00  0.00    -0.227 NA
ENDROOT
BRANCH   1  16
HETATM   16  C           1     -10.669   2.432 -34.479  0.00  0.00     0.114 C 
BRANCH  16  17
HETATM   17  C           1     -12.009   1.724 -34.653  0.00  0.00     0.218 C 
HETATM   18  N           1     -12.621   1.335 -33.494  0.00  0.00    -0.355 N 
HETATM   19  H           1     -12.134   1.420 -32.600  0.00  0.00     0.162 HD
HETATM   20  O           1     -12.483   1.529 -35.744  0.00  0.00    -0.274 OA
BRANCH  18  21
HETATM   21  C           1     -13.943   0.706 -33.486  0.00  0.00     0.187 C 
BRANCH  21  22
HETATM   22  C           1     -14.929   1.671 -32.893  0.00  0.00     0.070 A 
HETATM   23  C           1     -14.626   2.739 -32.139  0.00  0.00     0.036 A 
HETATM   24  C           1     -15.807   3.304 -31.865  0.00  0.00     0.027 A 
HETATM   25  C           1     -16.694   2.512 -32.480  0.00  0.00     0.142 A 
HETATM   26  O           1     -16.146   1.576 -33.060  0.00  0.00    -0.325 OA
ENDBRANCH  21  22
ENDBRANCH  18  21
ENDBRANCH  16  17
ENDBRANCH   1  16
BRANCH  10  27
HETATM   27  C           1      -5.015   1.103 -32.804  0.00  0.00     0.176 C 
BRANCH  27  28
HETATM   28  O           1      -3.812   0.459 -32.426  0.00  0.00    -0.400 OA
HETATM   29  H           1      -3.143   0.595 -33.099  0.00  0.00     0.209 HD
ENDBRANCH  27  28
ENDBRANCH  10  27
BRANCH   4  30
HETATM   30  N           1     -11.340   5.047 -30.312  0.00  0.00    -0.306 N 
HETATM   31  C           1     -11.400   6.348 -30.725  0.00  0.00     0.219 C 
HETATM   32  C           1     -12.419   7.187 -29.980  0.00  0.00     0.117 C 
HETATM   33  O           1     -10.699   6.795 -31.598  0.00  0.00    -0.274 OA
HETATM   34  H           1     -11.874   4.754 -29.509  0.00  0.00     0.171 HD
ENDBRANCH   4  30
BRANCH  12  35
HETATM   35  O           1      -5.172  -1.478 -33.960  0.00  0.00    -0.395 OA
HETATM   36  H           1      -4.450  -0.848 -33.908  0.00  0.00     0.210 HD
ENDBRANCH  12  35
TORSDOF 8
ENDMDL
MODEL 5
REMARK VINA RESULT:      -7.8      2.588      5.833
REMARK  8 active torsions:
REMARK  status: ('A' for Active; 'I' for Inactive)
REMARK    1  A    between atoms: C_1  and  C_15 
REMARK    2  A    between atoms: C_2  and  C_5 
REMARK    3  A    between atoms: C_5  and  C_13 
REMARK       I    between atoms: C_7  and  N_8 
REMARK    4  A    between atoms: N_8  and  C_9 
REMARK       I    between atoms: C_13  and  N_14 
REMARK    5  A    between atoms: N_14  and  C_15 
REMARK    6  A    between atoms: C_23  and  C_24 
REMARK    7  A    between atoms: C_24  and  O_25 
REMARK    8  A    between atoms: C_27  and  O_28 
ROOT
HETATM    1  C           1      -5.857   2.177 -32.385  0.00  0.00     0.056 C 
HETATM    2  C           1      -6.951   4.833 -31.388  0.00  0.00     0.055 C 
HETATM    3  C           1      -5.448   4.470 -31.379  0.00  0.00     0.012 C 
HETATM    4  C           1      -9.333   2.192 -32.152  0.00  0.00     0.173 A 
HETATM    5  S           1      -9.273   3.564 -31.643  0.00  0.00    -0.055 SA
HETATM    6  C           1      -7.806   3.639 -31.699  0.00  0.00     0.012 A 
HETATM    7  C           1      -7.308   2.480 -32.141  0.00  0.00     0.056 A 
HETATM    8  C           1      -5.069   3.518 -32.564  0.00  0.00    -0.030 C 
HETATM    9  C           1      -5.424   4.113 -33.944  0.00  0.00     0.016 C 
HETATM   10  C           1      -4.505   5.681 -31.054  0.00  0.00     0.008 C 
HETATM   11  C           1      -4.811   6.170 -29.609  0.00  0.00     0.020 C 
HETATM   12  C           1      -3.044   5.190 -31.072  0.00  0.00     0.128 C 
HETATM   13  C           1      -2.672   4.440 -32.346  0.00  0.00     0.033 C 
HETATM   14  C           1      -3.555   3.200 -32.509  0.00  0.00     0.013 C 
HETATM   15  N           1      -8.219   1.652 -32.398  0.00  0.00    -0.227 NA
ENDROOT
BRANCH   1  16
HETATM   16  C           1      -5.708   1.126 -33.509  0.00  0.00     0.114 C 
BRANCH  16  17
HETATM   17  C           1      -5.227  -0.229 -32.998  0.00  0.00     0.218 C 
HETATM   18  N           1      -4.721  -1.069 -33.950  0.00  0.00    -0.355 N 
HETATM   19  H           1      -4.783  -0.823 -34.941  0.00  0.00     0.162 HD
HETATM   20  O           1      -5.297  -0.525 -31.831  0.00  0.00    -0.274 OA
BRANCH  18  21
HETATM   21  C           1      -4.156  -2.377 -33.613  0.00  0.00     0.187 C 
BRANCH  21  22
HETATM   22  C           1      -4.986  -3.441 -34.271  0.00  0.00     0.070 A 
HETATM   23  C           1      -6.180  -3.258 -34.855  0.00  0.00     0.036 A 
HETATM   24  C           1      -6.519  -4.466 -35.316  0.00  0.00     0.027 A 
HETATM   25  C           1      -5.494  -5.248 -34.956  0.00  0.00     0.142 A 
HETATM   26  O           1      -4.629  -4.618 -34.350  0.00  0.00    -0.325 OA
ENDBRANCH  21  22
ENDBRANCH  18  21
ENDBRANCH  16  17
ENDBRANCH   1  16
BRANCH  10  27
HETATM   27  C           1      -4.692   6.888 -31.993  0.00  0.00     0.176 C 
BRANCH  27  28
HETATM   28  O           1      -4.499   8.116 -31.313  0.00  0.00    -0.400 OA
HETATM   29  H           1      -5.333   8.582 -31.236  0.00  0.00     0.209 HD
ENDBRANCH  27  28
ENDBRANCH  10  27
BRANCH   4  30
HETATM   30  N           1     -10.529   1.645 -32.442  0.00  0.00    -0.306 N 
HETATM   31  C           1     -11.154   1.584 -33.655  0.00  0.00     0.219 C 
HETATM   32  C           1     -12.473   0.838 -33.635  0.00  0.00     0.117 C 
HETATM   33  O           1     -10.704   2.087 -34.654  0.00  0.00    -0.274 OA
HETATM   34  H           1     -11.000   1.297 -31.621  0.00  0.00     0.171 HD
ENDBRANCH   4  30
BRANCH  12  35
HETATM   35  O           1      -2.146   6.264 -30.923  0.00  0.00    -0.395 OA
HETATM   36  H           1      -1.409   6.003 -30.367  0.00  0.00     0.210 HD
ENDBRANCH  12  35
TORSDOF 8
ENDMDL
MODEL 6
REMARK VINA RESULT:      -7.7      3.638      6.380
REMARK  8 active torsions:
REMARK  status: ('A' for Active; 'I' for Inactive)
REMARK    1  A    between atoms: C_1  and  C_15 
REMARK    2  A    between atoms: C_2  and  C_5 
REMARK    3  A    between atoms: C_5  and  C_13 
REMARK       I    between atoms: C_7  and  N_8 
REMARK    4  A    between atoms: N_8  and  C_9 
REMARK       I    between atoms: C_13  and  N_14 
REMARK    5  A    between atoms: N_14  and  C_15 
REMARK    6  A    between atoms: C_23  and  C_24 
REMARK    7  A    between atoms: C_24  and  O_25 
REMARK    8  A    between atoms: C_27  and  O_28 
ROOT
HETATM    1  C           1      -5.167   3.202 -31.717  0.00  0.00     0.056 C 
HETATM    2  C           1      -8.101   3.316 -30.926  0.00  0.00     0.055 C 
HETATM    3  C           1      -7.598   2.720 -32.262  0.00  0.00     0.012 C 
HETATM    4  C           1      -5.713   5.131 -28.869  0.00  0.00     0.173 A 
HETATM    5  S           1      -7.148   4.868 -28.990  0.00  0.00    -0.055 SA
HETATM    6  C           1      -7.009   4.049 -30.202  0.00  0.00     0.012 A 
HETATM    7  C           1      -5.723   3.984 -30.562  0.00  0.00     0.056 A 
HETATM    8  C           1      -6.178   2.075 -32.117  0.00  0.00    -0.030 C 
HETATM    9  C           1      -6.131   0.972 -31.038  0.00  0.00     0.016 C 
HETATM   10  C           1      -8.700   1.945 -33.065  0.00  0.00     0.008 C 
HETATM   11  C           1      -9.817   2.951 -33.466  0.00  0.00     0.020 C 
HETATM   12  C           1      -8.076   1.407 -34.369  0.00  0.00     0.128 C 
HETATM   13  C           1      -6.797   0.611 -34.146  0.00  0.00     0.033 C 
HETATM   14  C           1      -5.735   1.489 -33.480  0.00  0.00     0.013 C 
HETATM   15  N           1      -4.987   4.624 -29.768  0.00  0.00    -0.227 NA
ENDROOT
BRANCH   1  16
HETATM   16  C           1      -3.715   2.762 -31.421  0.00  0.00     0.114 C 
BRANCH  16  17
HETATM   17  C           1      -2.673   3.699 -32.025  0.00  0.00     0.218 C 
HETATM   18  N           1      -1.947   4.428 -31.124  0.00  0.00    -0.355 N 
HETATM   19  H           1      -2.191   4.411 -30.131  0.00  0.00     0.162 HD
HETATM   20  O           1      -2.513   3.782 -33.217  0.00  0.00    -0.274 OA
BRANCH  18  21
HETATM   21  C           1      -0.864   5.321 -31.538  0.00  0.00     0.187 C 
BRANCH  21  22
HETATM   22  C           1      -0.233   5.910 -30.309  0.00  0.00     0.070 A 
HETATM   23  C           1      -0.053   7.217 -30.068  0.00  0.00     0.036 A 
HETATM   24  C           1       0.515   7.262 -28.858  0.00  0.00     0.027 A 
HETATM   25  C           1       0.619   5.975 -28.503  0.00  0.00     0.142 A 
HETATM   26  O           1       0.179   5.224 -29.372  0.00  0.00    -0.325 OA
ENDBRANCH  21  22
ENDBRANCH  18  21
ENDBRANCH  16  17
ENDBRANCH   1  16
BRANCH  10  27
HETATM   27  C           1      -9.372   0.810 -32.268  0.00  0.00     0.176 C 
BRANCH  27  28
HETATM   28  O           1     -10.675   0.531 -32.750  0.00  0.00    -0.400 OA
HETATM   29  H           1     -11.131  -0.050 -32.141  0.00  0.00     0.209 HD
ENDBRANCH  27  28
ENDBRANCH  10  27
BRANCH   4  30
HETATM   30  N           1      -5.246   5.766 -27.776  0.00  0.00    -0.306 N 
HETATM   31  C           1      -4.857   7.071 -27.663  0.00  0.00     0.219 C 
HETATM   32  C           1      -4.436   7.472 -26.264  0.00  0.00     0.117 C 
HETATM   33  O           1      -4.841   7.835 -28.595  0.00  0.00    -0.274 OA
HETATM   34  H           1      -5.141   5.144 -26.988  0.00  0.00     0.171 HD
ENDBRANCH   4  30
BRANCH  12  35
HETATM   35  O           1      -8.984   0.586 -35.064  0.00  0.00    -0.395 OA
HETATM   36  H           1      -8.750  -0.337 -34.948  0.00  0.00     0.210 HD
ENDBRANCH  12  35
TORSDOF 8
ENDMDL
MODEL 7
REMARK VINA RESULT:      -7.7      3.399      6.658
REMARK  8 active torsions:
REMARK  status: ('A' for Active; 'I' for Inactive)
REMARK    1  A    between atoms: C_1  and  C_15 
REMARK    2  A    between atoms: C_2  and  C_5 
REMARK    3  A    between atoms: C_5  and  C_13 
REMARK       I    between atoms: C_7  and  N_8 
REMARK    4  A    between atoms: N_8  and  C_9 
REMARK       I    between atoms: C_13  and  N_14 
REMARK    5  A    between atoms: N_14  and  C_15 
REMARK    6  A    between atoms: C_23  and  C_24 
REMARK    7  A    between atoms: C_24  and  O_25 
REMARK    8  A    between atoms: C_27  and  O_28 
ROOT
HETATM    1  C           1      -4.608   3.283 -32.455  0.00  0.00     0.056 C 
HETATM    2  C           1      -7.337   2.677 -33.652  0.00  0.00     0.055 C 
HETATM    3  C           1      -6.186   1.646 -33.583  0.00  0.00     0.012 C 
HETATM    4  C           1      -6.576   6.134 -32.816  0.00  0.00     0.173 A 
HETATM    5  S           1      -7.631   5.307 -33.405  0.00  0.00    -0.055 SA
HETATM    6  C           1      -6.865   4.058 -33.299  0.00  0.00     0.012 A 
HETATM    7  C           1      -5.663   4.305 -32.770  0.00  0.00     0.056 A 
HETATM    8  C           1      -5.274   1.871 -32.329  0.00  0.00    -0.030 C 
HETATM    9  C           1      -6.061   1.819 -31.002  0.00  0.00     0.016 C 
HETATM   10  C           1      -6.621   0.185 -33.947  0.00  0.00     0.008 C 
HETATM   11  C           1      -7.093   0.165 -35.428  0.00  0.00     0.020 C 
HETATM   12  C           1      -5.390  -0.739 -33.844  0.00  0.00     0.128 C 
HETATM   13  C           1      -4.654  -0.624 -32.515  0.00  0.00     0.033 C 
HETATM   14  C           1      -4.150   0.807 -32.309  0.00  0.00     0.013 C 
HETATM   15  N           1      -5.518   5.524 -32.497  0.00  0.00    -0.227 NA
ENDROOT
BRANCH   1  16
HETATM   16  C           1      -3.741   3.753 -31.264  0.00  0.00     0.114 C 
BRANCH  16  17
HETATM   17  C           1      -2.347   4.208 -31.685  0.00  0.00     0.218 C 
HETATM   18  N           1      -1.607   4.812 -30.707  0.00  0.00    -0.355 N 
HETATM   19  H           1      -2.030   5.034 -29.803  0.00  0.00     0.162 HD
HETATM   20  O           1      -1.940   4.041 -32.807  0.00  0.00    -0.274 OA
BRANCH  18  21
HETATM   21  C           1      -0.226   5.244 -30.931  0.00  0.00     0.187 C 
BRANCH  21  22
HETATM   22  C           1       0.211   6.075 -29.759  0.00  0.00     0.070 A 
HETATM   23  C           1       0.426   7.399 -29.771  0.00  0.00     0.036 A 
HETATM   24  C           1       0.772   7.696 -28.513  0.00  0.00     0.027 A 
HETATM   25  C           1       0.732   6.517 -27.881  0.00  0.00     0.142 A 
HETATM   26  O           1       0.407   5.603 -28.637  0.00  0.00    -0.325 OA
ENDBRANCH  21  22
ENDBRANCH  18  21
ENDBRANCH  16  17
ENDBRANCH   1  16
BRANCH  10  27
HETATM   27  C           1      -7.784  -0.352 -33.090  0.00  0.00     0.176 C 
BRANCH  27  28
HETATM   28  O           1      -9.039  -0.117 -33.704  0.00  0.00    -0.400 OA
HETATM   29  H           1      -9.736  -0.524 -33.188  0.00  0.00     0.209 HD
ENDBRANCH  27  28
ENDBRANCH  10  27
BRANCH   4  30
HETATM   30  N           1      -6.826   7.428 -32.537  0.00  0.00    -0.306 N 
HETATM   31  C           1      -6.956   8.015 -31.310  0.00  0.00     0.219 C 
HETATM   32  C           1      -7.178   9.513 -31.360  0.00  0.00     0.117 C 
HETATM   33  O           1      -6.907   7.396 -30.277  0.00  0.00    -0.274 OA
HETATM   34  H           1      -6.979   7.977 -33.370  0.00  0.00     0.171 HD
ENDBRANCH   4  30
BRANCH  12  35
HETATM   35  O           1      -5.751  -2.087 -34.026  0.00  0.00    -0.395 OA
HETATM   36  H           1      -6.304  -2.179 -34.803  0.00  0.00     0.210 HD
ENDBRANCH  12  35
TORSDOF 8
ENDMDL
MODEL 8
REMARK VINA RESULT:      -7.7      2.753      7.187
REMARK  8 active torsions:
REMARK  status: ('A' for Active; 'I' for Inactive)
REMARK    1  A    between atoms: C_1  and  C_15 
REMARK    2  A    between atoms: C_2  and  C_5 
REMARK    3  A    between atoms: C_5  and  C_13 
REMARK       I    between atoms: C_7  and  N_8 
REMARK    4  A    between atoms: N_8  and  C_9 
REMARK       I    between atoms: C_13  and  N_14 
REMARK    5  A    between atoms: N_14  and  C_15 
REMARK    6  A    between atoms: C_23  and  C_24 
REMARK    7  A    between atoms: C_24  and  O_25 
REMARK    8  A    between atoms: C_27  and  O_28 
ROOT
HETATM    1  C           1      -5.942   3.987 -33.531  0.00  0.00     0.056 C 
HETATM    2  C           1      -7.617   1.805 -32.234  0.00  0.00     0.055 C 
HETATM    3  C           1      -6.074   1.752 -32.337  0.00  0.00     0.012 C 
HETATM    4  C           1      -9.355   4.408 -34.087  0.00  0.00     0.173 A 
HETATM    5  S           1      -9.609   3.176 -33.338  0.00  0.00    -0.055 SA
HETATM    6  C           1      -8.188   2.917 -33.066  0.00  0.00     0.012 A 
HETATM    7  C           1      -7.436   3.870 -33.625  0.00  0.00     0.056 A 
HETATM    8  C           1      -5.435   3.181 -32.287  0.00  0.00    -0.030 C 
HETATM    9  C           1      -5.817   3.962 -31.011  0.00  0.00     0.016 C 
HETATM   10  C           1      -5.422   0.605 -31.490  0.00  0.00     0.008 C 
HETATM   11  C           1      -5.912  -0.761 -32.050  0.00  0.00     0.020 C 
HETATM   12  C           1      -3.892   0.657 -31.679  0.00  0.00     0.128 C 
HETATM   13  C           1      -3.296   2.035 -31.420  0.00  0.00     0.033 C 
HETATM   14  C           1      -3.895   3.063 -32.383  0.00  0.00     0.013 C 
HETATM   15  N           1      -8.140   4.729 -34.216  0.00  0.00    -0.227 NA
ENDROOT
BRANCH   1  16
HETATM   16  C           1      -5.510   5.469 -33.624  0.00  0.00     0.114 C 
BRANCH  16  17
HETATM   17  C           1      -4.121   5.648 -34.229  0.00  0.00     0.218 C 
HETATM   18  N           1      -3.187   6.205 -33.400  0.00  0.00    -0.355 N 
HETATM   19  H           1      -3.463   6.572 -32.486  0.00  0.00     0.162 HD
HETATM   20  O           1      -3.878   5.317 -35.362  0.00  0.00    -0.274 OA
BRANCH  18  21
HETATM   21  C           1      -1.792   6.380 -33.805  0.00  0.00     0.187 C 
BRANCH  21  22
HETATM   22  C           1      -0.911   6.104 -32.621  0.00  0.00     0.070 A 
HETATM   23  C           1      -0.242   7.023 -31.908  0.00  0.00     0.036 A 
HETATM   24  C           1       0.377   6.322 -30.951  0.00  0.00     0.027 A 
HETATM   25  C           1       0.017   5.057 -31.194  0.00  0.00     0.142 A 
HETATM   26  O           1      -0.726   4.971 -32.171  0.00  0.00    -0.325 OA
ENDBRANCH  21  22
ENDBRANCH  18  21
ENDBRANCH  16  17
ENDBRANCH   1  16
BRANCH  10  27
HETATM   27  C           1      -5.793   0.644 -29.994  0.00  0.00     0.176 C 
BRANCH  27  28
HETATM   28  O           1      -6.780  -0.320 -29.674  0.00  0.00    -0.400 OA
HETATM   29  H           1      -7.194  -0.642 -30.475  0.00  0.00     0.209 HD
ENDBRANCH  27  28
ENDBRANCH  10  27
BRANCH   4  30
HETATM   30  N           1     -10.393   5.174 -34.475  0.00  0.00    -0.306 N 
HETATM   31  C           1     -11.404   4.849 -35.334  0.00  0.00     0.219 C 
HETATM   32  C           1     -12.447   5.936 -35.501  0.00  0.00     0.117 C 
HETATM   33  O           1     -11.460   3.795 -35.916  0.00  0.00    -0.274 OA
HETATM   34  H           1     -10.341   6.108 -34.096  0.00  0.00     0.171 HD
ENDBRANCH   4  30
BRANCH  12  35
HETATM   35  O           1      -3.245  -0.263 -30.833  0.00  0.00    -0.395 OA
HETATM   36  H           1      -3.781  -1.052 -30.732  0.00  0.00     0.210 HD
ENDBRANCH  12  35
TORSDOF 8
ENDMDL
MODEL 9
REMARK VINA RESULT:      -7.6      2.602      6.683
REMARK  8 active torsions:
REMARK  status: ('A' for Active; 'I' for Inactive)
REMARK    1  A    between atoms: C_1  and  C_15 
REMARK    2  A    between atoms: C_2  and  C_5 
REMARK    3  A    between atoms: C_5  and  C_13 
REMARK       I    between atoms: C_7  and  N_8 
REMARK    4  A    between atoms: N_8  and  C_9 
REMARK       I    between atoms: C_13  and  N_14 
REMARK    5  A    between atoms: N_14  and  C_15 
REMARK    6  A    between atoms: C_23  and  C_24 
REMARK    7  A    between atoms: C_24  and  O_25 
REMARK    8  A    between atoms: C_27  and  O_28 
ROOT
HETATM    1  C           1      -6.672   1.410 -32.520  0.00  0.00     0.056 C 
HETATM    2  C           1      -3.816   2.442 -32.361  0.00  0.00     0.055 C 
HETATM    3  C           1      -5.051   3.363 -32.494  0.00  0.00     0.012 C 
HETATM    4  C           1      -4.310  -1.137 -32.780  0.00  0.00     0.173 A 
HETATM    5  S           1      -3.247  -0.134 -32.683  0.00  0.00    -0.055 SA
HETATM    6  C           1      -4.175   1.001 -32.578  0.00  0.00     0.012 A 
HETATM    7  C           1      -5.436   0.565 -32.641  0.00  0.00     0.056 A 
HETATM    8  C           1      -6.314   2.753 -31.796  0.00  0.00    -0.030 C 
HETATM    9  C           1      -6.082   2.453 -30.299  0.00  0.00     0.016 C 
HETATM   10  C           1      -4.735   4.884 -32.282  0.00  0.00     0.008 C 
HETATM   11  C           1      -3.763   5.347 -33.404  0.00  0.00     0.020 C 
HETATM   12  C           1      -6.040   5.690 -32.442  0.00  0.00     0.128 C 
HETATM   13  C           1      -7.184   5.169 -31.582  0.00  0.00     0.033 C 
HETATM   14  C           1      -7.511   3.721 -31.953  0.00  0.00     0.013 C 
HETATM   15  N           1      -5.489  -0.686 -32.759  0.00  0.00    -0.227 NA
ENDROOT
BRANCH   1  16
HETATM   16  C           1      -7.834   0.585 -31.921  0.00  0.00     0.114 C 
BRANCH  16  17
HETATM   17  C           1      -8.934   0.282 -32.935  0.00  0.00     0.218 C 
HETATM   18  N           1     -10.210   0.505 -32.500  0.00  0.00    -0.355 N 
HETATM   19  H           1     -10.387   0.744 -31.522  0.00  0.00     0.162 HD
HETATM   20  O           1      -8.678  -0.127 -34.040  0.00  0.00    -0.274 OA
BRANCH  18  21
HETATM   21  C           1     -11.372   0.329 -33.373  0.00  0.00     0.187 C 
BRANCH  21  22
HETATM   22  C           1     -11.643   1.628 -34.077  0.00  0.00     0.070 A 
HETATM   23  C           1     -12.258   1.767 -35.261  0.00  0.00     0.036 A 
HETATM   24  C           1     -12.294   3.088 -35.469  0.00  0.00     0.027 A 
HETATM   25  C           1     -11.692   3.601 -34.389  0.00  0.00     0.142 A 
HETATM   26  O           1     -11.327   2.723 -33.609  0.00  0.00    -0.325 OA
ENDBRANCH  21  22
ENDBRANCH  18  21
ENDBRANCH  16  17
ENDBRANCH   1  16
BRANCH  10  27
HETATM   27  C           1      -4.057   5.199 -30.934  0.00  0.00     0.176 C 
BRANCH  27  28
HETATM   28  O           1      -3.123   6.257 -31.051  0.00  0.00    -0.400 OA
HETATM   29  H           1      -3.482   6.950 -31.608  0.00  0.00     0.209 HD
ENDBRANCH  27  28
ENDBRANCH  10  27
BRANCH   4  30
HETATM   30  N           1      -3.991  -2.445 -32.757  0.00  0.00    -0.306 N 
HETATM   31  C           1      -4.039  -3.341 -33.787  0.00  0.00     0.219 C 
HETATM   32  C           1      -3.549  -4.729 -33.423  0.00  0.00     0.117 C 
HETATM   33  O           1      -4.443  -3.059 -34.887  0.00  0.00    -0.274 OA
HETATM   34  H           1      -3.742  -2.762 -31.831  0.00  0.00     0.171 HD
ENDBRANCH   4  30
BRANCH  12  35
HETATM   35  O           1      -5.841   7.047 -32.126  0.00  0.00    -0.395 OA
HETATM   36  H           1      -5.482   7.130 -31.241  0.00  0.00     0.210 HD
ENDBRANCH  12  35
TORSDOF 8
ENDMDL
MODEL 10
REMARK VINA RESULT:      -7.4      2.653      6.291
REMARK  8 active torsions:
REMARK  status: ('A' for Active; 'I' for Inactive)
REMARK    1  A    between atoms: C_1  and  C_15 
REMARK    2  A    between atoms: C_2  and  C_5 
REMARK    3  A    between atoms: C_5  and  C_13 
REMARK       I    between atoms: C_7  and  N_8 
REMARK    4  A    between atoms: N_8  and  C_9 
REMARK       I    between atoms: C_13  and  N_14 
REMARK    5  A    between atoms: N_14  and  C_15 
REMARK    6  A    between atoms: C_23  and  C_24 
REMARK    7  A    between atoms: C_24  and  O_25 
REMARK    8  A    between atoms: C_27  and  O_28 
ROOT
HETATM    1  C           1      -4.144   3.071 -31.855  0.00  0.00     0.056 C 
HETATM    2  C           1      -5.482   5.793 -31.646  0.00  0.00     0.055 C 
HETATM    3  C           1      -4.033   5.515 -31.182  0.00  0.00     0.012 C 
HETATM    4  C           1      -7.555   2.943 -32.547  0.00  0.00     0.173 A 
HETATM    5  S           1      -7.642   4.381 -32.281  0.00  0.00    -0.055 SA
HETATM    6  C           1      -6.215   4.522 -31.963  0.00  0.00     0.012 A 
HETATM    7  C           1      -5.609   3.334 -32.055  0.00  0.00     0.056 A 
HETATM    8  C           1      -3.345   4.404 -32.046  0.00  0.00    -0.030 C 
HETATM    9  C           1      -3.322   4.747 -33.551  0.00  0.00     0.016 C 
HETATM   10  C           1      -3.220   6.809 -30.832  0.00  0.00     0.008 C 
HETATM   11  C           1      -3.905   7.510 -29.623  0.00  0.00     0.020 C 
HETATM   12  C           1      -1.803   6.399 -30.383  0.00  0.00     0.128 C 
HETATM   13  C           1      -1.100   5.472 -31.367  0.00  0.00     0.033 C 
HETATM   14  C           1      -1.899   4.179 -31.542  0.00  0.00     0.013 C 
HETATM   15  N           1      -6.412   2.428 -32.396  0.00  0.00    -0.227 NA
ENDROOT
BRANCH   1  16
HETATM   16  C           1      -3.692   1.861 -32.704  0.00  0.00     0.114 C 
BRANCH  16  17
HETATM   17  C           1      -3.567   0.575 -31.891  0.00  0.00     0.218 C 
HETATM   18  N           1      -3.352  -0.561 -32.620  0.00  0.00    -0.355 N 
HETATM   19  H           1      -3.396  -0.535 -33.641  0.00  0.00     0.162 HD
HETATM   20  O           1      -3.656   0.577 -30.689  0.00  0.00    -0.274 OA
BRANCH  18  21
HETATM   21  C           1      -3.142  -1.864 -31.987  0.00  0.00     0.187 C 
BRANCH  21  22
HETATM   22  C           1      -3.625  -2.935 -32.922  0.00  0.00     0.070 A 
HETATM   23  C           1      -3.306  -4.236 -32.859  0.00  0.00     0.036 A 
HETATM   24  C           1      -3.981  -4.799 -33.867  0.00  0.00     0.027 A 
HETATM   25  C           1      -4.630  -3.773 -34.432  0.00  0.00     0.142 A 
HETATM   26  O           1      -4.395  -2.711 -33.858  0.00  0.00    -0.325 OA
ENDBRANCH  21  22
ENDBRANCH  18  21
ENDBRANCH  16  17
ENDBRANCH   1  16
BRANCH  10  27
HETATM   27  C           1      -3.158   7.837 -31.979  0.00  0.00     0.176 C 
BRANCH  27  28
HETATM   28  O           1      -3.012   9.159 -31.491  0.00  0.00    -0.400 OA
HETATM   29  H           1      -3.626   9.311 -30.771  0.00  0.00     0.209 HD
ENDBRANCH  27  28
ENDBRANCH  10  27
BRANCH   4  30
HETATM   30  N           1      -8.626   2.295 -33.044  0.00  0.00    -0.306 N 
HETATM   31  C           1      -9.304   1.244 -32.492  0.00  0.00     0.219 C 
HETATM   32  C           1     -10.507   0.794 -33.297  0.00  0.00     0.117 C 
HETATM   33  O           1      -8.972   0.715 -31.462  0.00  0.00    -0.274 OA
HETATM   34  H           1      -8.887   2.631 -33.959  0.00  0.00     0.171 HD
ENDBRANCH   4  30
BRANCH  12  35
HETATM   35  O           1      -0.986   7.528 -30.188  0.00  0.00    -0.395 OA
HETATM   36  H           1      -0.948   8.050 -30.991  0.00  0.00     0.210 HD
ENDBRANCH  12  35
TORSDOF 8
ENDMDL
