MODEL 1
REMARK VINA RESULT:      -8.6      0.000      0.000
REMARK  4 active torsions:
REMARK  status: ('A' for Active; 'I' for Inactive)
REMARK    1  A    between atoms: N_1  and  C_2 
REMARK    2  A    between atoms: C_2  and  C_3 
REMARK    3  A    between atoms: C_2  and  C_16 
REMARK       I    between atoms: C_3  and  N_5 
REMARK    4  A    between atoms: N_5  and  C_6 
ROOT
HETATM    1  C   UNL     1      -5.499   1.922 -32.365  1.00  0.00     0.260 C 
HETATM    2  O   UNL     1      -6.725   1.943 -32.260  1.00  0.00    -0.270 OA
HETATM    3  N   UNL     1      -4.751   0.925 -32.979  1.00  0.00    -0.325 N 
HETATM    4  H   UNL     1      -3.755   1.090 -33.060  1.00  0.00     0.169 HD
ENDROOT
BRANCH   1   5
HETATM    5  C   UNL     1      -4.623   3.091 -31.826  1.00  0.00     0.342 C 
BRANCH   5   6
HETATM    6  N   UNL     1      -3.626   2.575 -30.867  1.00  0.00     0.096 N 
HETATM    7  H   UNL     1      -4.106   2.455 -29.972  1.00  0.00     0.314 HD
HETATM    8  H   UNL     1      -2.952   3.319 -30.681  1.00  0.00     0.314 HD
ENDBRANCH   5   6
BRANCH   5   9
HETATM    9  C   UNL     1      -3.945   3.858 -32.947  1.00  0.00    -0.016 A 
HETATM   10  C   UNL     1      -4.714   4.440 -33.968  1.00  0.00     0.010 A 
HETATM   11  C   UNL     1      -4.103   5.160 -34.997  1.00  0.00     0.001 A 
HETATM   12  C   UNL     1      -2.719   5.316 -35.016  1.00  0.00     0.000 A 
HETATM   13  C   UNL     1      -1.943   4.756 -34.004  1.00  0.00     0.001 A 
HETATM   14  C   UNL     1      -2.551   4.036 -32.974  1.00  0.00     0.010 A 
ENDBRANCH   5   9
ENDBRANCH   1   5
BRANCH   3  15
HETATM   15  C   UNL     1      -5.227  -0.277 -33.544  1.00  0.00     0.035 A 
HETATM   16  C   UNL     1      -6.422  -0.382 -34.254  1.00  0.00     0.030 A 
HETATM   17  C   UNL     1      -6.832  -1.612 -34.778  1.00  0.00     0.016 A 
HETATM   18  C   UNL     1      -6.042  -2.759 -34.607  1.00  0.00    -0.008 A 
HETATM   19  C   UNL     1      -6.399  -4.011 -35.118  1.00  0.00     0.128 A 
HETATM   20  C   UNL     1      -4.832  -2.670 -33.896  1.00  0.00    -0.021 A 
HETATM   21  N   UNL     1      -5.657  -5.134 -34.981  1.00  0.00    -0.272 NA
HETATM   22  C   UNL     1      -4.499  -5.011 -34.299  1.00  0.00     0.117 A 
HETATM   23  C   UNL     1      -4.052  -3.823 -33.745  1.00  0.00     0.031 A 
HETATM   24  C   UNL     1      -4.444  -1.426 -33.361  1.00  0.00     0.042 A 
ENDBRANCH   3  15
TORSDOF 4
ENDMDL
MODEL 2
REMARK VINA RESULT:      -8.3      0.937      1.710
REMARK  4 active torsions:
REMARK  status: ('A' for Active; 'I' for Inactive)
REMARK    1  A    between atoms: N_1  and  C_2 
REMARK    2  A    between atoms: C_2  and  C_3 
REMARK    3  A    between atoms: C_2  and  C_16 
REMARK       I    between atoms: C_3  and  N_5 
REMARK    4  A    between atoms: N_5  and  C_6 
ROOT
HETATM    1  C   UNL     1      -5.332   1.729 -32.091  1.00  0.00     0.260 C 
HETATM    2  O   UNL     1      -5.255   1.231 -30.968  1.00  0.00    -0.270 OA
HETATM    3  N   UNL     1      -5.244   1.042 -33.295  1.00  0.00    -0.325 N 
HETATM    4  H   UNL     1      -5.410   1.580 -34.137  1.00  0.00     0.169 HD
ENDROOT
BRANCH   1   5
HETATM    5  C   UNL     1      -5.588   3.254 -32.280  1.00  0.00     0.342 C 
BRANCH   5   6
HETATM    6  N   UNL     1      -5.687   3.916 -30.963  1.00  0.00     0.096 N 
HETATM    7  H   UNL     1      -6.137   4.821 -31.118  1.00  0.00     0.314 HD
HETATM    8  H   UNL     1      -4.744   4.164 -30.662  1.00  0.00     0.314 HD
ENDBRANCH   5   6
BRANCH   5   9
HETATM    9  C   UNL     1      -4.516   3.909 -33.132  1.00  0.00    -0.016 A 
HETATM   10  C   UNL     1      -4.876   4.635 -34.278  1.00  0.00     0.010 A 
HETATM   11  C   UNL     1      -3.900   5.256 -35.063  1.00  0.00     0.001 A 
HETATM   12  C   UNL     1      -2.556   5.168 -34.707  1.00  0.00     0.000 A 
HETATM   13  C   UNL     1      -2.185   4.463 -33.565  1.00  0.00     0.001 A 
HETATM   14  C   UNL     1      -3.157   3.841 -32.780  1.00  0.00     0.010 A 
ENDBRANCH   5   9
ENDBRANCH   1   5
BRANCH   3  15
HETATM   15  C   UNL     1      -4.990  -0.333 -33.479  1.00  0.00     0.035 A 
HETATM   16  C   UNL     1      -3.836  -0.976 -33.034  1.00  0.00     0.030 A 
HETATM   17  C   UNL     1      -3.651  -2.344 -33.261  1.00  0.00     0.016 A 
HETATM   18  C   UNL     1      -4.630  -3.094 -33.932  1.00  0.00    -0.008 A 
HETATM   19  C   UNL     1      -4.502  -4.464 -34.176  1.00  0.00     0.128 A 
HETATM   20  C   UNL     1      -5.802  -2.461 -34.384  1.00  0.00    -0.021 A 
HETATM   21  N   UNL     1      -5.429  -5.219 -34.809  1.00  0.00    -0.272 NA
HETATM   22  C   UNL     1      -6.543  -4.583 -35.224  1.00  0.00     0.117 A 
HETATM   23  C   UNL     1      -6.772  -3.228 -35.041  1.00  0.00     0.031 A 
HETATM   24  C   UNL     1      -5.962  -1.080 -34.161  1.00  0.00     0.042 A 
ENDBRANCH   3  15
TORSDOF 4
ENDMDL
MODEL 3
REMARK VINA RESULT:      -8.3      4.369      6.369
REMARK  4 active torsions:
REMARK  status: ('A' for Active; 'I' for Inactive)
REMARK    1  A    between atoms: N_1  and  C_2 
REMARK    2  A    between atoms: C_2  and  C_3 
REMARK    3  A    between atoms: C_2  and  C_16 
REMARK       I    between atoms: C_3  and  N_5 
REMARK    4  A    between atoms: N_5  and  C_6 
ROOT
HETATM    1  C   UNL     1      -9.330   1.181 -33.139  1.00  0.00     0.260 C 
HETATM    2  O   UNL     1      -9.379   0.653 -32.028  1.00  0.00    -0.270 OA
HETATM    3  N   UNL     1      -8.418   0.882 -34.143  1.00  0.00    -0.325 N 
HETATM    4  H   UNL     1      -8.557   1.343 -35.034  1.00  0.00     0.169 HD
ENDROOT
BRANCH   1   5
HETATM    5  C   UNL     1     -10.366   2.263 -33.563  1.00  0.00     0.342 C 
BRANCH   5   6
HETATM    6  N   UNL     1     -10.059   2.750 -34.924  1.00  0.00     0.096 N 
HETATM    7  H   UNL     1     -10.946   2.792 -35.433  1.00  0.00     0.314 HD
HETATM    8  H   UNL     1      -9.537   2.020 -35.410  1.00  0.00     0.314 HD
ENDBRANCH   5   6
BRANCH   5   9
HETATM    9  C   UNL     1     -11.791   1.747 -33.486  1.00  0.00    -0.016 A 
HETATM   10  C   UNL     1     -12.834   2.615 -33.125  1.00  0.00     0.010 A 
HETATM   11  C   UNL     1     -14.153   2.157 -33.064  1.00  0.00     0.001 A 
HETATM   12  C   UNL     1     -14.447   0.830 -33.372  1.00  0.00     0.000 A 
HETATM   13  C   UNL     1     -13.425  -0.039 -33.745  1.00  0.00     0.001 A 
HETATM   14  C   UNL     1     -12.107   0.416 -33.806  1.00  0.00     0.010 A 
ENDBRANCH   5   9
ENDBRANCH   1   5
BRANCH   3  15
HETATM   15  C   UNL     1      -7.339  -0.025 -34.078  1.00  0.00     0.035 A 
HETATM   16  C   UNL     1      -6.062   0.319 -33.637  1.00  0.00     0.030 A 
HETATM   17  C   UNL     1      -5.039  -0.636 -33.607  1.00  0.00     0.016 A 
HETATM   18  C   UNL     1      -5.285  -1.957 -34.012  1.00  0.00    -0.008 A 
HETATM   19  C   UNL     1      -4.304  -2.952 -33.993  1.00  0.00     0.128 A 
HETATM   20  C   UNL     1      -6.569  -2.320 -34.456  1.00  0.00    -0.021 A 
HETATM   21  N   UNL     1      -4.509  -4.237 -34.365  1.00  0.00    -0.272 NA
HETATM   22  C   UNL     1      -5.753  -4.553 -34.779  1.00  0.00     0.117 A 
HETATM   23  C   UNL     1      -6.798  -3.646 -34.844  1.00  0.00     0.031 A 
HETATM   24  C   UNL     1      -7.581  -1.342 -34.494  1.00  0.00     0.042 A 
ENDBRANCH   3  15
TORSDOF 4
ENDMDL
MODEL 4
REMARK VINA RESULT:      -8.2      4.421      7.451
REMARK  4 active torsions:
REMARK  status: ('A' for Active; 'I' for Inactive)
REMARK    1  A    between atoms: N_1  and  C_2 
REMARK    2  A    between atoms: C_2  and  C_3 
REMARK    3  A    between atoms: C_2  and  C_16 
REMARK       I    between atoms: C_3  and  N_5 
REMARK    4  A    between atoms: N_5  and  C_6 
ROOT
HETATM    1  C   UNL     1      -7.006   0.172 -34.282  1.00  0.00     0.260 C 
HETATM    2  O   UNL     1      -7.132   0.429 -35.479  1.00  0.00    -0.270 OA
HETATM    3  N   UNL     1      -7.954   0.408 -33.294  1.00  0.00    -0.325 N 
HETATM    4  H   UNL     1      -7.736   0.065 -32.366  1.00  0.00     0.169 HD
ENDROOT
BRANCH   1   5
HETATM    5  C   UNL     1      -5.719  -0.515 -33.736  1.00  0.00     0.342 C 
BRANCH   5   6
HETATM    6  N   UNL     1      -5.637  -0.343 -32.271  1.00  0.00     0.096 N 
HETATM    7  H   UNL     1      -5.953   0.608 -32.065  1.00  0.00     0.314 HD
HETATM    8  H   UNL     1      -4.651  -0.332 -32.010  1.00  0.00     0.314 HD
ENDBRANCH   5   6
BRANCH   5   9
HETATM    9  C   UNL     1      -5.658  -1.985 -34.110  1.00  0.00    -0.016 A 
HETATM   10  C   UNL     1      -4.457  -2.698 -33.962  1.00  0.00     0.010 A 
HETATM   11  C   UNL     1      -4.391  -4.055 -34.288  1.00  0.00     0.001 A 
HETATM   12  C   UNL     1      -5.523  -4.719 -34.755  1.00  0.00     0.000 A 
HETATM   13  C   UNL     1      -6.725  -4.028 -34.894  1.00  0.00     0.001 A 
HETATM   14  C   UNL     1      -6.794  -2.672 -34.570  1.00  0.00     0.010 A 
ENDBRANCH   5   9
ENDBRANCH   1   5
BRANCH   3  15
HETATM   15  C   UNL     1      -9.208   1.036 -33.443  1.00  0.00     0.035 A 
HETATM   16  C   UNL     1      -9.372   2.408 -33.628  1.00  0.00     0.030 A 
HETATM   17  C   UNL     1     -10.650   2.960 -33.761  1.00  0.00     0.016 A 
HETATM   18  C   UNL     1     -11.789   2.140 -33.721  1.00  0.00    -0.008 A 
HETATM   19  C   UNL     1     -13.088   2.637 -33.858  1.00  0.00     0.128 A 
HETATM   20  C   UNL     1     -11.640   0.754 -33.539  1.00  0.00    -0.021 A 
HETATM   21  N   UNL     1     -14.206   1.875 -33.835  1.00  0.00    -0.272 NA
HETATM   22  C   UNL     1     -14.028   0.549 -33.666  1.00  0.00     0.117 A 
HETATM   23  C   UNL     1     -12.787  -0.050 -33.513  1.00  0.00     0.031 A 
HETATM   24  C   UNL     1     -10.346   0.218 -33.390  1.00  0.00     0.042 A 
ENDBRANCH   3  15
TORSDOF 4
ENDMDL
MODEL 5
REMARK VINA RESULT:      -8.0      2.037      7.628
REMARK  4 active torsions:
REMARK  status: ('A' for Active; 'I' for Inactive)
REMARK    1  A    between atoms: N_1  and  C_2 
REMARK    2  A    between atoms: C_2  and  C_3 
REMARK    3  A    between atoms: C_2  and  C_16 
REMARK       I    between atoms: C_3  and  N_5 
REMARK    4  A    between atoms: N_5  and  C_6 
ROOT
HETATM    1  C   UNL     1      -5.578   1.662 -31.929  1.00  0.00     0.260 C 
HETATM    2  O   UNL     1      -6.437   2.214 -32.617  1.00  0.00    -0.270 OA
HETATM    3  N   UNL     1      -4.413   2.249 -31.453  1.00  0.00    -0.325 N 
HETATM    4  H   UNL     1      -3.844   1.690 -30.829  1.00  0.00     0.169 HD
ENDROOT
BRANCH   1   5
HETATM    5  C   UNL     1      -5.743   0.183 -31.468  1.00  0.00     0.342 C 
BRANCH   5   6
HETATM    6  N   UNL     1      -6.996   0.031 -30.699  1.00  0.00     0.096 N 
HETATM    7  H   UNL     1      -7.257  -0.956 -30.748  1.00  0.00     0.314 HD
HETATM    8  H   UNL     1      -7.741   0.504 -31.213  1.00  0.00     0.314 HD
ENDBRANCH   5   6
BRANCH   5   9
HETATM    9  C   UNL     1      -5.710  -0.784 -32.637  1.00  0.00    -0.016 A 
HETATM   10  C   UNL     1      -4.514  -1.439 -32.974  1.00  0.00     0.010 A 
HETATM   11  C   UNL     1      -4.474  -2.343 -34.039  1.00  0.00     0.001 A 
HETATM   12  C   UNL     1      -5.627  -2.611 -34.774  1.00  0.00     0.000 A 
HETATM   13  C   UNL     1      -6.823  -1.979 -34.443  1.00  0.00     0.001 A 
HETATM   14  C   UNL     1      -6.866  -1.075 -33.380  1.00  0.00     0.010 A 
ENDBRANCH   5   9
ENDBRANCH   1   5
BRANCH   3  15
HETATM   15  C   UNL     1      -3.949   3.557 -31.707  1.00  0.00     0.035 A 
HETATM   16  C   UNL     1      -4.367   4.681 -30.995  1.00  0.00     0.030 A 
HETATM   17  C   UNL     1      -3.867   5.949 -31.310  1.00  0.00     0.016 A 
HETATM   18  C   UNL     1      -2.927   6.109 -32.341  1.00  0.00    -0.008 A 
HETATM   19  C   UNL     1      -2.387   7.350 -32.690  1.00  0.00     0.128 A 
HETATM   20  C   UNL     1      -2.492   4.985 -33.065  1.00  0.00    -0.021 A 
HETATM   21  N   UNL     1      -1.473   7.539 -33.669  1.00  0.00    -0.272 NA
HETATM   22  C   UNL     1      -1.072   6.440 -34.340  1.00  0.00     0.117 A 
HETATM   23  C   UNL     1      -1.546   5.163 -34.082  1.00  0.00     0.031 A 
HETATM   24  C   UNL     1      -3.020   3.719 -32.745  1.00  0.00     0.042 A 
ENDBRANCH   3  15
TORSDOF 4
ENDMDL
MODEL 6
REMARK VINA RESULT:      -8.0      4.292      7.686
REMARK  4 active torsions:
REMARK  status: ('A' for Active; 'I' for Inactive)
REMARK    1  A    between atoms: N_1  and  C_2 
REMARK    2  A    between atoms: C_2  and  C_3 
REMARK    3  A    between atoms: C_2  and  C_16 
REMARK       I    between atoms: C_3  and  N_5 
REMARK    4  A    between atoms: N_5  and  C_6 
ROOT
HETATM    1  C   UNL     1      -7.007   0.130 -34.406  1.00  0.00     0.260 C 
HETATM    2  O   UNL     1      -7.073   0.392 -35.608  1.00  0.00    -0.270 OA
HETATM    3  N   UNL     1      -8.006   0.353 -33.468  1.00  0.00    -0.325 N 
HETATM    4  H   UNL     1      -7.835   0.007 -32.531  1.00  0.00     0.169 HD
ENDROOT
BRANCH   1   5
HETATM    5  C   UNL     1      -5.745  -0.551 -33.799  1.00  0.00     0.342 C 
BRANCH   5   6
HETATM    6  N   UNL     1      -5.720  -0.353 -32.335  1.00  0.00     0.096 N 
HETATM    7  H   UNL     1      -6.693  -0.341 -32.019  1.00  0.00     0.314 HD
HETATM    8  H   UNL     1      -5.396   0.598 -32.150  1.00  0.00     0.314 HD
ENDBRANCH   5   6
BRANCH   5   9
HETATM    9  C   UNL     1      -5.674  -2.027 -34.143  1.00  0.00    -0.016 A 
HETATM   10  C   UNL     1      -4.458  -2.719 -34.026  1.00  0.00     0.010 A 
HETATM   11  C   UNL     1      -4.382  -4.081 -34.325  1.00  0.00     0.001 A 
HETATM   12  C   UNL     1      -5.521  -4.772 -34.735  1.00  0.00     0.000 A 
HETATM   13  C   UNL     1      -6.737  -4.103 -34.842  1.00  0.00     0.001 A 
HETATM   14  C   UNL     1      -6.816  -2.742 -34.545  1.00  0.00     0.010 A 
ENDBRANCH   5   9
ENDBRANCH   1   5
BRANCH   3  15
HETATM   15  C   UNL     1      -9.255   0.973 -33.678  1.00  0.00     0.035 A 
HETATM   16  C   UNL     1     -10.478   0.383 -33.361  1.00  0.00     0.030 A 
HETATM   17  C   UNL     1     -11.679   1.058 -33.606  1.00  0.00     0.016 A 
HETATM   18  C   UNL     1     -11.672   2.345 -34.167  1.00  0.00    -0.008 A 
HETATM   19  C   UNL     1     -12.840   3.068 -34.424  1.00  0.00     0.128 A 
HETATM   20  C   UNL     1     -10.447   2.955 -34.490  1.00  0.00    -0.021 A 
HETATM   21  N   UNL     1     -12.870   4.312 -34.954  1.00  0.00    -0.272 NA
HETATM   22  C   UNL     1     -11.677   4.871 -35.245  1.00  0.00     0.117 A 
HETATM   23  C   UNL     1     -10.459   4.243 -35.039  1.00  0.00     0.031 A 
HETATM   24  C   UNL     1      -9.249   2.253 -34.252  1.00  0.00     0.042 A 
ENDBRANCH   3  15
TORSDOF 4
ENDMDL
MODEL 7
REMARK VINA RESULT:      -7.7      5.215      7.450
REMARK  4 active torsions:
REMARK  status: ('A' for Active; 'I' for Inactive)
REMARK    1  A    between atoms: N_1  and  C_2 
REMARK    2  A    between atoms: C_2  and  C_3 
REMARK    3  A    between atoms: C_2  and  C_16 
REMARK       I    between atoms: C_3  and  N_5 
REMARK    4  A    between atoms: N_5  and  C_6 
ROOT
HETATM    1  C   UNL     1      -8.072   1.223 -33.353  1.00  0.00     0.260 C 
HETATM    2  O   UNL     1      -8.260   0.587 -32.315  1.00  0.00    -0.270 OA
HETATM    3  N   UNL     1      -9.008   2.017 -34.002  1.00  0.00    -0.325 N 
HETATM    4  H   UNL     1      -8.679   2.545 -34.801  1.00  0.00     0.169 HD
ENDROOT
BRANCH   1   5
HETATM    5  C   UNL     1      -6.681   1.230 -34.052  1.00  0.00     0.342 C 
BRANCH   5   6
HETATM    6  N   UNL     1      -5.785   2.197 -33.385  1.00  0.00     0.096 N 
HETATM    7  H   UNL     1      -6.173   3.128 -33.555  1.00  0.00     0.314 HD
HETATM    8  H   UNL     1      -4.899   2.209 -33.893  1.00  0.00     0.314 HD
ENDBRANCH   5   6
BRANCH   5   9
HETATM    9  C   UNL     1      -6.053  -0.152 -34.083  1.00  0.00    -0.016 A 
HETATM   10  C   UNL     1      -6.648  -1.178 -34.833  1.00  0.00     0.010 A 
HETATM   11  C   UNL     1      -6.072  -2.450 -34.882  1.00  0.00     0.001 A 
HETATM   12  C   UNL     1      -4.891  -2.711 -34.190  1.00  0.00     0.000 A 
HETATM   13  C   UNL     1      -4.281  -1.698 -33.452  1.00  0.00     0.001 A 
HETATM   14  C   UNL     1      -4.855  -0.427 -33.402  1.00  0.00     0.010 A 
ENDBRANCH   5   9
ENDBRANCH   1   5
BRANCH   3  15
HETATM   15  C   UNL     1     -10.361   2.207 -33.650  1.00  0.00     0.035 A 
HETATM   16  C   UNL     1     -10.813   3.246 -32.837  1.00  0.00     0.030 A 
HETATM   17  C   UNL     1     -12.172   3.365 -32.525  1.00  0.00     0.016 A 
HETATM   18  C   UNL     1     -13.103   2.446 -33.035  1.00  0.00    -0.008 A 
HETATM   19  C   UNL     1     -14.472   2.524 -32.764  1.00  0.00     0.128 A 
HETATM   20  C   UNL     1     -12.664   1.395 -33.859  1.00  0.00    -0.021 A 
HETATM   21  N   UNL     1     -15.399   1.663 -33.246  1.00  0.00    -0.272 NA
HETATM   22  C   UNL     1     -14.944   0.671 -34.038  1.00  0.00     0.117 A 
HETATM   23  C   UNL     1     -13.609   0.496 -34.367  1.00  0.00     0.031 A 
HETATM   24  C   UNL     1     -11.290   1.282 -34.148  1.00  0.00     0.042 A 
ENDBRANCH   3  15
TORSDOF 4
ENDMDL
MODEL 8
REMARK VINA RESULT:      -7.7      2.365      8.067
REMARK  4 active torsions:
REMARK  status: ('A' for Active; 'I' for Inactive)
REMARK    1  A    between atoms: N_1  and  C_2 
REMARK    2  A    between atoms: C_2  and  C_3 
REMARK    3  A    between atoms: C_2  and  C_16 
REMARK       I    between atoms: C_3  and  N_5 
REMARK    4  A    between atoms: N_5  and  C_6 
ROOT
HETATM    1  C   UNL     1      -5.246   2.068 -32.421  1.00  0.00     0.260 C 
HETATM    2  O   UNL     1      -5.926   2.604 -33.298  1.00  0.00    -0.270 OA
HETATM    3  N   UNL     1      -4.082   2.581 -31.866  1.00  0.00    -0.325 N 
HETATM    4  H   UNL     1      -3.680   2.062 -31.094  1.00  0.00     0.169 HD
ENDROOT
BRANCH   1   5
HETATM    5  C   UNL     1      -5.673   0.710 -31.790  1.00  0.00     0.342 C 
BRANCH   5   6
HETATM    6  N   UNL     1      -6.993   0.847 -31.142  1.00  0.00     0.096 N 
HETATM    7  H   UNL     1      -7.189  -0.042 -30.674  1.00  0.00     0.314 HD
HETATM    8  H   UNL     1      -7.702   0.893 -31.876  1.00  0.00     0.314 HD
ENDBRANCH   5   6
BRANCH   5   9
HETATM    9  C   UNL     1      -5.690  -0.412 -32.813  1.00  0.00    -0.016 A 
HETATM   10  C   UNL     1      -4.513  -1.124 -33.095  1.00  0.00     0.010 A 
HETATM   11  C   UNL     1      -4.518  -2.169 -34.023  1.00  0.00     0.001 A 
HETATM   12  C   UNL     1      -5.699  -2.521 -34.673  1.00  0.00     0.000 A 
HETATM   13  C   UNL     1      -6.877  -1.833 -34.394  1.00  0.00     0.001 A 
HETATM   14  C   UNL     1      -6.875  -0.789 -33.467  1.00  0.00     0.010 A 
ENDBRANCH   5   9
ENDBRANCH   1   5
BRANCH   3  15
HETATM   15  C   UNL     1      -3.412   3.769 -32.227  1.00  0.00     0.035 A 
HETATM   16  C   UNL     1      -2.477   3.850 -33.259  1.00  0.00     0.030 A 
HETATM   17  C   UNL     1      -1.848   5.064 -33.553  1.00  0.00     0.016 A 
HETATM   18  C   UNL     1      -2.154   6.223 -32.821  1.00  0.00    -0.008 A 
HETATM   19  C   UNL     1      -1.563   7.463 -33.080  1.00  0.00     0.128 A 
HETATM   20  C   UNL     1      -3.097   6.157 -31.780  1.00  0.00    -0.021 A 
HETATM   21  N   UNL     1      -1.842   8.600 -32.402  1.00  0.00    -0.272 NA
HETATM   22  C   UNL     1      -2.755   8.504 -31.414  1.00  0.00     0.117 A 
HETATM   23  C   UNL     1      -3.398   7.326 -31.069  1.00  0.00     0.031 A 
HETATM   24  C   UNL     1      -3.708   4.923 -31.487  1.00  0.00     0.042 A 
ENDBRANCH   3  15
TORSDOF 4
ENDMDL
MODEL 9
REMARK VINA RESULT:      -7.7      3.654      4.769
REMARK  4 active torsions:
REMARK  status: ('A' for Active; 'I' for Inactive)
REMARK    1  A    between atoms: N_1  and  C_2 
REMARK    2  A    between atoms: C_2  and  C_3 
REMARK    3  A    between atoms: C_2  and  C_16 
REMARK       I    between atoms: C_3  and  N_5 
REMARK    4  A    between atoms: N_5  and  C_6 
ROOT
HETATM    1  C   UNL     1      -9.651   0.559 -33.564  1.00  0.00     0.260 C 
HETATM    2  O   UNL     1      -9.777  -0.033 -32.491  1.00  0.00    -0.270 OA
HETATM    3  N   UNL     1      -8.588   0.424 -34.449  1.00  0.00    -0.325 N 
HETATM    4  H   UNL     1      -8.668   0.915 -35.331  1.00  0.00     0.169 HD
ENDROOT
BRANCH   1   5
HETATM    5  C   UNL     1     -10.748   1.537 -34.079  1.00  0.00     0.342 C 
BRANCH   5   6
HETATM    6  N   UNL     1     -11.955   1.431 -33.233  1.00  0.00     0.096 N 
HETATM    7  H   UNL     1     -12.763   1.518 -33.855  1.00  0.00     0.314 HD
HETATM    8  H   UNL     1     -12.007   2.268 -32.651  1.00  0.00     0.314 HD
ENDBRANCH   5   6
BRANCH   5   9
HETATM    9  C   UNL     1     -10.252   2.971 -34.130  1.00  0.00    -0.016 A 
HETATM   10  C   UNL     1     -10.664   3.820 -35.170  1.00  0.00     0.010 A 
HETATM   11  C   UNL     1     -10.227   5.146 -35.221  1.00  0.00     0.001 A 
HETATM   12  C   UNL     1      -9.382   5.643 -34.231  1.00  0.00     0.000 A 
HETATM   13  C   UNL     1      -8.976   4.817 -33.186  1.00  0.00     0.001 A 
HETATM   14  C   UNL     1      -9.411   3.491 -33.133  1.00  0.00     0.010 A 
ENDBRANCH   5   9
ENDBRANCH   1   5
BRANCH   3  15
HETATM   15  C   UNL     1      -7.425  -0.355 -34.277  1.00  0.00     0.035 A 
HETATM   16  C   UNL     1      -6.223   0.145 -33.776  1.00  0.00     0.030 A 
HETATM   17  C   UNL     1      -5.108  -0.689 -33.641  1.00  0.00     0.016 A 
HETATM   18  C   UNL     1      -5.183  -2.045 -33.998  1.00  0.00    -0.008 A 
HETATM   19  C   UNL     1      -4.104  -2.924 -33.875  1.00  0.00     0.128 A 
HETATM   20  C   UNL     1      -6.389  -2.564 -34.501  1.00  0.00    -0.021 A 
HETATM   21  N   UNL     1      -4.144  -4.237 -34.199  1.00  0.00    -0.272 NA
HETATM   22  C   UNL     1      -5.317  -4.704 -34.672  1.00  0.00     0.117 A 
HETATM   23  C   UNL     1      -6.448  -3.922 -34.841  1.00  0.00     0.031 A 
HETATM   24  C   UNL     1      -7.496  -1.706 -34.646  1.00  0.00     0.042 A 
ENDBRANCH   3  15
TORSDOF 4
ENDMDL
MODEL 10
REMARK VINA RESULT:      -7.5      3.071      6.854
REMARK  4 active torsions:
REMARK  status: ('A' for Active; 'I' for Inactive)
REMARK    1  A    between atoms: N_1  and  C_2 
REMARK    2  A    between atoms: C_2  and  C_3 
REMARK    3  A    between atoms: C_2  and  C_16 
REMARK       I    between atoms: C_3  and  N_5 
REMARK    4  A    between atoms: N_5  and  C_6 
ROOT
HETATM    1  C   UNL     1      -5.161  -0.396 -32.486  1.00  0.00     0.260 C 
HETATM    2  O   UNL     1      -5.670  -0.459 -31.366  1.00  0.00    -0.270 OA
HETATM    3  N   UNL     1      -5.609   0.386 -33.542  1.00  0.00    -0.325 N 
HETATM    4  H   UNL     1      -5.035   0.394 -34.376  1.00  0.00     0.169 HD
ENDROOT
BRANCH   1   5
HETATM    5  C   UNL     1      -3.874  -1.202 -32.832  1.00  0.00     0.342 C 
BRANCH   5   6
HETATM    6  N   UNL     1      -3.015  -1.318 -31.635  1.00  0.00     0.096 N 
HETATM    7  H   UNL     1      -2.060  -1.472 -31.968  1.00  0.00     0.314 HD
HETATM    8  H   UNL     1      -3.249  -2.192 -31.162  1.00  0.00     0.314 HD
ENDBRANCH   5   6
BRANCH   5   9
HETATM    9  C   UNL     1      -4.196  -2.573 -33.397  1.00  0.00    -0.016 A 
HETATM   10  C   UNL     1      -3.485  -3.701 -32.956  1.00  0.00     0.010 A 
HETATM   11  C   UNL     1      -3.782  -4.970 -33.458  1.00  0.00     0.001 A 
HETATM   12  C   UNL     1      -4.798  -5.132 -34.398  1.00  0.00     0.000 A 
HETATM   13  C   UNL     1      -5.521  -4.025 -34.835  1.00  0.00     0.001 A 
HETATM   14  C   UNL     1      -5.226  -2.755 -34.336  1.00  0.00     0.010 A 
ENDBRANCH   5   9
ENDBRANCH   1   5
BRANCH   3  15
HETATM   15  C   UNL     1      -6.755   1.209 -33.572  1.00  0.00     0.035 A 
HETATM   16  C   UNL     1      -6.710   2.601 -33.630  1.00  0.00     0.030 A 
HETATM   17  C   UNL     1      -7.891   3.351 -33.649  1.00  0.00     0.016 A 
HETATM   18  C   UNL     1      -9.141   2.713 -33.620  1.00  0.00    -0.008 A 
HETATM   19  C   UNL     1     -10.351   3.412 -33.648  1.00  0.00     0.128 A 
HETATM   20  C   UNL     1      -9.203   1.309 -33.565  1.00  0.00    -0.021 A 
HETATM   21  N   UNL     1     -11.573   2.829 -33.632  1.00  0.00    -0.272 NA
HETATM   22  C   UNL     1     -11.597   1.482 -33.585  1.00  0.00     0.117 A 
HETATM   23  C   UNL     1     -10.460   0.690 -33.548  1.00  0.00     0.031 A 
HETATM   24  C   UNL     1      -8.004   0.572 -33.529  1.00  0.00     0.042 A 
ENDBRANCH   3  15
TORSDOF 4
ENDMDL
