MODEL 1
REMARK VINA RESULT:     -10.8      0.000      0.000
REMARK  8 active torsions:
REMARK  status: ('A' for Active; 'I' for Inactive)
REMARK    1  A    between atoms: C_3  and  N_4 
REMARK       I    between atoms: N_4  and  C_5 
REMARK    2  A    between atoms: C_5  and  C_6 
REMARK    3  A    between atoms: C_6  and  N_7 
REMARK    4  A    between atoms: N_11  and  C_12 
REMARK    5  A    between atoms: C_14  and  N_15 
REMARK    6  A    between atoms: N_15  and  C_16 
REMARK    7  A    between atoms: C_23  and  N_24 
REMARK    8  A    between atoms: N_24  and  C_25 
ROOT
HETATM    1  C   UNL     1      -5.594   1.506 -30.816  1.00  0.00     0.756 A 
HETATM    2  N   UNL     1      -5.039   0.307 -30.922  1.00  0.00     0.131 NA
HETATM    3  C   UNL     1      -3.748   0.269 -31.232  1.00  0.00     0.758 A 
HETATM    4  N   UNL     1      -3.000   1.353 -31.341  1.00  0.00     0.131 NA
HETATM    5  C   UNL     1      -3.605   2.517 -31.167  1.00  0.00     0.758 A 
HETATM    6  N   UNL     1      -4.903   2.634 -30.906  1.00  0.00     0.131 NA
ENDROOT
BRANCH   1   7
HETATM    7  N   UNL     1      -6.973   1.570 -30.590  1.00  0.00    -0.210 N 
HETATM    8  C   UNL     1      -7.774   0.485 -31.179  1.00  0.00     0.169 C 
HETATM    9  C   UNL     1      -8.099   0.780 -32.662  1.00  0.00     0.256 C 
HETATM   10  N   UNL     1      -8.776   2.163 -32.765  1.00  0.00    -0.060 N 
HETATM   11  H   UNL     1      -9.592   2.120 -32.144  1.00  0.00     0.280 HD
HETATM   12  C   UNL     1      -7.859   3.249 -32.187  1.00  0.00     0.256 C 
HETATM   13  C   UNL     1      -7.554   2.916 -30.708  1.00  0.00     0.169 C 
BRANCH  10  14
HETATM   14  C   UNL     1      -9.316   2.493 -34.153  1.00  0.00     0.337 C 
BRANCH  14  15
HETATM   15  C   UNL     1     -10.812   2.825 -34.262  1.00  0.00     0.248 C 
HETATM   16  N   UNL     1     -11.534   2.356 -33.177  1.00  0.00    -0.325 N 
HETATM   17  H   UNL     1     -11.036   1.746 -32.537  1.00  0.00     0.169 HD
HETATM   18  O   UNL     1     -11.243   3.396 -35.253  1.00  0.00    -0.271 OA
BRANCH  16  19
HETATM   19  C   UNL     1     -12.934   2.390 -32.935  1.00  0.00     0.042 A 
HETATM   20  C   UNL     1     -13.890   1.407 -33.253  1.00  0.00    -0.035 A 
HETATM   21  C   UNL     1     -13.635   0.155 -34.043  1.00  0.00     0.050 C 
HETATM   22  C   UNL     1     -15.229   1.599 -32.837  1.00  0.00     0.011 A 
HETATM   23  C   UNL     1     -15.635   2.759 -32.182  1.00  0.00     0.024 A 
HETATM   24  C   UNL     1     -14.705   3.753 -31.936  1.00  0.00     0.036 A 
HETATM   25  C   UNL     1     -13.373   3.575 -32.310  1.00  0.00     0.053 A 
HETATM   26 CL   UNL     1     -15.185   5.208 -31.154  1.00  0.00    -0.084 Cl
ENDBRANCH  16  19
ENDBRANCH  14  15
ENDBRANCH  10  14
ENDBRANCH   1   7
BRANCH   3  27
HETATM   27  N   UNL     1      -3.197  -1.001 -31.383  1.00  0.00    -0.187 N 
HETATM   28  H   UNL     1      -2.745  -1.293 -30.529  1.00  0.00     0.184 HD
BRANCH  27  29
HETATM   29  C   UNL     1      -3.500  -2.049 -32.266  1.00  0.00     0.049 A 
HETATM   30  C   UNL     1      -3.045  -3.341 -31.956  1.00  0.00     0.030 A 
HETATM   31  C   UNL     1      -3.285  -4.420 -32.810  1.00  0.00     0.002 A 
HETATM   32  C   UNL     1      -3.983  -4.224 -33.999  1.00  0.00     0.000 A 
HETATM   33  C   UNL     1      -4.425  -2.948 -34.334  1.00  0.00     0.002 A 
HETATM   34  C   UNL     1      -4.172  -1.869 -33.481  1.00  0.00     0.030 A 
ENDBRANCH  27  29
ENDBRANCH   3  27
BRANCH   5  35
HETATM   35  N   UNL     1      -2.755   3.617 -31.238  1.00  0.00    -0.187 N 
HETATM   36  H   UNL     1      -2.391   3.808 -30.312  1.00  0.00     0.184 HD
BRANCH  35  37
HETATM   37  C   UNL     1      -2.242   4.404 -32.272  1.00  0.00     0.049 A 
HETATM   38  C   UNL     1      -2.531   4.202 -33.625  1.00  0.00     0.030 A 
HETATM   39  C   UNL     1      -2.008   5.047 -34.610  1.00  0.00     0.002 A 
HETATM   40  C   UNL     1      -1.193   6.118 -34.254  1.00  0.00     0.000 A 
HETATM   41  C   UNL     1      -0.901   6.345 -32.914  1.00  0.00     0.002 A 
HETATM   42  C   UNL     1      -1.425   5.497 -31.935  1.00  0.00     0.030 A 
ENDBRANCH  35  37
ENDBRANCH   5  35
TORSDOF 8
ENDMDL
MODEL 2
REMARK VINA RESULT:     -10.8      3.543      9.282
REMARK  8 active torsions:
REMARK  status: ('A' for Active; 'I' for Inactive)
REMARK    1  A    between atoms: C_3  and  N_4 
REMARK       I    between atoms: N_4  and  C_5 
REMARK    2  A    between atoms: C_5  and  C_6 
REMARK    3  A    between atoms: C_6  and  N_7 
REMARK    4  A    between atoms: N_11  and  C_12 
REMARK    5  A    between atoms: C_14  and  N_15 
REMARK    6  A    between atoms: N_15  and  C_16 
REMARK    7  A    between atoms: C_23  and  N_24 
REMARK    8  A    between atoms: N_24  and  C_25 
ROOT
HETATM    1  C   UNL     1      -7.024   1.438 -32.053  1.00  0.00     0.756 A 
HETATM    2  N   UNL     1      -6.304   0.762 -32.938  1.00  0.00     0.131 NA
HETATM    3  C   UNL     1      -6.935  -0.180 -33.629  1.00  0.00     0.758 A 
HETATM    4  N   UNL     1      -8.236  -0.396 -33.536  1.00  0.00     0.131 NA
HETATM    5  C   UNL     1      -8.905   0.353 -32.674  1.00  0.00     0.758 A 
HETATM    6  N   UNL     1      -8.332   1.279 -31.911  1.00  0.00     0.131 NA
ENDROOT
BRANCH   1   7
HETATM    7  N   UNL     1      -6.360   2.366 -31.243  1.00  0.00    -0.210 N 
HETATM    8  C   UNL     1      -6.330   3.751 -31.741  1.00  0.00     0.169 C 
HETATM    9  C   UNL     1      -5.177   3.949 -32.751  1.00  0.00     0.256 C 
HETATM   10  N   UNL     1      -3.851   3.507 -32.097  1.00  0.00    -0.060 N 
HETATM   11  H   UNL     1      -3.769   4.057 -31.234  1.00  0.00     0.280 HD
HETATM   12  C   UNL     1      -3.937   2.039 -31.659  1.00  0.00     0.256 C 
HETATM   13  C   UNL     1      -5.102   1.881 -30.655  1.00  0.00     0.169 C 
BRANCH  10  14
HETATM   14  C   UNL     1      -2.609   3.827 -32.923  1.00  0.00     0.337 C 
BRANCH  14  15
HETATM   15  C   UNL     1      -1.686   4.939 -32.399  1.00  0.00     0.248 C 
HETATM   16  N   UNL     1      -1.766   5.082 -31.024  1.00  0.00    -0.325 N 
HETATM   17  H   UNL     1      -2.501   4.559 -30.560  1.00  0.00     0.169 HD
HETATM   18  O   UNL     1      -1.029   5.610 -33.182  1.00  0.00    -0.271 OA
BRANCH  16  19
HETATM   19  C   UNL     1      -1.140   6.033 -30.173  1.00  0.00     0.042 A 
HETATM   20  C   UNL     1       0.101   5.923 -29.519  1.00  0.00    -0.035 A 
HETATM   21  C   UNL     1       0.974   4.699 -29.488  1.00  0.00     0.050 C 
HETATM   22  C   UNL     1       0.587   7.032 -28.787  1.00  0.00     0.011 A 
HETATM   23  C   UNL     1      -0.157   8.200 -28.644  1.00  0.00     0.024 A 
HETATM   24  C   UNL     1      -1.408   8.276 -29.230  1.00  0.00     0.036 A 
HETATM   25  C   UNL     1      -1.897   7.207 -29.981  1.00  0.00     0.053 A 
HETATM   26 CL   UNL     1      -2.361   9.696 -29.047  1.00  0.00    -0.084 Cl
ENDBRANCH  16  19
ENDBRANCH  14  15
ENDBRANCH  10  14
ENDBRANCH   1   7
BRANCH   3  27
HETATM   27  N   UNL     1      -6.150  -0.908 -34.520  1.00  0.00    -0.187 N 
HETATM   28  H   UNL     1      -5.562  -0.289 -35.058  1.00  0.00     0.184 HD
BRANCH  27  29
HETATM   29  C   UNL     1      -5.729  -2.247 -34.511  1.00  0.00     0.049 A 
HETATM   30  C   UNL     1      -6.652  -3.243 -34.868  1.00  0.00     0.030 A 
HETATM   31  C   UNL     1      -6.305  -4.596 -34.847  1.00  0.00     0.002 A 
HETATM   32  C   UNL     1      -5.024  -4.979 -34.460  1.00  0.00     0.000 A 
HETATM   33  C   UNL     1      -4.101  -4.009 -34.082  1.00  0.00     0.002 A 
HETATM   34  C   UNL     1      -4.457  -2.656 -34.094  1.00  0.00     0.030 A 
ENDBRANCH  27  29
ENDBRANCH   3  27
BRANCH   5  35
HETATM   35  N   UNL     1     -10.278   0.120 -32.661  1.00  0.00    -0.187 N 
HETATM   36  H   UNL     1     -10.506  -0.435 -31.845  1.00  0.00     0.184 HD
BRANCH  35  37
HETATM   37  C   UNL     1     -11.360   0.553 -33.430  1.00  0.00     0.049 A 
HETATM   38  C   UNL     1     -12.615  -0.063 -33.431  1.00  0.00     0.030 A 
HETATM   39  C   UNL     1     -13.668   0.443 -34.202  1.00  0.00     0.002 A 
HETATM   40  C   UNL     1     -13.484   1.582 -34.979  1.00  0.00     0.000 A 
HETATM   41  C   UNL     1     -12.247   2.217 -34.986  1.00  0.00     0.002 A 
HETATM   42  C   UNL     1     -11.199   1.708 -34.215  1.00  0.00     0.030 A 
ENDBRANCH  35  37
ENDBRANCH   5  35
TORSDOF 8
ENDMDL
MODEL 3
REMARK VINA RESULT:     -10.7      3.758      9.837
REMARK  8 active torsions:
REMARK  status: ('A' for Active; 'I' for Inactive)
REMARK    1  A    between atoms: C_3  and  N_4 
REMARK       I    between atoms: N_4  and  C_5 
REMARK    2  A    between atoms: C_5  and  C_6 
REMARK    3  A    between atoms: C_6  and  N_7 
REMARK    4  A    between atoms: N_11  and  C_12 
REMARK    5  A    between atoms: C_14  and  N_15 
REMARK    6  A    between atoms: N_15  and  C_16 
REMARK    7  A    between atoms: C_23  and  N_24 
REMARK    8  A    between atoms: N_24  and  C_25 
ROOT
HETATM    1  C   UNL     1      -7.358   1.323 -31.575  1.00  0.00     0.756 A 
HETATM    2  N   UNL     1      -8.655   1.064 -31.669  1.00  0.00     0.131 NA
HETATM    3  C   UNL     1      -9.032   0.238 -32.637  1.00  0.00     0.758 A 
HETATM    4  N   UNL     1      -8.176  -0.391 -33.424  1.00  0.00     0.131 NA
HETATM    5  C   UNL     1      -6.892  -0.131 -33.239  1.00  0.00     0.758 A 
HETATM    6  N   UNL     1      -6.444   0.724 -32.324  1.00  0.00     0.131 NA
ENDROOT
BRANCH   1   7
HETATM    7  N   UNL     1      -6.947   2.268 -30.628  1.00  0.00    -0.210 N 
HETATM    8  C   UNL     1      -7.221   3.675 -30.961  1.00  0.00     0.169 C 
HETATM    9  C   UNL     1      -6.116   4.251 -31.877  1.00  0.00     0.256 C 
HETATM   10  N   UNL     1      -4.743   4.039 -31.206  1.00  0.00    -0.060 N 
HETATM   11  H   UNL     1      -4.813   4.482 -30.283  1.00  0.00     0.280 HD
HETATM   12  C   UNL     1      -4.502   2.547 -30.945  1.00  0.00     0.256 C 
HETATM   13  C   UNL     1      -5.628   2.008 -30.031  1.00  0.00     0.169 C 
BRANCH  10  14
HETATM   14  C   UNL     1      -3.585   4.729 -31.920  1.00  0.00     0.337 C 
BRANCH  14  15
HETATM   15  C   UNL     1      -2.300   4.960 -31.110  1.00  0.00     0.248 C 
HETATM   16  N   UNL     1      -2.344   6.134 -30.378  1.00  0.00    -0.325 N 
HETATM   17  H   UNL     1      -3.126   6.752 -30.568  1.00  0.00     0.169 HD
HETATM   18  O   UNL     1      -1.370   4.172 -31.199  1.00  0.00    -0.271 OA
BRANCH  16  19
HETATM   19  C   UNL     1      -1.343   6.739 -29.570  1.00  0.00     0.042 A 
HETATM   20  C   UNL     1      -0.036   7.104 -29.943  1.00  0.00    -0.035 A 
HETATM   21  C   UNL     1       0.619   6.804 -31.262  1.00  0.00     0.050 C 
HETATM   22  C   UNL     1       0.775   7.786 -29.005  1.00  0.00     0.011 A 
HETATM   23  C   UNL     1       0.338   8.044 -27.708  1.00  0.00     0.024 A 
HETATM   24  C   UNL     1      -0.921   7.620 -27.326  1.00  0.00     0.036 A 
HETATM   25  C   UNL     1      -1.751   6.973 -28.241  1.00  0.00     0.053 A 
HETATM   26 CL   UNL     1      -1.476   7.902 -25.722  1.00  0.00    -0.084 Cl
ENDBRANCH  16  19
ENDBRANCH  14  15
ENDBRANCH  10  14
ENDBRANCH   1   7
BRANCH   3  27
HETATM   27  N   UNL     1     -10.402   0.016 -32.747  1.00  0.00    -0.187 N 
HETATM   28  H   UNL     1     -10.750  -0.456 -31.925  1.00  0.00     0.184 HD
BRANCH  27  29
HETATM   29  C   UNL     1     -11.391   0.657 -33.510  1.00  0.00     0.049 A 
HETATM   30  C   UNL     1     -12.682   0.103 -33.536  1.00  0.00     0.030 A 
HETATM   31  C   UNL     1     -13.701   0.674 -34.303  1.00  0.00     0.002 A 
HETATM   32  C   UNL     1     -13.445   1.810 -35.065  1.00  0.00     0.000 A 
HETATM   33  C   UNL     1     -12.167   2.362 -35.069  1.00  0.00     0.002 A 
HETATM   34  C   UNL     1     -11.148   1.780 -34.308  1.00  0.00     0.030 A 
ENDBRANCH  27  29
ENDBRANCH   3  27
BRANCH   5  35
HETATM   35  N   UNL     1      -6.037  -0.864 -34.058  1.00  0.00    -0.187 N 
HETATM   36  H   UNL     1      -5.454  -0.221 -34.579  1.00  0.00     0.184 HD
BRANCH  35  37
HETATM   37  C   UNL     1      -5.753  -2.222 -34.225  1.00  0.00     0.049 A 
HETATM   38  C   UNL     1      -6.668  -3.156 -34.719  1.00  0.00     0.030 A 
HETATM   39  C   UNL     1      -6.308  -4.498 -34.891  1.00  0.00     0.002 A 
HETATM   40  C   UNL     1      -5.020  -4.924 -34.581  1.00  0.00     0.000 A 
HETATM   41  C   UNL     1      -4.091  -4.010 -34.098  1.00  0.00     0.002 A 
HETATM   42  C   UNL     1      -4.456  -2.672 -33.927  1.00  0.00     0.030 A 
ENDBRANCH  35  37
ENDBRANCH   5  35
TORSDOF 8
ENDMDL
MODEL 4
REMARK VINA RESULT:     -10.5      3.685      9.731
REMARK  8 active torsions:
REMARK  status: ('A' for Active; 'I' for Inactive)
REMARK    1  A    between atoms: C_3  and  N_4 
REMARK       I    between atoms: N_4  and  C_5 
REMARK    2  A    between atoms: C_5  and  C_6 
REMARK    3  A    between atoms: C_6  and  N_7 
REMARK    4  A    between atoms: N_11  and  C_12 
REMARK    5  A    between atoms: C_14  and  N_15 
REMARK    6  A    between atoms: N_15  and  C_16 
REMARK    7  A    between atoms: C_23  and  N_24 
REMARK    8  A    between atoms: N_24  and  C_25 
ROOT
HETATM    1  C   UNL     1      -6.500   1.370 -31.599  1.00  0.00     0.756 A 
HETATM    2  N   UNL     1      -7.817   1.501 -31.535  1.00  0.00     0.131 NA
HETATM    3  C   UNL     1      -8.525   0.910 -32.490  1.00  0.00     0.758 A 
HETATM    4  N   UNL     1      -7.984   0.140 -33.418  1.00  0.00     0.131 NA
HETATM    5  C   UNL     1      -6.668   0.006 -33.391  1.00  0.00     0.758 A 
HETATM    6  N   UNL     1      -5.890   0.609 -32.497  1.00  0.00     0.131 NA
ENDROOT
BRANCH   1   7
HETATM    7  N   UNL     1      -5.727   2.067 -30.663  1.00  0.00    -0.210 N 
HETATM    8  C   UNL     1      -6.331   3.293 -30.114  1.00  0.00     0.169 C 
HETATM    9  C   UNL     1      -6.099   4.494 -31.060  1.00  0.00     0.256 C 
HETATM   10  N   UNL     1      -4.588   4.631 -31.341  1.00  0.00    -0.060 N 
HETATM   11  H   UNL     1      -4.140   4.713 -30.421  1.00  0.00     0.280 HD
HETATM   12  C   UNL     1      -4.043   3.340 -31.967  1.00  0.00     0.256 C 
HETATM   13  C   UNL     1      -4.298   2.164 -30.995  1.00  0.00     0.169 C 
BRANCH  10  14
HETATM   14  C   UNL     1      -4.207   5.892 -32.111  1.00  0.00     0.337 C 
BRANCH  14  15
HETATM   15  C   UNL     1      -3.245   6.871 -31.420  1.00  0.00     0.248 C 
HETATM   16  N   UNL     1      -2.420   6.239 -30.506  1.00  0.00    -0.325 N 
HETATM   17  H   UNL     1      -2.637   5.269 -30.301  1.00  0.00     0.169 HD
HETATM   18  O   UNL     1      -3.304   8.066 -31.669  1.00  0.00    -0.271 OA
BRANCH  16  19
HETATM   19  C   UNL     1      -1.458   6.791 -29.617  1.00  0.00     0.042 A 
HETATM   20  C   UNL     1      -0.105   7.077 -29.877  1.00  0.00    -0.035 A 
HETATM   21  C   UNL     1       0.642   6.729 -31.134  1.00  0.00     0.050 C 
HETATM   22  C   UNL     1       0.662   7.718 -28.875  1.00  0.00     0.011 A 
HETATM   23  C   UNL     1       0.131   8.012 -27.621  1.00  0.00     0.024 A 
HETATM   24  C   UNL     1      -1.179   7.664 -27.347  1.00  0.00     0.036 A 
HETATM   25  C   UNL     1      -1.964   7.058 -28.328  1.00  0.00     0.053 A 
HETATM   26 CL   UNL     1      -1.852   7.990 -25.798  1.00  0.00    -0.084 Cl
ENDBRANCH  16  19
ENDBRANCH  14  15
ENDBRANCH  10  14
ENDBRANCH   1   7
BRANCH   3  27
HETATM   27  N   UNL     1      -9.904   1.098 -32.428  1.00  0.00    -0.187 N 
HETATM   28  H   UNL     1     -10.192   1.288 -31.480  1.00  0.00     0.184 HD
BRANCH  27  29
HETATM   29  C   UNL     1     -10.836   1.482 -33.406  1.00  0.00     0.049 A 
HETATM   30  C   UNL     1     -10.617   2.679 -34.106  1.00  0.00     0.030 A 
HETATM   31  C   UNL     1     -11.524   3.133 -35.068  1.00  0.00     0.002 A 
HETATM   32  C   UNL     1     -12.673   2.398 -35.342  1.00  0.00     0.000 A 
HETATM   33  C   UNL     1     -12.918   1.219 -34.644  1.00  0.00     0.002 A 
HETATM   34  C   UNL     1     -12.013   0.774 -33.675  1.00  0.00     0.030 A 
ENDBRANCH  27  29
ENDBRANCH   3  27
BRANCH   5  35
HETATM   35  N   UNL     1      -6.163  -0.860 -34.357  1.00  0.00    -0.187 N 
HETATM   36  H   UNL     1      -5.920  -0.323 -35.181  1.00  0.00     0.184 HD
BRANCH  35  37
HETATM   37  C   UNL     1      -5.836  -2.218 -34.392  1.00  0.00     0.049 A 
HETATM   38  C   UNL     1      -6.725  -3.226 -34.773  1.00  0.00     0.030 A 
HETATM   39  C   UNL     1      -6.322  -4.566 -34.817  1.00  0.00     0.002 A 
HETATM   40  C   UNL     1      -5.017  -4.917 -34.487  1.00  0.00     0.000 A 
HETATM   41  C   UNL     1      -4.112  -3.930 -34.113  1.00  0.00     0.002 A 
HETATM   42  C   UNL     1      -4.520  -2.594 -34.071  1.00  0.00     0.030 A 
ENDBRANCH  35  37
ENDBRANCH   5  35
TORSDOF 8
ENDMDL
MODEL 5
REMARK VINA RESULT:     -10.2      1.052      5.364
REMARK  8 active torsions:
REMARK  status: ('A' for Active; 'I' for Inactive)
REMARK    1  A    between atoms: C_3  and  N_4 
REMARK       I    between atoms: N_4  and  C_5 
REMARK    2  A    between atoms: C_5  and  C_6 
REMARK    3  A    between atoms: C_6  and  N_7 
REMARK    4  A    between atoms: N_11  and  C_12 
REMARK    5  A    between atoms: C_14  and  N_15 
REMARK    6  A    between atoms: N_15  and  C_16 
REMARK    7  A    between atoms: C_23  and  N_24 
REMARK    8  A    between atoms: N_24  and  C_25 
ROOT
HETATM    1  C   UNL     1      -6.103   1.589 -31.587  1.00  0.00     0.756 A 
HETATM    2  N   UNL     1      -5.180   2.499 -31.310  1.00  0.00     0.131 NA
HETATM    3  C   UNL     1      -3.922   2.183 -31.597  1.00  0.00     0.758 A 
HETATM    4  N   UNL     1      -3.581   1.066 -32.217  1.00  0.00     0.131 NA
HETATM    5  C   UNL     1      -4.559   0.226 -32.516  1.00  0.00     0.758 A 
HETATM    6  N   UNL     1      -5.835   0.452 -32.214  1.00  0.00     0.131 NA
ENDROOT
BRANCH   1   7
HETATM    7  N   UNL     1      -7.422   1.858 -31.203  1.00  0.00    -0.210 N 
HETATM    8  C   UNL     1      -8.442   0.922 -31.704  1.00  0.00     0.169 C 
HETATM    9  C   UNL     1      -8.882   1.300 -33.137  1.00  0.00     0.256 C 
HETATM   10  N   UNL     1      -9.345   2.772 -33.152  1.00  0.00    -0.060 N 
HETATM   11  H   UNL     1     -10.083   2.840 -32.441  1.00  0.00     0.280 HD
HETATM   12  C   UNL     1      -8.211   3.691 -32.676  1.00  0.00     0.256 C 
HETATM   13  C   UNL     1      -7.797   3.279 -31.244  1.00  0.00     0.169 C 
BRANCH  10  14
HETATM   14  C   UNL     1      -9.980   3.215 -34.466  1.00  0.00     0.337 C 
BRANCH  14  15
HETATM   15  C   UNL     1     -11.513   3.156 -34.558  1.00  0.00     0.248 C 
HETATM   16  N   UNL     1     -12.107   2.984 -33.318  1.00  0.00    -0.325 N 
HETATM   17  H   UNL     1     -11.481   2.777 -32.546  1.00  0.00     0.169 HD
HETATM   18  O   UNL     1     -12.065   3.211 -35.647  1.00  0.00    -0.271 OA
BRANCH  16  19
HETATM   19  C   UNL     1     -13.477   2.806 -32.985  1.00  0.00     0.042 A 
HETATM   20  C   UNL     1     -14.262   1.650 -33.144  1.00  0.00    -0.035 A 
HETATM   21  C   UNL     1     -13.835   0.383 -33.831  1.00  0.00     0.050 C 
HETATM   22  C   UNL     1     -15.591   1.655 -32.656  1.00  0.00     0.011 A 
HETATM   23  C   UNL     1     -16.158   2.792 -32.085  1.00  0.00     0.024 A 
HETATM   24  C   UNL     1     -15.404   3.947 -31.996  1.00  0.00     0.036 A 
HETATM   25  C   UNL     1     -14.082   3.959 -32.442  1.00  0.00     0.053 A 
HETATM   26 CL   UNL     1     -16.087   5.374 -31.320  1.00  0.00    -0.084 Cl
ENDBRANCH  16  19
ENDBRANCH  14  15
ENDBRANCH  10  14
ENDBRANCH   1   7
BRANCH   3  27
HETATM   27  N   UNL     1      -2.964   3.134 -31.256  1.00  0.00    -0.187 N 
HETATM   28  H   UNL     1      -2.416   2.817 -30.470  1.00  0.00     0.184 HD
BRANCH  27  29
HETATM   29  C   UNL     1      -2.368   4.164 -32.001  1.00  0.00     0.049 A 
HETATM   30  C   UNL     1      -2.711   4.295 -33.357  1.00  0.00     0.030 A 
HETATM   31  C   UNL     1      -2.129   5.279 -34.161  1.00  0.00     0.002 A 
HETATM   32  C   UNL     1      -1.183   6.147 -33.623  1.00  0.00     0.000 A 
HETATM   33  C   UNL     1      -0.814   6.019 -32.287  1.00  0.00     0.002 A 
HETATM   34  C   UNL     1      -1.392   5.027 -31.489  1.00  0.00     0.030 A 
ENDBRANCH  27  29
ENDBRANCH   3  27
BRANCH   5  35
HETATM   35  N   UNL     1      -4.147  -0.903 -33.217  1.00  0.00    -0.187 N 
HETATM   36  H   UNL     1      -3.135  -0.929 -33.227  1.00  0.00     0.184 HD
BRANCH  35  37
HETATM   37  C   UNL     1      -4.794  -2.004 -33.783  1.00  0.00     0.049 A 
HETATM   38  C   UNL     1      -4.201  -3.259 -33.948  1.00  0.00     0.030 A 
HETATM   39  C   UNL     1      -4.916  -4.331 -34.495  1.00  0.00     0.002 A 
HETATM   40  C   UNL     1      -6.244  -4.165 -34.877  1.00  0.00     0.000 A 
HETATM   41  C   UNL     1      -6.858  -2.928 -34.713  1.00  0.00     0.002 A 
HETATM   42  C   UNL     1      -6.138  -1.862 -34.167  1.00  0.00     0.030 A 
ENDBRANCH  35  37
ENDBRANCH   5  35
TORSDOF 8
ENDMDL
MODEL 6
REMARK VINA RESULT:     -10.2      3.727      9.623
REMARK  8 active torsions:
REMARK  status: ('A' for Active; 'I' for Inactive)
REMARK    1  A    between atoms: C_3  and  N_4 
REMARK       I    between atoms: N_4  and  C_5 
REMARK    2  A    between atoms: C_5  and  C_6 
REMARK    3  A    between atoms: C_6  and  N_7 
REMARK    4  A    between atoms: N_11  and  C_12 
REMARK    5  A    between atoms: C_14  and  N_15 
REMARK    6  A    between atoms: N_15  and  C_16 
REMARK    7  A    between atoms: C_23  and  N_24 
REMARK    8  A    between atoms: N_24  and  C_25 
ROOT
HETATM    1  C   UNL     1      -7.459   1.396 -32.323  1.00  0.00     0.756 A 
HETATM    2  N   UNL     1      -8.745   1.106 -32.178  1.00  0.00     0.131 NA
HETATM    3  C   UNL     1      -9.240   0.166 -32.975  1.00  0.00     0.758 A 
HETATM    4  N   UNL     1      -8.497  -0.535 -33.814  1.00  0.00     0.131 NA
HETATM    5  C   UNL     1      -7.210  -0.232 -33.868  1.00  0.00     0.758 A 
HETATM    6  N   UNL     1      -6.654   0.731 -33.138  1.00  0.00     0.131 NA
ENDROOT
BRANCH   1   7
HETATM    7  N   UNL     1      -6.938   2.452 -31.566  1.00  0.00    -0.210 N 
HETATM    8  C   UNL     1      -7.577   3.764 -31.764  1.00  0.00     0.169 C 
HETATM    9  C   UNL     1      -6.988   4.483 -33.000  1.00  0.00     0.256 C 
HETATM   10  N   UNL     1      -5.455   4.568 -32.852  1.00  0.00    -0.060 N 
HETATM   11  H   UNL     1      -5.287   5.040 -31.956  1.00  0.00     0.280 HD
HETATM   12  C   UNL     1      -4.855   3.162 -32.711  1.00  0.00     0.256 C 
HETATM   13  C   UNL     1      -5.471   2.475 -31.469  1.00  0.00     0.169 C 
BRANCH  10  14
HETATM   14  C   UNL     1      -4.770   5.420 -33.915  1.00  0.00     0.337 C 
BRANCH  14  15
HETATM   15  C   UNL     1      -3.402   6.021 -33.557  1.00  0.00     0.248 C 
HETATM   16  N   UNL     1      -3.147   5.974 -32.196  1.00  0.00    -0.325 N 
HETATM   17  H   UNL     1      -3.923   5.694 -31.605  1.00  0.00     0.169 HD
HETATM   18  O   UNL     1      -2.700   6.512 -34.429  1.00  0.00    -0.271 OA
BRANCH  16  19
HETATM   19  C   UNL     1      -2.045   6.486 -31.460  1.00  0.00     0.042 A 
HETATM   20  C   UNL     1      -1.902   7.769 -30.900  1.00  0.00    -0.035 A 
HETATM   21  C   UNL     1      -2.851   8.920 -31.082  1.00  0.00     0.050 C 
HETATM   22  C   UNL     1      -0.755   8.048 -30.118  1.00  0.00     0.011 A 
HETATM   23  C   UNL     1       0.260   7.110 -29.944  1.00  0.00     0.024 A 
HETATM   24  C   UNL     1       0.146   5.875 -30.556  1.00  0.00     0.036 A 
HETATM   25  C   UNL     1      -0.988   5.566 -31.307  1.00  0.00     0.053 A 
HETATM   26 CL   UNL     1       1.397   4.707 -30.381  1.00  0.00    -0.084 Cl
ENDBRANCH  16  19
ENDBRANCH  14  15
ENDBRANCH  10  14
ENDBRANCH   1   7
BRANCH   3  27
HETATM   27  N   UNL     1     -10.602  -0.090 -32.838  1.00  0.00    -0.187 N 
HETATM   28  H   UNL     1     -10.792  -0.517 -31.943  1.00  0.00     0.184 HD
BRANCH  27  29
HETATM   29  C   UNL     1     -11.724   0.481 -33.458  1.00  0.00     0.049 A 
HETATM   30  C   UNL     1     -12.920  -0.256 -33.490  1.00  0.00     0.030 A 
HETATM   31  C   UNL     1     -14.063   0.243 -34.121  1.00  0.00     0.002 A 
HETATM   32  C   UNL     1     -14.028   1.489 -34.740  1.00  0.00     0.000 A 
HETATM   33  C   UNL     1     -12.846   2.225 -34.737  1.00  0.00     0.002 A 
HETATM   34  C   UNL     1     -11.702   1.717 -34.114  1.00  0.00     0.030 A 
ENDBRANCH  27  29
ENDBRANCH   3  27
BRANCH   5  35
HETATM   35  N   UNL     1      -6.469  -1.040 -34.726  1.00  0.00    -0.187 N 
HETATM   36  H   UNL     1      -6.257  -0.515 -35.565  1.00  0.00     0.184 HD
BRANCH  35  37
HETATM   37  C   UNL     1      -5.896  -2.311 -34.637  1.00  0.00     0.049 A 
HETATM   38  C   UNL     1      -4.647  -2.566 -34.063  1.00  0.00     0.030 A 
HETATM   39  C   UNL     1      -4.144  -3.870 -33.977  1.00  0.00     0.002 A 
HETATM   40  C   UNL     1      -4.890  -4.942 -34.457  1.00  0.00     0.000 A 
HETATM   41  C   UNL     1      -6.139  -4.713 -35.023  1.00  0.00     0.002 A 
HETATM   42  C   UNL     1      -6.636  -3.409 -35.106  1.00  0.00     0.030 A 
ENDBRANCH  35  37
ENDBRANCH   5  35
TORSDOF 8
ENDMDL
MODEL 7
REMARK VINA RESULT:      -9.9      0.953      5.405
REMARK  8 active torsions:
REMARK  status: ('A' for Active; 'I' for Inactive)
REMARK    1  A    between atoms: C_3  and  N_4 
REMARK       I    between atoms: N_4  and  C_5 
REMARK    2  A    between atoms: C_5  and  C_6 
REMARK    3  A    between atoms: C_6  and  N_7 
REMARK    4  A    between atoms: N_11  and  C_12 
REMARK    5  A    between atoms: C_14  and  N_15 
REMARK    6  A    between atoms: N_15  and  C_16 
REMARK    7  A    between atoms: C_23  and  N_24 
REMARK    8  A    between atoms: N_24  and  C_25 
ROOT
HETATM    1  C   UNL     1      -5.561   1.532 -30.898  1.00  0.00     0.756 A 
HETATM    2  N   UNL     1      -4.819   2.628 -30.973  1.00  0.00     0.131 NA
HETATM    3  C   UNL     1      -3.510   2.457 -31.119  1.00  0.00     0.758 A 
HETATM    4  N   UNL     1      -2.951   1.270 -31.284  1.00  0.00     0.131 NA
HETATM    5  C   UNL     1      -3.757   0.221 -31.256  1.00  0.00     0.758 A 
HETATM    6  N   UNL     1      -5.069   0.312 -31.062  1.00  0.00     0.131 NA
ENDROOT
BRANCH   1   7
HETATM    7  N   UNL     1      -6.928   1.685 -30.644  1.00  0.00    -0.210 N 
HETATM    8  C   UNL     1      -7.805   0.632 -31.181  1.00  0.00     0.169 C 
HETATM    9  C   UNL     1      -8.147   0.902 -32.665  1.00  0.00     0.256 C 
HETATM   10  N   UNL     1      -8.745   2.318 -32.796  1.00  0.00    -0.060 N 
HETATM   11  H   UNL     1      -9.547   2.343 -32.156  1.00  0.00     0.280 HD
HETATM   12  C   UNL     1      -7.752   3.365 -32.273  1.00  0.00     0.256 C 
HETATM   13  C   UNL     1      -7.432   3.059 -30.790  1.00  0.00     0.169 C 
BRANCH  10  14
HETATM   14  C   UNL     1      -9.297   2.639 -34.181  1.00  0.00     0.337 C 
BRANCH  14  15
HETATM   15  C   UNL     1     -10.614   3.428 -34.244  1.00  0.00     0.248 C 
HETATM   16  N   UNL     1     -11.265   3.462 -33.023  1.00  0.00    -0.325 N 
HETATM   17  H   UNL     1     -10.886   2.863 -32.296  1.00  0.00     0.169 HD
HETATM   18  O   UNL     1     -10.998   3.897 -35.306  1.00  0.00    -0.271 OA
BRANCH  16  19
HETATM   19  C   UNL     1     -12.529   4.015 -32.682  1.00  0.00     0.042 A 
HETATM   20  C   UNL     1     -12.862   5.372 -32.517  1.00  0.00    -0.035 A 
HETATM   21  C   UNL     1     -11.897   6.525 -32.542  1.00  0.00     0.050 C 
HETATM   22  C   UNL     1     -14.212   5.718 -32.268  1.00  0.00     0.011 A 
HETATM   23  C   UNL     1     -15.202   4.750 -32.119  1.00  0.00     0.024 A 
HETATM   24  C   UNL     1     -14.855   3.415 -32.213  1.00  0.00     0.036 A 
HETATM   25  C   UNL     1     -13.538   3.049 -32.486  1.00  0.00     0.053 A 
HETATM   26 CL   UNL     1     -16.053   2.197 -32.006  1.00  0.00    -0.084 Cl
ENDBRANCH  16  19
ENDBRANCH  14  15
ENDBRANCH  10  14
ENDBRANCH   1   7
BRANCH   3  27
HETATM   27  N   UNL     1      -2.745   3.620 -31.150  1.00  0.00    -0.187 N 
HETATM   28  H   UNL     1      -2.225   3.722 -30.291  1.00  0.00     0.184 HD
BRANCH  27  29
HETATM   29  C   UNL     1      -2.253   4.383 -32.220  1.00  0.00     0.049 A 
HETATM   30  C   UNL     1      -1.465   5.510 -31.934  1.00  0.00     0.030 A 
HETATM   31  C   UNL     1      -0.973   6.330 -32.953  1.00  0.00     0.002 A 
HETATM   32  C   UNL     1      -1.267   6.039 -34.282  1.00  0.00     0.000 A 
HETATM   33  C   UNL     1      -2.063   4.938 -34.586  1.00  0.00     0.002 A 
HETATM   34  C   UNL     1      -2.562   4.127 -33.561  1.00  0.00     0.030 A 
ENDBRANCH  27  29
ENDBRANCH   3  27
BRANCH   5  35
HETATM   35  N   UNL     1      -3.120  -0.994 -31.491  1.00  0.00    -0.187 N 
HETATM   36  H   UNL     1      -2.345  -1.087 -30.844  1.00  0.00     0.184 HD
BRANCH  35  37
HETATM   37  C   UNL     1      -3.371  -2.099 -32.307  1.00  0.00     0.049 A 
HETATM   38  C   UNL     1      -3.028  -3.412 -31.973  1.00  0.00     0.030 A 
HETATM   39  C   UNL     1      -3.338  -4.480 -32.824  1.00  0.00     0.002 A 
HETATM   40  C   UNL     1      -4.007  -4.249 -34.022  1.00  0.00     0.000 A 
HETATM   41  C   UNL     1      -4.366  -2.953 -34.371  1.00  0.00     0.002 A 
HETATM   42  C   UNL     1      -4.054  -1.891 -33.518  1.00  0.00     0.030 A 
ENDBRANCH  35  37
ENDBRANCH   5  35
TORSDOF 8
ENDMDL
MODEL 8
REMARK VINA RESULT:      -9.9      3.212      9.130
REMARK  8 active torsions:
REMARK  status: ('A' for Active; 'I' for Inactive)
REMARK    1  A    between atoms: C_3  and  N_4 
REMARK       I    between atoms: N_4  and  C_5 
REMARK    2  A    between atoms: C_5  and  C_6 
REMARK    3  A    between atoms: C_6  and  N_7 
REMARK    4  A    between atoms: N_11  and  C_12 
REMARK    5  A    between atoms: C_14  and  N_15 
REMARK    6  A    between atoms: N_15  and  C_16 
REMARK    7  A    between atoms: C_23  and  N_24 
REMARK    8  A    between atoms: N_24  and  C_25 
ROOT
HETATM    1  C   UNL     1      -8.169   1.225 -32.147  1.00  0.00     0.756 A 
HETATM    2  N   UNL     1      -9.308   1.460 -32.783  1.00  0.00     0.131 NA
HETATM    3  C   UNL     1      -9.385   1.053 -34.045  1.00  0.00     0.758 A 
HETATM    4  N   UNL     1      -8.429   0.360 -34.640  1.00  0.00     0.131 NA
HETATM    5  C   UNL     1      -7.341   0.111 -33.929  1.00  0.00     0.758 A 
HETATM    6  N   UNL     1      -7.173   0.531 -32.678  1.00  0.00     0.131 NA
ENDROOT
BRANCH   1   7
HETATM    7  N   UNL     1      -8.028   1.732 -30.850  1.00  0.00    -0.210 N 
HETATM    8  C   UNL     1      -9.079   2.661 -30.404  1.00  0.00     0.169 C 
HETATM    9  C   UNL     1      -8.792   4.098 -30.896  1.00  0.00     0.256 C 
HETATM   10  N   UNL     1      -7.377   4.515 -30.442  1.00  0.00    -0.060 N 
HETATM   11  H   UNL     1      -7.366   4.397 -29.423  1.00  0.00     0.280 HD
HETATM   12  C   UNL     1      -6.332   3.537 -30.995  1.00  0.00     0.256 C 
HETATM   13  C   UNL     1      -6.655   2.113 -30.485  1.00  0.00     0.169 C 
BRANCH  10  14
HETATM   14  C   UNL     1      -7.042   5.980 -30.704  1.00  0.00     0.337 C 
BRANCH  14  15
HETATM   15  C   UNL     1      -6.038   6.279 -31.828  1.00  0.00     0.248 C 
HETATM   16  N   UNL     1      -4.751   6.456 -31.349  1.00  0.00    -0.325 N 
HETATM   17  H   UNL     1      -4.652   6.511 -30.340  1.00  0.00     0.169 HD
HETATM   18  O   UNL     1      -6.424   6.383 -32.983  1.00  0.00    -0.271 OA
BRANCH  16  19
HETATM   19  C   UNL     1      -3.565   6.818 -32.043  1.00  0.00     0.042 A 
HETATM   20  C   UNL     1      -2.737   7.932 -31.817  1.00  0.00    -0.035 A 
HETATM   21  C   UNL     1      -3.016   9.056 -30.858  1.00  0.00     0.050 C 
HETATM   22  C   UNL     1      -1.542   8.058 -32.565  1.00  0.00     0.011 A 
HETATM   23  C   UNL     1      -1.201   7.145 -33.560  1.00  0.00     0.024 A 
HETATM   24  C   UNL     1      -2.054   6.090 -33.827  1.00  0.00     0.036 A 
HETATM   25  C   UNL     1      -3.223   5.929 -33.083  1.00  0.00     0.053 A 
HETATM   26 CL   UNL     1      -1.671   4.964 -35.069  1.00  0.00    -0.084 Cl
ENDBRANCH  16  19
ENDBRANCH  14  15
ENDBRANCH  10  14
ENDBRANCH   1   7
BRANCH   3  27
HETATM   27  N   UNL     1     -10.573   1.350 -34.707  1.00  0.00    -0.187 N 
HETATM   28  H   UNL     1     -10.489   1.143 -35.692  1.00  0.00     0.184 HD
BRANCH  27  29
HETATM   29  C   UNL     1     -11.896   1.452 -34.247  1.00  0.00     0.049 A 
HETATM   30  C   UNL     1     -12.399   2.725 -33.931  1.00  0.00     0.030 A 
HETATM   31  C   UNL     1     -13.696   2.891 -33.437  1.00  0.00     0.002 A 
HETATM   32  C   UNL     1     -14.513   1.781 -33.243  1.00  0.00     0.000 A 
HETATM   33  C   UNL     1     -14.025   0.509 -33.530  1.00  0.00     0.002 A 
HETATM   34  C   UNL     1     -12.724   0.348 -34.014  1.00  0.00     0.030 A 
ENDBRANCH  27  29
ENDBRANCH   3  27
BRANCH   5  35
HETATM   35  N   UNL     1      -6.395  -0.669 -34.588  1.00  0.00    -0.187 N 
HETATM   36  H   UNL     1      -5.820  -0.067 -35.164  1.00  0.00     0.184 HD
BRANCH  35  37
HETATM   37  C   UNL     1      -6.021  -2.014 -34.544  1.00  0.00     0.049 A 
HETATM   38  C   UNL     1      -6.869  -3.073 -34.881  1.00  0.00     0.030 A 
HETATM   39  C   UNL     1      -6.420  -4.398 -34.845  1.00  0.00     0.002 A 
HETATM   40  C   UNL     1      -5.108  -4.685 -34.480  1.00  0.00     0.000 A 
HETATM   41  C   UNL     1      -4.244  -3.646 -34.149  1.00  0.00     0.002 A 
HETATM   42  C   UNL     1      -4.698  -2.325 -34.186  1.00  0.00     0.030 A 
ENDBRANCH  35  37
ENDBRANCH   5  35
TORSDOF 8
ENDMDL
MODEL 9
REMARK VINA RESULT:      -9.8      3.815      9.342
REMARK  8 active torsions:
REMARK  status: ('A' for Active; 'I' for Inactive)
REMARK    1  A    between atoms: C_3  and  N_4 
REMARK       I    between atoms: N_4  and  C_5 
REMARK    2  A    between atoms: C_5  and  C_6 
REMARK    3  A    between atoms: C_6  and  N_7 
REMARK    4  A    between atoms: N_11  and  C_12 
REMARK    5  A    between atoms: C_14  and  N_15 
REMARK    6  A    between atoms: N_15  and  C_16 
REMARK    7  A    between atoms: C_23  and  N_24 
REMARK    8  A    between atoms: N_24  and  C_25 
ROOT
HETATM    1  C   UNL     1      -7.419   2.491 -33.807  1.00  0.00     0.756 A 
HETATM    2  N   UNL     1      -6.488   1.548 -33.823  1.00  0.00     0.131 NA
HETATM    3  C   UNL     1      -6.854   0.339 -33.412  1.00  0.00     0.758 A 
HETATM    4  N   UNL     1      -8.098   0.031 -33.088  1.00  0.00     0.131 NA
HETATM    5  C   UNL     1      -8.990   1.007 -33.149  1.00  0.00     0.758 A 
HETATM    6  N   UNL     1      -8.687   2.253 -33.502  1.00  0.00     0.131 NA
ENDROOT
BRANCH   1   7
HETATM    7  N   UNL     1      -7.034   3.795 -34.140  1.00  0.00    -0.210 N 
HETATM    8  C   UNL     1      -5.588   4.068 -34.104  1.00  0.00     0.169 C 
HETATM    9  C   UNL     1      -5.123   4.398 -32.667  1.00  0.00     0.256 C 
HETATM   10  N   UNL     1      -5.977   5.558 -32.114  1.00  0.00    -0.060 N 
HETATM   11  H   UNL     1      -5.874   6.326 -32.788  1.00  0.00     0.280 HD
HETATM   12  C   UNL     1      -7.463   5.178 -32.126  1.00  0.00     0.256 C 
HETATM   13  C   UNL     1      -7.888   4.852 -33.577  1.00  0.00     0.169 C 
BRANCH  10  14
HETATM   14  C   UNL     1      -5.496   6.105 -30.773  1.00  0.00     0.337 C 
BRANCH  14  15
HETATM   15  C   UNL     1      -4.179   6.897 -30.771  1.00  0.00     0.248 C 
HETATM   16  N   UNL     1      -3.163   6.225 -30.112  1.00  0.00    -0.325 N 
HETATM   17  H   UNL     1      -3.435   5.390 -29.602  1.00  0.00     0.169 HD
HETATM   18  O   UNL     1      -4.133   8.011 -31.272  1.00  0.00    -0.271 OA
BRANCH  16  19
HETATM   19  C   UNL     1      -1.835   6.642 -29.827  1.00  0.00     0.042 A 
HETATM   20  C   UNL     1      -0.667   6.368 -30.562  1.00  0.00    -0.035 A 
HETATM   21  C   UNL     1      -0.569   5.453 -31.750  1.00  0.00     0.050 C 
HETATM   22  C   UNL     1       0.551   6.962 -30.152  1.00  0.00     0.011 A 
HETATM   23  C   UNL     1       0.634   7.754 -29.010  1.00  0.00     0.024 A 
HETATM   24  C   UNL     1      -0.504   7.961 -28.252  1.00  0.00     0.036 A 
HETATM   25  C   UNL     1      -1.722   7.411 -28.650  1.00  0.00     0.053 A 
HETATM   26 CL   UNL     1      -0.426   8.912 -26.821  1.00  0.00    -0.084 Cl
ENDBRANCH  16  19
ENDBRANCH  14  15
ENDBRANCH  10  14
ENDBRANCH   1   7
BRANCH   3  27
HETATM   27  N   UNL     1      -5.850  -0.626 -33.393  1.00  0.00    -0.187 N 
HETATM   28  H   UNL     1      -5.197  -0.442 -32.646  1.00  0.00     0.184 HD
BRANCH  27  29
HETATM   29  C   UNL     1      -5.812  -1.940 -33.885  1.00  0.00     0.049 A 
HETATM   30  C   UNL     1      -4.576  -2.607 -33.921  1.00  0.00     0.030 A 
HETATM   31  C   UNL     1      -4.467  -3.904 -34.429  1.00  0.00     0.002 A 
HETATM   32  C   UNL     1      -5.594  -4.557 -34.919  1.00  0.00     0.000 A 
HETATM   33  C   UNL     1      -6.824  -3.906 -34.911  1.00  0.00     0.002 A 
HETATM   34  C   UNL     1      -6.927  -2.604 -34.411  1.00  0.00     0.030 A 
ENDBRANCH  27  29
ENDBRANCH   3  27
BRANCH   5  35
HETATM   35  N   UNL     1     -10.291   0.611 -32.852  1.00  0.00    -0.187 N 
HETATM   36  H   UNL     1     -10.286   0.108 -31.973  1.00  0.00     0.184 HD
BRANCH  35  37
HETATM   37  C   UNL     1     -11.546   0.840 -33.420  1.00  0.00     0.049 A 
HETATM   38  C   UNL     1     -11.912   2.031 -34.053  1.00  0.00     0.030 A 
HETATM   39  C   UNL     1     -13.178   2.184 -34.630  1.00  0.00     0.002 A 
HETATM   40  C   UNL     1     -14.098   1.139 -34.590  1.00  0.00     0.000 A 
HETATM   41  C   UNL     1     -13.752  -0.058 -33.974  1.00  0.00     0.002 A 
HETATM   42  C   UNL     1     -12.487  -0.204 -33.399  1.00  0.00     0.030 A 
ENDBRANCH  35  37
ENDBRANCH   5  35
TORSDOF 8
ENDMDL
MODEL 10
REMARK VINA RESULT:      -9.7      4.482      9.727
REMARK  8 active torsions:
REMARK  status: ('A' for Active; 'I' for Inactive)
REMARK    1  A    between atoms: C_3  and  N_4 
REMARK       I    between atoms: N_4  and  C_5 
REMARK    2  A    between atoms: C_5  and  C_6 
REMARK    3  A    between atoms: C_6  and  N_7 
REMARK    4  A    between atoms: N_11  and  C_12 
REMARK    5  A    between atoms: C_14  and  N_15 
REMARK    6  A    between atoms: N_15  and  C_16 
REMARK    7  A    between atoms: C_23  and  N_24 
REMARK    8  A    between atoms: N_24  and  C_25 
ROOT
HETATM    1  C   UNL     1      -5.968   3.180 -33.257  1.00  0.00     0.756 A 
HETATM    2  N   UNL     1      -5.537   1.941 -33.071  1.00  0.00     0.131 NA
HETATM    3  C   UNL     1      -6.445   1.038 -32.718  1.00  0.00     0.758 A 
HETATM    4  N   UNL     1      -7.737   1.305 -32.640  1.00  0.00     0.131 NA
HETATM    5  C   UNL     1      -8.106   2.550 -32.893  1.00  0.00     0.758 A 
HETATM    6  N   UNL     1      -7.249   3.518 -33.202  1.00  0.00     0.131 NA
ENDROOT
BRANCH   1   7
HETATM    7  N   UNL     1      -5.016   4.169 -33.531  1.00  0.00    -0.210 N 
HETATM    8  C   UNL     1      -3.689   3.971 -32.925  1.00  0.00     0.169 C 
HETATM    9  C   UNL     1      -3.666   4.486 -31.467  1.00  0.00     0.256 C 
HETATM   10  N   UNL     1      -4.135   5.956 -31.443  1.00  0.00    -0.060 N 
HETATM   11  H   UNL     1      -3.513   6.457 -32.088  1.00  0.00     0.280 HD
HETATM   12  C   UNL     1      -5.546   6.075 -32.034  1.00  0.00     0.256 C 
HETATM   13  C   UNL     1      -5.529   5.546 -33.488  1.00  0.00     0.169 C 
BRANCH  10  14
HETATM   14  C   UNL     1      -3.980   6.640 -30.089  1.00  0.00     0.337 C 
BRANCH  14  15
HETATM   15  C   UNL     1      -2.582   7.163 -29.724  1.00  0.00     0.248 C 
HETATM   16  N   UNL     1      -2.190   6.772 -28.454  1.00  0.00    -0.325 N 
HETATM   17  H   UNL     1      -2.902   6.329 -27.882  1.00  0.00     0.169 HD
HETATM   18  O   UNL     1      -1.973   7.880 -30.503  1.00  0.00    -0.271 OA
BRANCH  16  19
HETATM   19  C   UNL     1      -1.018   7.105 -27.723  1.00  0.00     0.042 A 
HETATM   20  C   UNL     1       0.285   6.607 -27.906  1.00  0.00    -0.035 A 
HETATM   21  C   UNL     1       0.682   5.505 -28.848  1.00  0.00     0.050 C 
HETATM   22  C   UNL     1       1.337   7.145 -27.125  1.00  0.00     0.011 A 
HETATM   23  C   UNL     1       1.104   8.102 -26.141  1.00  0.00     0.024 A 
HETATM   24  C   UNL     1      -0.190   8.536 -25.917  1.00  0.00     0.036 A 
HETATM   25  C   UNL     1      -1.239   8.043 -26.693  1.00  0.00     0.053 A 
HETATM   26 CL   UNL     1      -0.510   9.697 -24.689  1.00  0.00    -0.084 Cl
ENDBRANCH  16  19
ENDBRANCH  14  15
ENDBRANCH  10  14
ENDBRANCH   1   7
BRANCH   3  27
HETATM   27  N   UNL     1      -5.963  -0.248 -32.484  1.00  0.00    -0.187 N 
HETATM   28  H   UNL     1      -5.991  -0.461 -31.498  1.00  0.00     0.184 HD
BRANCH  27  29
HETATM   29  C   UNL     1      -5.871  -1.373 -33.318  1.00  0.00     0.049 A 
HETATM   30  C   UNL     1      -4.610  -1.962 -33.512  1.00  0.00     0.030 A 
HETATM   31  C   UNL     1      -4.445  -3.064 -34.356  1.00  0.00     0.002 A 
HETATM   32  C   UNL     1      -5.542  -3.594 -35.029  1.00  0.00     0.000 A 
HETATM   33  C   UNL     1      -6.796  -3.012 -34.867  1.00  0.00     0.002 A 
HETATM   34  C   UNL     1      -6.954  -1.903 -34.029  1.00  0.00     0.030 A 
ENDBRANCH  27  29
ENDBRANCH   3  27
BRANCH   5  35
HETATM   35  N   UNL     1      -9.482   2.757 -32.851  1.00  0.00    -0.187 N 
HETATM   36  H   UNL     1      -9.685   3.455 -32.146  1.00  0.00     0.184 HD
BRANCH  35  37
HETATM   37  C   UNL     1     -10.571   2.314 -33.606  1.00  0.00     0.049 A 
HETATM   38  C   UNL     1     -11.264   1.126 -33.354  1.00  0.00     0.030 A 
HETATM   39  C   UNL     1     -12.369   0.756 -34.130  1.00  0.00     0.002 A 
HETATM   40  C   UNL     1     -12.803   1.575 -35.168  1.00  0.00     0.000 A 
HETATM   41  C   UNL     1     -12.135   2.766 -35.430  1.00  0.00     0.002 A 
HETATM   42  C   UNL     1     -11.033   3.130 -34.652  1.00  0.00     0.030 A 
ENDBRANCH  35  37
ENDBRANCH   5  35
TORSDOF 8
ENDMDL
