MODEL 1
REMARK VINA RESULT:     -10.3      0.000      0.000
REMARK  7 active torsions:
REMARK  status: ('A' for Active; 'I' for Inactive)
REMARK    1  A    between atoms: O_2  and  C_3 
REMARK    2  A    between atoms: C_5  and  C_6 
REMARK    3  A    between atoms: C_8  and  N_9 
REMARK    4  A    between atoms: N_12  and  C_14 
REMARK    5  A    between atoms: C_14  and  C_15 
REMARK       I    between atoms: C_15  and  N_16 
REMARK    6  A    between atoms: N_16  and  N_17 
REMARK       I    between atoms: N_17  and  C_18 
REMARK    7  A    between atoms: C_18  and  C_19 
ROOT
HETATM    1  N   UNL     1      -6.563   2.089 -32.448  1.00  0.00    -0.357 N 
HETATM    2  C   UNL     1      -7.294   3.360 -32.572  1.00  0.00     0.152 C 
HETATM    3  C   UNL     1      -6.490   4.374 -33.422  1.00  0.00     0.255 C 
HETATM    4  N   UNL     1      -5.095   4.546 -32.821  1.00  0.00    -0.060 N 
HETATM    5  H   UNL     1      -5.225   4.815 -31.841  1.00  0.00     0.280 HD
HETATM    6  C   UNL     1      -4.363   3.194 -32.785  1.00  0.00     0.255 C 
HETATM    7  C   UNL     1      -5.189   2.215 -31.921  1.00  0.00     0.152 C 
ENDROOT
BRANCH   4   8
HETATM    8  C   UNL     1      -4.273   5.672 -33.449  1.00  0.00     0.338 C 
BRANCH   8   9
HETATM    9  C   UNL     1      -3.536   5.343 -34.749  1.00  0.00     0.262 C 
HETATM   10  N   UNL     1      -2.161   5.273 -34.706  1.00  0.00    -0.266 N 
HETATM   11  H   UNL     1      -1.703   4.919 -35.546  1.00  0.00     0.190 HD
HETATM   12  O   UNL     1      -4.128   5.187 -35.816  1.00  0.00    -0.270 OA
BRANCH  10  13
HETATM   13  N   UNL     1      -1.419   5.270 -33.510  1.00  0.00    -0.263 N 
HETATM   14  C   UNL     1      -1.006   6.496 -33.001  1.00  0.00     0.270 C 
HETATM   15  O   UNL     1      -1.001   7.525 -33.669  1.00  0.00    -0.266 OA
HETATM   16  H   UNL     1      -1.652   4.527 -32.850  1.00  0.00     0.190 HD
BRANCH  14  17
HETATM   17  C   UNL     1      -0.537   6.500 -31.592  1.00  0.00     0.033 A 
HETATM   18  C   UNL     1      -0.862   7.596 -30.783  1.00  0.00     0.019 A 
HETATM   19  C   UNL     1      -0.419   7.644 -29.459  1.00  0.00     0.025 A 
HETATM   20  C   UNL     1       0.361   6.607 -28.951  1.00  0.00     0.034 A 
HETATM   21 CL   UNL     1       0.918   6.670 -27.326  1.00  0.00    -0.084 Cl
HETATM   22  C   UNL     1       0.701   5.520 -29.756  1.00  0.00     0.025 A 
HETATM   23  C   UNL     1       0.254   5.462 -31.079  1.00  0.00     0.019 A 
ENDBRANCH  14  17
ENDBRANCH  10  13
ENDBRANCH   8   9
ENDBRANCH   4   8
BRANCH   1  24
HETATM   24  C   UNL     1      -6.777   1.068 -33.339  1.00  0.00     0.169 A 
HETATM   25  N   UNL     1      -6.119  -0.068 -33.278  1.00  0.00    -0.223 NA
HETATM   26  C   UNL     1      -6.558  -0.967 -34.240  1.00  0.00     0.076 A 
HETATM   27  C   UNL     1      -7.552  -0.481 -35.062  1.00  0.00     0.085 A 
HETATM   28  S   UNL     1      -7.946   1.121 -34.614  1.00  0.00    -0.062 SA
BRANCH  26  29
HETATM   29  C   UNL     1      -6.015  -2.319 -34.313  1.00  0.00    -0.004 A 
HETATM   30  C   UNL     1      -4.804  -2.667 -33.698  1.00  0.00     0.050 A 
HETATM   31  C   UNL     1      -4.293  -3.968 -33.793  1.00  0.00     0.069 A 
HETATM   32  C   UNL     1      -4.998  -4.933 -34.509  1.00  0.00     0.037 A 
HETATM   33  C   UNL     1      -6.209  -4.602 -35.121  1.00  0.00     0.004 A 
HETATM   34  C   UNL     1      -6.714  -3.304 -35.021  1.00  0.00     0.014 A 
BRANCH  31  35
HETATM   35  O   UNL     1      -3.104  -4.157 -33.143  1.00  0.00    -0.356 OA
HETATM   36  C   UNL     1      -2.957  -3.531 -31.873  1.00  0.00     0.210 C 
ENDBRANCH  31  35
ENDBRANCH  26  29
ENDBRANCH   1  24
TORSDOF 7
ENDMDL
MODEL 2
REMARK VINA RESULT:      -9.6      1.718      2.291
REMARK  7 active torsions:
REMARK  status: ('A' for Active; 'I' for Inactive)
REMARK    1  A    between atoms: O_2  and  C_3 
REMARK    2  A    between atoms: C_5  and  C_6 
REMARK    3  A    between atoms: C_8  and  N_9 
REMARK    4  A    between atoms: N_12  and  C_14 
REMARK    5  A    between atoms: C_14  and  C_15 
REMARK       I    between atoms: C_15  and  N_16 
REMARK    6  A    between atoms: N_16  and  N_17 
REMARK       I    between atoms: N_17  and  C_18 
REMARK    7  A    between atoms: C_18  and  C_19 
ROOT
HETATM    1  N   UNL     1      -4.711   2.836 -30.924  1.00  0.00    -0.357 N 
HETATM    2  C   UNL     1      -5.155   4.182 -30.529  1.00  0.00     0.152 C 
HETATM    3  C   UNL     1      -4.991   5.179 -31.701  1.00  0.00     0.255 C 
HETATM    4  N   UNL     1      -3.545   5.150 -32.195  1.00  0.00    -0.060 N 
HETATM    5  H   UNL     1      -2.951   5.342 -31.381  1.00  0.00     0.280 HD
HETATM    6  C   UNL     1      -3.170   3.732 -32.655  1.00  0.00     0.255 C 
HETATM    7  C   UNL     1      -3.335   2.770 -31.457  1.00  0.00     0.152 C 
ENDROOT
BRANCH   4   8
HETATM    8  C   UNL     1      -3.205   6.237 -33.215  1.00  0.00     0.338 C 
BRANCH   8   9
HETATM    9  C   UNL     1      -1.925   6.039 -34.029  1.00  0.00     0.262 C 
HETATM   10  N   UNL     1      -0.740   6.466 -33.472  1.00  0.00    -0.266 N 
HETATM   11  H   UNL     1       0.111   6.201 -33.970  1.00  0.00     0.190 HD
HETATM   12  O   UNL     1      -1.936   5.560 -35.162  1.00  0.00    -0.270 OA
BRANCH  10  13
HETATM   13  N   UNL     1      -0.610   6.866 -32.129  1.00  0.00    -0.263 N 
HETATM   14  C   UNL     1      -0.208   5.910 -31.204  1.00  0.00     0.270 C 
HETATM   15  O   UNL     1      -0.241   4.705 -31.436  1.00  0.00    -0.266 OA
HETATM   16  H   UNL     1      -0.313   7.832 -31.985  1.00  0.00     0.190 HD
BRANCH  14  17
HETATM   17  C   UNL     1       0.250   6.419 -29.886  1.00  0.00     0.033 A 
HETATM   18  C   UNL     1       0.606   5.491 -28.899  1.00  0.00     0.019 A 
HETATM   19  C   UNL     1       1.021   5.933 -27.641  1.00  0.00     0.025 A 
HETATM   20  C   UNL     1       1.062   7.299 -27.364  1.00  0.00     0.034 A 
HETATM   21 CL   UNL     1       1.558   7.845 -25.812  1.00  0.00    -0.084 Cl
HETATM   22  C   UNL     1       0.693   8.227 -28.338  1.00  0.00     0.025 A 
HETATM   23  C   UNL     1       0.286   7.791 -29.602  1.00  0.00     0.019 A 
ENDBRANCH  14  17
ENDBRANCH  10  13
ENDBRANCH   8   9
ENDBRANCH   4   8
BRANCH   1  24
HETATM   24  C   UNL     1      -5.602   1.927 -31.437  1.00  0.00     0.169 A 
HETATM   25  N   UNL     1      -5.223   0.917 -32.188  1.00  0.00    -0.223 NA
HETATM   26  C   UNL     1      -6.293   0.102 -32.527  1.00  0.00     0.076 A 
HETATM   27  C   UNL     1      -7.511   0.527 -32.041  1.00  0.00     0.085 A 
HETATM   28  S   UNL     1      -7.307   1.964 -31.138  1.00  0.00    -0.062 SA
BRANCH  26  29
HETATM   29  C   UNL     1      -6.095  -1.119 -33.302  1.00  0.00    -0.004 A 
HETATM   30  C   UNL     1      -4.867  -1.795 -33.322  1.00  0.00     0.050 A 
HETATM   31  C   UNL     1      -4.694  -2.958 -34.084  1.00  0.00     0.069 A 
HETATM   32  C   UNL     1      -5.760  -3.453 -34.833  1.00  0.00     0.037 A 
HETATM   33  C   UNL     1      -6.991  -2.794 -34.816  1.00  0.00     0.004 A 
HETATM   34  C   UNL     1      -7.157  -1.637 -34.054  1.00  0.00     0.014 A 
BRANCH  31  35
HETATM   35  O   UNL     1      -3.443  -3.505 -34.005  1.00  0.00    -0.356 OA
HETATM   36  C   UNL     1      -3.363  -4.883 -33.657  1.00  0.00     0.210 C 
ENDBRANCH  31  35
ENDBRANCH  26  29
ENDBRANCH   1  24
TORSDOF 7
ENDMDL
MODEL 3
REMARK VINA RESULT:      -9.6      1.586      2.279
REMARK  7 active torsions:
REMARK  status: ('A' for Active; 'I' for Inactive)
REMARK    1  A    between atoms: O_2  and  C_3 
REMARK    2  A    between atoms: C_5  and  C_6 
REMARK    3  A    between atoms: C_8  and  N_9 
REMARK    4  A    between atoms: N_12  and  C_14 
REMARK    5  A    between atoms: C_14  and  C_15 
REMARK       I    between atoms: C_15  and  N_16 
REMARK    6  A    between atoms: N_16  and  N_17 
REMARK       I    between atoms: N_17  and  C_18 
REMARK    7  A    between atoms: C_18  and  C_19 
ROOT
HETATM    1  N   UNL     1      -5.298   2.702 -32.226  1.00  0.00    -0.357 N 
HETATM    2  C   UNL     1      -6.066   3.927 -32.500  1.00  0.00     0.152 C 
HETATM    3  C   UNL     1      -5.316   4.829 -33.509  1.00  0.00     0.255 C 
HETATM    4  N   UNL     1      -3.907   5.114 -32.987  1.00  0.00    -0.060 N 
HETATM    5  H   UNL     1      -4.015   5.515 -32.049  1.00  0.00     0.280 HD
HETATM    6  C   UNL     1      -3.139   3.797 -32.788  1.00  0.00     0.255 C 
HETATM    7  C   UNL     1      -3.912   2.931 -31.768  1.00  0.00     0.152 C 
ENDROOT
BRANCH   4   8
HETATM    8  C   UNL     1      -3.135   6.159 -33.793  1.00  0.00     0.338 C 
BRANCH   8   9
HETATM    9  C   UNL     1      -1.729   5.772 -34.252  1.00  0.00     0.262 C 
HETATM   10  N   UNL     1      -0.666   6.187 -33.481  1.00  0.00    -0.266 N 
HETATM   11  H   UNL     1       0.246   5.803 -33.729  1.00  0.00     0.190 HD
HETATM   12  O   UNL     1      -1.528   5.149 -35.294  1.00  0.00    -0.270 OA
BRANCH  10  13
HETATM   13  N   UNL     1      -0.807   6.751 -32.199  1.00  0.00    -0.263 N 
HETATM   14  C   UNL     1      -0.397   5.992 -31.109  1.00  0.00     0.270 C 
HETATM   15  O   UNL     1      -0.196   4.784 -31.178  1.00  0.00    -0.266 OA
HETATM   16  H   UNL     1      -0.699   7.764 -32.150  1.00  0.00     0.190 HD
BRANCH  14  17
HETATM   17  C   UNL     1      -0.233   6.719 -29.825  1.00  0.00     0.033 A 
HETATM   18  C   UNL     1      -0.948   7.908 -29.635  1.00  0.00     0.019 A 
HETATM   19  C   UNL     1      -0.803   8.630 -28.447  1.00  0.00     0.025 A 
HETATM   20  C   UNL     1       0.069   8.172 -27.460  1.00  0.00     0.034 A 
HETATM   21 CL   UNL     1       0.259   9.065 -26.004  1.00  0.00    -0.084 Cl
HETATM   22  C   UNL     1       0.795   6.996 -27.650  1.00  0.00     0.025 A 
HETATM   23  C   UNL     1       0.647   6.266 -28.832  1.00  0.00     0.019 A 
ENDBRANCH  14  17
ENDBRANCH  10  13
ENDBRANCH   8   9
ENDBRANCH   4   8
BRANCH   1  24
HETATM   24  C   UNL     1      -5.513   1.562 -32.958  1.00  0.00     0.169 A 
HETATM   25  N   UNL     1      -4.832   0.456 -32.754  1.00  0.00    -0.223 NA
HETATM   26  C   UNL     1      -5.276  -0.576 -33.568  1.00  0.00     0.076 A 
HETATM   27  C   UNL     1      -6.297  -0.226 -34.427  1.00  0.00     0.085 A 
HETATM   28  S   UNL     1      -6.710   1.417 -34.200  1.00  0.00    -0.062 SA
BRANCH  26  29
HETATM   29  C   UNL     1      -4.709  -1.916 -33.464  1.00  0.00    -0.004 A 
HETATM   30  C   UNL     1      -5.146  -2.972 -34.275  1.00  0.00     0.050 A 
HETATM   31  C   UNL     1      -4.598  -4.255 -34.149  1.00  0.00     0.069 A 
HETATM   32  C   UNL     1      -3.602  -4.487 -33.202  1.00  0.00     0.037 A 
HETATM   33  C   UNL     1      -3.152  -3.443 -32.393  1.00  0.00     0.004 A 
HETATM   34  C   UNL     1      -3.701  -2.166 -32.525  1.00  0.00     0.014 A 
BRANCH  31  35
HETATM   35  O   UNL     1      -5.124  -5.183 -35.007  1.00  0.00    -0.356 OA
HETATM   36  C   UNL     1      -6.381  -4.873 -35.598  1.00  0.00     0.210 C 
ENDBRANCH  31  35
ENDBRANCH  26  29
ENDBRANCH   1  24
TORSDOF 7
ENDMDL
MODEL 4
REMARK VINA RESULT:      -9.5      3.687      9.220
REMARK  7 active torsions:
REMARK  status: ('A' for Active; 'I' for Inactive)
REMARK    1  A    between atoms: O_2  and  C_3 
REMARK    2  A    between atoms: C_5  and  C_6 
REMARK    3  A    between atoms: C_8  and  N_9 
REMARK    4  A    between atoms: N_12  and  C_14 
REMARK    5  A    between atoms: C_14  and  C_15 
REMARK       I    between atoms: C_15  and  N_16 
REMARK    6  A    between atoms: N_16  and  N_17 
REMARK       I    between atoms: N_17  and  C_18 
REMARK    7  A    between atoms: C_18  and  C_19 
ROOT
HETATM    1  N   UNL     1      -5.916   2.385 -30.179  1.00  0.00    -0.357 N 
HETATM    2  C   UNL     1      -6.095   0.939 -29.976  1.00  0.00     0.152 C 
HETATM    3  C   UNL     1      -6.991   0.337 -31.085  1.00  0.00     0.255 C 
HETATM    4  N   UNL     1      -8.315   1.099 -31.138  1.00  0.00    -0.060 N 
HETATM    5  H   UNL     1      -8.716   1.062 -30.195  1.00  0.00     0.280 HD
HETATM    6  C   UNL     1      -8.059   2.588 -31.421  1.00  0.00     0.255 C 
HETATM    7  C   UNL     1      -7.173   3.154 -30.288  1.00  0.00     0.152 C 
ENDROOT
BRANCH   4   8
HETATM    8  C   UNL     1      -9.367   0.472 -32.054  1.00  0.00     0.338 C 
BRANCH   8   9
HETATM    9  C   UNL     1      -9.783   1.286 -33.280  1.00  0.00     0.262 C 
HETATM   10  N   UNL     1      -9.134   1.032 -34.469  1.00  0.00    -0.266 N 
HETATM   11  H   UNL     1      -9.520   1.486 -35.297  1.00  0.00     0.190 HD
HETATM   12  O   UNL     1     -10.633   2.174 -33.220  1.00  0.00    -0.270 OA
BRANCH  10  13
HETATM   13  N   UNL     1      -8.278  -0.067 -34.668  1.00  0.00    -0.263 N 
HETATM   14  C   UNL     1      -6.910   0.147 -34.545  1.00  0.00     0.270 C 
HETATM   15  O   UNL     1      -6.408   1.267 -34.560  1.00  0.00    -0.266 OA
HETATM   16  H   UNL     1      -8.652  -0.973 -34.385  1.00  0.00     0.190 HD
BRANCH  14  17
HETATM   17  C   UNL     1      -6.062  -1.065 -34.418  1.00  0.00     0.033 A 
HETATM   18  C   UNL     1      -6.547  -2.276 -34.930  1.00  0.00     0.019 A 
HETATM   19  C   UNL     1      -5.786  -3.441 -34.809  1.00  0.00     0.025 A 
HETATM   20  C   UNL     1      -4.551  -3.399 -34.164  1.00  0.00     0.034 A 
HETATM   21 CL   UNL     1      -3.619  -4.834 -34.002  1.00  0.00    -0.084 Cl
HETATM   22  C   UNL     1      -4.069  -2.200 -33.639  1.00  0.00     0.025 A 
HETATM   23  C   UNL     1      -4.822  -1.029 -33.764  1.00  0.00     0.019 A 
ENDBRANCH  14  17
ENDBRANCH  10  13
ENDBRANCH   8   9
ENDBRANCH   4   8
BRANCH   1  24
HETATM   24  C   UNL     1      -4.849   2.865 -30.895  1.00  0.00     0.169 A 
HETATM   25  N   UNL     1      -4.546   4.144 -30.933  1.00  0.00    -0.223 NA
HETATM   26  C   UNL     1      -3.389   4.374 -31.664  1.00  0.00     0.076 A 
HETATM   27  C   UNL     1      -2.826   3.241 -32.213  1.00  0.00     0.085 A 
HETATM   28  S   UNL     1      -3.757   1.869 -31.796  1.00  0.00    -0.062 SA
BRANCH  26  29
HETATM   29  C   UNL     1      -2.826   5.715 -31.782  1.00  0.00    -0.004 A 
HETATM   30  C   UNL     1      -3.585   6.865 -31.525  1.00  0.00     0.050 A 
HETATM   31  C   UNL     1      -3.029   8.144 -31.658  1.00  0.00     0.069 A 
HETATM   32  C   UNL     1      -1.699   8.277 -32.053  1.00  0.00     0.037 A 
HETATM   33  C   UNL     1      -0.929   7.140 -32.305  1.00  0.00     0.004 A 
HETATM   34  C   UNL     1      -1.488   5.868 -32.168  1.00  0.00     0.014 A 
BRANCH  31  35
HETATM   35  O   UNL     1      -3.891   9.168 -31.375  1.00  0.00    -0.356 OA
HETATM   36  C   UNL     1      -5.182   8.809 -30.895  1.00  0.00     0.210 C 
ENDBRANCH  31  35
ENDBRANCH  26  29
ENDBRANCH   1  24
TORSDOF 7
ENDMDL
MODEL 5
REMARK VINA RESULT:      -9.1      3.631      8.753
REMARK  7 active torsions:
REMARK  status: ('A' for Active; 'I' for Inactive)
REMARK    1  A    between atoms: O_2  and  C_3 
REMARK    2  A    between atoms: C_5  and  C_6 
REMARK    3  A    between atoms: C_8  and  N_9 
REMARK    4  A    between atoms: N_12  and  C_14 
REMARK    5  A    between atoms: C_14  and  C_15 
REMARK       I    between atoms: C_15  and  N_16 
REMARK    6  A    between atoms: N_16  and  N_17 
REMARK       I    between atoms: N_17  and  C_18 
REMARK    7  A    between atoms: C_18  and  C_19 
ROOT
HETATM    1  N   UNL     1      -7.099   3.738 -30.069  1.00  0.00    -0.357 N 
HETATM    2  C   UNL     1      -6.585   2.360 -30.115  1.00  0.00     0.152 C 
HETATM    3  C   UNL     1      -7.207   1.582 -31.299  1.00  0.00     0.255 C 
HETATM    4  N   UNL     1      -8.732   1.645 -31.203  1.00  0.00    -0.060 N 
HETATM    5  H   UNL     1      -8.985   1.290 -30.276  1.00  0.00     0.280 HD
HETATM    6  C   UNL     1      -9.204   3.108 -31.230  1.00  0.00     0.255 C 
HETATM    7  C   UNL     1      -8.572   3.847 -30.029  1.00  0.00     0.152 C 
ENDROOT
BRANCH   4   8
HETATM    8  C   UNL     1      -9.464   0.746 -32.200  1.00  0.00     0.338 C 
BRANCH   8   9
HETATM    9  C   UNL     1      -9.900   1.391 -33.516  1.00  0.00     0.262 C 
HETATM   10  N   UNL     1      -9.223   1.033 -34.661  1.00  0.00    -0.266 N 
HETATM   11  H   UNL     1      -9.618   1.368 -35.540  1.00  0.00     0.190 HD
HETATM   12  O   UNL     1     -10.792   2.237 -33.567  1.00  0.00    -0.270 OA
BRANCH  10  13
HETATM   13  N   UNL     1      -8.313  -0.039 -34.724  1.00  0.00    -0.263 N 
HETATM   14  C   UNL     1      -6.957   0.258 -34.661  1.00  0.00     0.270 C 
HETATM   15  O   UNL     1      -6.515   1.388 -34.842  1.00  0.00    -0.266 OA
HETATM   16  H   UNL     1      -8.635  -0.914 -34.309  1.00  0.00     0.190 HD
BRANCH  14  17
HETATM   17  C   UNL     1      -6.045  -0.881 -34.384  1.00  0.00     0.033 A 
HETATM   18  C   UNL     1      -6.347  -2.129 -34.943  1.00  0.00     0.019 A 
HETATM   19  C   UNL     1      -5.522  -3.228 -34.687  1.00  0.00     0.025 A 
HETATM   20  C   UNL     1      -4.410  -3.082 -33.860  1.00  0.00     0.034 A 
HETATM   21 CL   UNL     1      -3.403  -4.435 -33.533  1.00  0.00    -0.084 Cl
HETATM   22  C   UNL     1      -4.113  -1.845 -33.288  1.00  0.00     0.025 A 
HETATM   23  C   UNL     1      -4.928  -0.740 -33.548  1.00  0.00     0.019 A 
ENDBRANCH  14  17
ENDBRANCH  10  13
ENDBRANCH   8   9
ENDBRANCH   4   8
BRANCH   1  24
HETATM   24  C   UNL     1      -6.435   4.755 -30.706  1.00  0.00     0.169 A 
HETATM   25  N   UNL     1      -5.132   4.744 -30.881  1.00  0.00    -0.223 NA
HETATM   26  C   UNL     1      -4.703   5.844 -31.608  1.00  0.00     0.076 A 
HETATM   27  C   UNL     1      -5.708   6.720 -31.963  1.00  0.00     0.085 A 
HETATM   28  S   UNL     1      -7.210   6.146 -31.384  1.00  0.00    -0.062 SA
BRANCH  26  29
HETATM   29  C   UNL     1      -3.301   6.003 -31.980  1.00  0.00    -0.004 A 
HETATM   30  C   UNL     1      -2.287   5.228 -31.401  1.00  0.00     0.050 A 
HETATM   31  C   UNL     1      -0.945   5.406 -31.763  1.00  0.00     0.069 A 
HETATM   32  C   UNL     1      -0.612   6.369 -32.714  1.00  0.00     0.037 A 
HETATM   33  C   UNL     1      -1.613   7.143 -33.305  1.00  0.00     0.004 A 
HETATM   34  C   UNL     1      -2.949   6.959 -32.942  1.00  0.00     0.014 A 
BRANCH  31  35
HETATM   35  O   UNL     1      -0.069   4.580 -31.114  1.00  0.00    -0.356 OA
HETATM   36  C   UNL     1       0.435   5.031 -29.861  1.00  0.00     0.210 C 
ENDBRANCH  31  35
ENDBRANCH  26  29
ENDBRANCH   1  24
TORSDOF 7
ENDMDL
MODEL 6
REMARK VINA RESULT:      -9.0      3.761      9.231
REMARK  7 active torsions:
REMARK  status: ('A' for Active; 'I' for Inactive)
REMARK    1  A    between atoms: O_2  and  C_3 
REMARK    2  A    between atoms: C_5  and  C_6 
REMARK    3  A    between atoms: C_8  and  N_9 
REMARK    4  A    between atoms: N_12  and  C_14 
REMARK    5  A    between atoms: C_14  and  C_15 
REMARK       I    between atoms: C_15  and  N_16 
REMARK    6  A    between atoms: N_16  and  N_17 
REMARK       I    between atoms: N_17  and  C_18 
REMARK    7  A    between atoms: C_18  and  C_19 
ROOT
HETATM    1  N   UNL     1      -5.384   5.643 -33.321  1.00  0.00    -0.357 N 
HETATM    2  C   UNL     1      -6.217   6.463 -32.427  1.00  0.00     0.152 C 
HETATM    3  C   UNL     1      -6.598   5.670 -31.155  1.00  0.00     0.255 C 
HETATM    4  N   UNL     1      -7.271   4.356 -31.557  1.00  0.00    -0.060 N 
HETATM    5  H   UNL     1      -8.060   4.602 -32.163  1.00  0.00     0.280 HD
HETATM    6  C   UNL     1      -6.321   3.521 -32.431  1.00  0.00     0.255 C 
HETATM    7  C   UNL     1      -5.974   4.340 -33.694  1.00  0.00     0.152 C 
ENDROOT
BRANCH   4   8
HETATM    8  C   UNL     1      -7.877   3.576 -30.390  1.00  0.00     0.338 C 
BRANCH   8   9
HETATM    9  C   UNL     1      -9.371   3.257 -30.480  1.00  0.00     0.262 C 
HETATM   10  N   UNL     1      -9.737   2.064 -31.063  1.00  0.00    -0.266 N 
HETATM   11  H   UNL     1     -10.723   1.812 -30.988  1.00  0.00     0.190 HD
HETATM   12  O   UNL     1     -10.233   4.043 -30.091  1.00  0.00    -0.270 OA
BRANCH  10  13
HETATM   13  N   UNL     1      -8.825   1.039 -31.379  1.00  0.00    -0.263 N 
HETATM   14  C   UNL     1      -8.846   0.530 -32.672  1.00  0.00     0.270 C 
HETATM   15  O   UNL     1      -9.782   0.714 -33.444  1.00  0.00    -0.266 OA
HETATM   16  H   UNL     1      -7.931   1.082 -30.891  1.00  0.00     0.190 HD
BRANCH  14  17
HETATM   17  C   UNL     1      -7.674  -0.286 -33.078  1.00  0.00     0.033 A 
HETATM   18  C   UNL     1      -6.549  -0.299 -32.243  1.00  0.00     0.019 A 
HETATM   19  C   UNL     1      -5.420  -1.039 -32.604  1.00  0.00     0.025 A 
HETATM   20  C   UNL     1      -5.409  -1.749 -33.803  1.00  0.00     0.034 A 
HETATM   21 CL   UNL     1      -4.016  -2.648 -34.255  1.00  0.00    -0.084 Cl
HETATM   22  C   UNL     1      -6.521  -1.727 -34.645  1.00  0.00     0.025 A 
HETATM   23  C   UNL     1      -7.657  -0.997 -34.286  1.00  0.00     0.019 A 
ENDBRANCH  14  17
ENDBRANCH  10  13
ENDBRANCH   8   9
ENDBRANCH   4   8
BRANCH   1  24
HETATM   24  C   UNL     1      -4.016   5.686 -33.239  1.00  0.00     0.169 A 
HETATM   25  N   UNL     1      -3.382   5.771 -32.090  1.00  0.00    -0.223 NA
HETATM   26  C   UNL     1      -2.006   5.730 -32.260  1.00  0.00     0.076 A 
HETATM   27  C   UNL     1      -1.595   5.641 -33.573  1.00  0.00     0.085 A 
HETATM   28  S   UNL     1      -2.957   5.597 -34.606  1.00  0.00    -0.062 SA
BRANCH  26  29
HETATM   29  C   UNL     1      -1.104   5.741 -31.113  1.00  0.00    -0.004 A 
HETATM   30  C   UNL     1      -1.407   6.439 -29.936  1.00  0.00     0.050 A 
HETATM   31  C   UNL     1      -0.521   6.449 -28.851  1.00  0.00     0.069 A 
HETATM   32  C   UNL     1       0.683   5.753 -28.942  1.00  0.00     0.037 A 
HETATM   33  C   UNL     1       0.995   5.047 -30.106  1.00  0.00     0.004 A 
HETATM   34  C   UNL     1       0.106   5.040 -31.182  1.00  0.00     0.014 A 
BRANCH  31  35
HETATM   35  O   UNL     1      -0.953   7.172 -27.773  1.00  0.00    -0.356 OA
HETATM   36  C   UNL     1      -0.840   6.554 -26.496  1.00  0.00     0.210 C 
ENDBRANCH  31  35
ENDBRANCH  26  29
ENDBRANCH   1  24
TORSDOF 7
ENDMDL
MODEL 7
REMARK VINA RESULT:      -9.0      3.803     10.082
REMARK  7 active torsions:
REMARK  status: ('A' for Active; 'I' for Inactive)
REMARK    1  A    between atoms: O_2  and  C_3 
REMARK    2  A    between atoms: C_5  and  C_6 
REMARK    3  A    between atoms: C_8  and  N_9 
REMARK    4  A    between atoms: N_12  and  C_14 
REMARK    5  A    between atoms: C_14  and  C_15 
REMARK       I    between atoms: C_15  and  N_16 
REMARK    6  A    between atoms: N_16  and  N_17 
REMARK       I    between atoms: N_17  and  C_18 
REMARK    7  A    between atoms: C_18  and  C_19 
ROOT
HETATM    1  N   UNL     1      -2.462   4.794 -32.717  1.00  0.00    -0.357 N 
HETATM    2  C   UNL     1      -3.336   4.850 -33.899  1.00  0.00     0.152 C 
HETATM    3  C   UNL     1      -4.825   4.831 -33.480  1.00  0.00     0.255 C 
HETATM    4  N   UNL     1      -5.090   3.608 -32.601  1.00  0.00    -0.060 N 
HETATM    5  H   UNL     1      -4.784   2.788 -33.135  1.00  0.00     0.280 HD
HETATM    6  C   UNL     1      -4.194   3.649 -31.353  1.00  0.00     0.255 C 
HETATM    7  C   UNL     1      -2.719   3.655 -31.812  1.00  0.00     0.152 C 
ENDROOT
BRANCH   4   8
HETATM    8  C   UNL     1      -6.567   3.365 -32.289  1.00  0.00     0.338 C 
BRANCH   8   9
HETATM    9  C   UNL     1      -7.518   3.282 -33.485  1.00  0.00     0.262 C 
HETATM   10  N   UNL     1      -7.504   2.128 -34.237  1.00  0.00    -0.266 N 
HETATM   11  H   UNL     1      -8.237   2.041 -34.940  1.00  0.00     0.190 HD
HETATM   12  O   UNL     1      -8.245   4.220 -33.810  1.00  0.00    -0.270 OA
BRANCH  10  13
HETATM   13  N   UNL     1      -6.835   0.953 -33.845  1.00  0.00    -0.263 N 
HETATM   14  C   UNL     1      -7.042  -0.193 -34.604  1.00  0.00     0.270 C 
HETATM   15  O   UNL     1      -7.972  -0.308 -35.396  1.00  0.00    -0.266 OA
HETATM   16  H   UNL     1      -5.918   1.090 -33.419  1.00  0.00     0.190 HD
BRANCH  14  17
HETATM   17  C   UNL     1      -6.083  -1.307 -34.391  1.00  0.00     0.033 A 
HETATM   18  C   UNL     1      -6.327  -2.529 -35.030  1.00  0.00     0.019 A 
HETATM   19  C   UNL     1      -5.457  -3.606 -34.836  1.00  0.00     0.025 A 
HETATM   20  C   UNL     1      -4.358  -3.465 -33.991  1.00  0.00     0.034 A 
HETATM   21 CL   UNL     1      -3.295  -4.792 -33.739  1.00  0.00    -0.084 Cl
HETATM   22  C   UNL     1      -4.119  -2.255 -33.339  1.00  0.00     0.025 A 
HETATM   23  C   UNL     1      -4.980  -1.172 -33.537  1.00  0.00     0.019 A 
ENDBRANCH  14  17
ENDBRANCH  10  13
ENDBRANCH   8   9
ENDBRANCH   4   8
BRANCH   1  24
HETATM   24  C   UNL     1      -2.007   5.946 -32.127  1.00  0.00     0.169 A 
HETATM   25  N   UNL     1      -1.616   5.986 -30.872  1.00  0.00    -0.223 NA
HETATM   26  C   UNL     1      -1.137   7.241 -30.525  1.00  0.00     0.076 A 
HETATM   27  C   UNL     1      -1.197   8.175 -31.538  1.00  0.00     0.085 A 
HETATM   28  S   UNL     1      -1.855   7.462 -32.946  1.00  0.00    -0.062 SA
BRANCH  26  29
HETATM   29  C   UNL     1      -0.585   7.498 -29.199  1.00  0.00    -0.004 A 
HETATM   30  C   UNL     1      -1.377   7.453 -28.044  1.00  0.00     0.050 A 
HETATM   31  C   UNL     1      -0.830   7.717 -26.781  1.00  0.00     0.069 A 
HETATM   32  C   UNL     1       0.523   8.028 -26.670  1.00  0.00     0.037 A 
HETATM   33  C   UNL     1       1.326   8.069 -27.812  1.00  0.00     0.004 A 
HETATM   34  C   UNL     1       0.776   7.803 -29.067  1.00  0.00     0.014 A 
BRANCH  31  35
HETATM   35  O   UNL     1      -1.725   7.637 -25.749  1.00  0.00    -0.356 OA
HETATM   36  C   UNL     1      -3.010   7.105 -26.051  1.00  0.00     0.210 C 
ENDBRANCH  31  35
ENDBRANCH  26  29
ENDBRANCH   1  24
TORSDOF 7
ENDMDL
MODEL 8
REMARK VINA RESULT:      -8.7      1.821      2.088
REMARK  7 active torsions:
REMARK  status: ('A' for Active; 'I' for Inactive)
REMARK    1  A    between atoms: O_2  and  C_3 
REMARK    2  A    between atoms: C_5  and  C_6 
REMARK    3  A    between atoms: C_8  and  N_9 
REMARK    4  A    between atoms: N_12  and  C_14 
REMARK    5  A    between atoms: C_14  and  C_15 
REMARK       I    between atoms: C_15  and  N_16 
REMARK    6  A    between atoms: N_16  and  N_17 
REMARK       I    between atoms: N_17  and  C_18 
REMARK    7  A    between atoms: C_18  and  C_19 
ROOT
HETATM    1  N   UNL     1      -8.035   2.578 -30.724  1.00  0.00    -0.357 N 
HETATM    2  C   UNL     1      -8.795   3.837 -30.754  1.00  0.00     0.152 C 
HETATM    3  C   UNL     1      -7.965   4.963 -31.417  1.00  0.00     0.255 C 
HETATM    4  N   UNL     1      -6.622   5.095 -30.698  1.00  0.00    -0.060 N 
HETATM    5  H   UNL     1      -6.831   5.243 -29.705  1.00  0.00     0.280 HD
HETATM    6  C   UNL     1      -5.852   3.765 -30.764  1.00  0.00     0.255 C 
HETATM    7  C   UNL     1      -6.707   2.672 -30.084  1.00  0.00     0.152 C 
ENDROOT
BRANCH   4   8
HETATM    8  C   UNL     1      -5.794   6.306 -31.127  1.00  0.00     0.338 C 
BRANCH   8   9
HETATM    9  C   UNL     1      -5.033   6.185 -32.448  1.00  0.00     0.262 C 
HETATM   10  N   UNL     1      -3.660   6.293 -32.410  1.00  0.00    -0.266 N 
HETATM   11  H   UNL     1      -3.168   6.073 -33.276  1.00  0.00     0.190 HD
HETATM   12  O   UNL     1      -5.609   6.041 -33.526  1.00  0.00    -0.270 OA
BRANCH  10  13
HETATM   13  N   UNL     1      -2.912   6.288 -31.217  1.00  0.00    -0.263 N 
HETATM   14  C   UNL     1      -1.539   6.094 -31.315  1.00  0.00     0.270 C 
HETATM   15  O   UNL     1      -1.001   5.649 -32.323  1.00  0.00    -0.266 OA
HETATM   16  H   UNL     1      -3.263   6.897 -30.477  1.00  0.00     0.190 HD
BRANCH  14  17
HETATM   17  C   UNL     1      -0.739   6.432 -30.110  1.00  0.00     0.033 A 
HETATM   18  C   UNL     1      -0.747   7.756 -29.653  1.00  0.00     0.019 A 
HETATM   19  C   UNL     1       0.010   8.114 -28.535  1.00  0.00     0.025 A 
HETATM   20  C   UNL     1       0.788   7.155 -27.887  1.00  0.00     0.034 A 
HETATM   21 CL   UNL     1       1.731   7.597 -26.521  1.00  0.00    -0.084 Cl
HETATM   22  C   UNL     1       0.812   5.838 -28.348  1.00  0.00     0.025 A 
HETATM   23  C   UNL     1       0.049   5.472 -29.460  1.00  0.00     0.019 A 
ENDBRANCH  14  17
ENDBRANCH  10  13
ENDBRANCH   8   9
ENDBRANCH   4   8
BRANCH   1  24
HETATM   24  C   UNL     1      -8.152   1.665 -31.741  1.00  0.00     0.169 A 
HETATM   25  N   UNL     1      -7.183   0.833 -32.055  1.00  0.00    -0.223 NA
HETATM   26  C   UNL     1      -7.563  -0.037 -33.067  1.00  0.00     0.076 A 
HETATM   27  C   UNL     1      -8.840   0.168 -33.546  1.00  0.00     0.085 A 
HETATM   28  S   UNL     1      -9.575   1.462 -32.705  1.00  0.00    -0.062 SA
BRANCH  26  29
HETATM   29  C   UNL     1      -6.668  -1.092 -33.530  1.00  0.00    -0.004 A 
HETATM   30  C   UNL     1      -5.346  -1.196 -33.078  1.00  0.00     0.050 A 
HETATM   31  C   UNL     1      -4.499  -2.210 -33.545  1.00  0.00     0.069 A 
HETATM   32  C   UNL     1      -4.978  -3.130 -34.475  1.00  0.00     0.037 A 
HETATM   33  C   UNL     1      -6.295  -3.043 -34.929  1.00  0.00     0.004 A 
HETATM   34  C   UNL     1      -7.135  -2.033 -34.457  1.00  0.00     0.014 A 
BRANCH  31  35
HETATM   35  O   UNL     1      -3.238  -2.183 -33.015  1.00  0.00    -0.356 OA
HETATM   36  C   UNL     1      -3.002  -3.002 -31.874  1.00  0.00     0.210 C 
ENDBRANCH  31  35
ENDBRANCH  26  29
ENDBRANCH   1  24
TORSDOF 7
ENDMDL
MODEL 9
REMARK VINA RESULT:      -8.7      3.875     10.052
REMARK  7 active torsions:
REMARK  status: ('A' for Active; 'I' for Inactive)
REMARK    1  A    between atoms: O_2  and  C_3 
REMARK    2  A    between atoms: C_5  and  C_6 
REMARK    3  A    between atoms: C_8  and  N_9 
REMARK    4  A    between atoms: N_12  and  C_14 
REMARK    5  A    between atoms: C_14  and  C_15 
REMARK       I    between atoms: C_15  and  N_16 
REMARK    6  A    between atoms: N_16  and  N_17 
REMARK       I    between atoms: N_17  and  C_18 
REMARK    7  A    between atoms: C_18  and  C_19 
ROOT
HETATM    1  N   UNL     1      -4.102   5.399 -33.120  1.00  0.00    -0.357 N 
HETATM    2  C   UNL     1      -5.410   5.991 -32.799  1.00  0.00     0.152 C 
HETATM    3  C   UNL     1      -5.900   5.516 -31.410  1.00  0.00     0.255 C 
HETATM    4  N   UNL     1      -5.913   3.987 -31.372  1.00  0.00    -0.060 N 
HETATM    5  H   UNL     1      -6.490   3.677 -32.161  1.00  0.00     0.280 HD
HETATM    6  C   UNL     1      -4.504   3.438 -31.648  1.00  0.00     0.255 C 
HETATM    7  C   UNL     1      -4.056   3.924 -33.045  1.00  0.00     0.152 C 
ENDROOT
BRANCH   4   8
HETATM    8  C   UNL     1      -6.570   3.393 -30.126  1.00  0.00     0.338 C 
BRANCH   8   9
HETATM    9  C   UNL     1      -8.100   3.376 -30.097  1.00  0.00     0.262 C 
HETATM   10  N   UNL     1      -8.740   2.325 -30.714  1.00  0.00    -0.266 N 
HETATM   11  H   UNL     1      -9.747   2.262 -30.565  1.00  0.00     0.190 HD
HETATM   12  O   UNL     1      -8.756   4.283 -29.587  1.00  0.00    -0.270 OA
BRANCH  10  13
HETATM   13  N   UNL     1      -8.078   1.170 -31.171  1.00  0.00    -0.263 N 
HETATM   14  C   UNL     1      -8.071   0.926 -32.539  1.00  0.00     0.270 C 
HETATM   15  O   UNL     1      -8.834   1.487 -33.319  1.00  0.00    -0.266 OA
HETATM   16  H   UNL     1      -7.264   0.885 -30.626  1.00  0.00     0.190 HD
BRANCH  14  17
HETATM   17  C   UNL     1      -7.095  -0.084 -33.024  1.00  0.00     0.033 A 
HETATM   18  C   UNL     1      -7.477  -0.932 -34.071  1.00  0.00     0.019 A 
HETATM   19  C   UNL     1      -6.592  -1.907 -34.538  1.00  0.00     0.025 A 
HETATM   20  C   UNL     1      -5.337  -2.046 -33.948  1.00  0.00     0.034 A 
HETATM   21 CL   UNL     1      -4.254  -3.255 -34.511  1.00  0.00    -0.084 Cl
HETATM   22  C   UNL     1      -4.958  -1.215 -32.894  1.00  0.00     0.025 A 
HETATM   23  C   UNL     1      -5.835  -0.231 -32.428  1.00  0.00     0.019 A 
ENDBRANCH  14  17
ENDBRANCH  10  13
ENDBRANCH   8   9
ENDBRANCH   4   8
BRANCH   1  24
HETATM   24  C   UNL     1      -2.939   6.057 -32.809  1.00  0.00     0.169 A 
HETATM   25  N   UNL     1      -2.693   6.518 -31.603  1.00  0.00    -0.223 NA
HETATM   26  C   UNL     1      -1.428   7.082 -31.519  1.00  0.00     0.076 A 
HETATM   27  C   UNL     1      -0.718   7.070 -32.701  1.00  0.00     0.085 A 
HETATM   28  S   UNL     1      -1.648   6.330 -33.930  1.00  0.00    -0.062 SA
BRANCH  26  29
HETATM   29  C   UNL     1      -0.914   7.599 -30.255  1.00  0.00    -0.004 A 
HETATM   30  C   UNL     1      -1.704   8.373 -29.393  1.00  0.00     0.050 A 
HETATM   31  C   UNL     1      -1.187   8.870 -28.190  1.00  0.00     0.069 A 
HETATM   32  C   UNL     1       0.134   8.591 -27.842  1.00  0.00     0.037 A 
HETATM   33  C   UNL     1       0.929   7.815 -28.687  1.00  0.00     0.004 A 
HETATM   34  C   UNL     1       0.407   7.321 -29.884  1.00  0.00     0.014 A 
BRANCH  31  35
HETATM   35  O   UNL     1      -2.074   9.608 -27.455  1.00  0.00    -0.356 OA
HETATM   36  C   UNL     1      -2.251  10.969 -27.836  1.00  0.00     0.210 C 
ENDBRANCH  31  35
ENDBRANCH  26  29
ENDBRANCH   1  24
TORSDOF 7
ENDMDL
MODEL 10
REMARK VINA RESULT:      -8.6      3.496      4.979
REMARK  7 active torsions:
REMARK  status: ('A' for Active; 'I' for Inactive)
REMARK    1  A    between atoms: O_2  and  C_3 
REMARK    2  A    between atoms: C_5  and  C_6 
REMARK    3  A    between atoms: C_8  and  N_9 
REMARK    4  A    between atoms: N_12  and  C_14 
REMARK    5  A    between atoms: C_14  and  C_15 
REMARK       I    between atoms: C_15  and  N_16 
REMARK    6  A    between atoms: N_16  and  N_17 
REMARK       I    between atoms: N_17  and  C_18 
REMARK    7  A    between atoms: C_18  and  C_19 
ROOT
HETATM    1  N   UNL     1      -6.236   2.706 -31.183  1.00  0.00    -0.357 N 
HETATM    2  C   UNL     1      -6.414   4.048 -30.606  1.00  0.00     0.152 C 
HETATM    3  C   UNL     1      -6.202   5.139 -31.683  1.00  0.00     0.255 C 
HETATM    4  N   UNL     1      -4.833   4.949 -32.337  1.00  0.00    -0.060 N 
HETATM    5  H   UNL     1      -4.141   4.952 -31.580  1.00  0.00     0.280 HD
HETATM    6  C   UNL     1      -4.741   3.555 -32.977  1.00  0.00     0.255 C 
HETATM    7  C   UNL     1      -4.946   2.495 -31.872  1.00  0.00     0.152 C 
ENDROOT
BRANCH   4   8
HETATM    8  C   UNL     1      -4.419   6.084 -33.274  1.00  0.00     0.338 C 
BRANCH   8   9
HETATM    9  C   UNL     1      -3.295   5.781 -34.265  1.00  0.00     0.262 C 
HETATM   10  N   UNL     1      -2.010   6.119 -33.900  1.00  0.00    -0.266 N 
HETATM   11  H   UNL     1      -1.267   5.785 -34.513  1.00  0.00     0.190 HD
HETATM   12  O   UNL     1      -3.512   5.294 -35.374  1.00  0.00    -0.270 OA
BRANCH  10  13
HETATM   13  N   UNL     1      -1.651   6.520 -32.600  1.00  0.00    -0.263 N 
HETATM   14  C   UNL     1      -1.247   5.535 -31.707  1.00  0.00     0.270 C 
HETATM   15  O   UNL     1      -1.460   4.341 -31.893  1.00  0.00    -0.266 OA
HETATM   16  H   UNL     1      -1.221   7.443 -32.528  1.00  0.00     0.190 HD
BRANCH  14  17
HETATM   17  C   UNL     1      -0.556   6.002 -30.478  1.00  0.00     0.033 A 
HETATM   18  C   UNL     1      -0.604   7.365 -30.162  1.00  0.00     0.019 A 
HETATM   19  C   UNL     1       0.053   7.844 -29.026  1.00  0.00     0.025 A 
HETATM   20  C   UNL     1       0.770   6.964 -28.217  1.00  0.00     0.034 A 
HETATM   21 CL   UNL     1       1.590   7.552 -26.827  1.00  0.00    -0.084 Cl
HETATM   22  C   UNL     1       0.835   5.607 -28.536  1.00  0.00     0.025 A 
HETATM   23  C   UNL     1       0.172   5.121 -29.666  1.00  0.00     0.019 A 
ENDBRANCH  14  17
ENDBRANCH  10  13
ENDBRANCH   8   9
ENDBRANCH   4   8
BRANCH   1  24
HETATM   24  C   UNL     1      -7.308   2.010 -31.681  1.00  0.00     0.169 A 
HETATM   25  N   UNL     1      -8.240   2.581 -32.413  1.00  0.00    -0.223 NA
HETATM   26  C   UNL     1      -9.179   1.660 -32.854  1.00  0.00     0.076 A 
HETATM   27  C   UNL     1      -8.963   0.370 -32.419  1.00  0.00     0.085 A 
HETATM   28  S   UNL     1      -7.555   0.312 -31.451  1.00  0.00    -0.062 SA
BRANCH  26  29
HETATM   29  C   UNL     1     -10.269   2.060 -33.739  1.00  0.00    -0.004 A 
HETATM   30  C   UNL     1     -11.416   1.272 -33.907  1.00  0.00     0.050 A 
HETATM   31  C   UNL     1     -12.444   1.668 -34.772  1.00  0.00     0.069 A 
HETATM   32  C   UNL     1     -12.326   2.863 -35.478  1.00  0.00     0.037 A 
HETATM   33  C   UNL     1     -11.193   3.661 -35.315  1.00  0.00     0.004 A 
HETATM   34  C   UNL     1     -10.172   3.263 -34.449  1.00  0.00     0.014 A 
BRANCH  31  35
HETATM   35  O   UNL     1     -13.499   0.798 -34.833  1.00  0.00    -0.356 OA
HETATM   36  C   UNL     1     -13.620  -0.143 -33.771  1.00  0.00     0.210 C 
ENDBRANCH  31  35
ENDBRANCH  26  29
ENDBRANCH   1  24
TORSDOF 7
ENDMDL
