MODEL 1
REMARK VINA RESULT:     -10.1      0.000      0.000
REMARK  4 active torsions:
REMARK  status: ('A' for Active; 'I' for Inactive)
REMARK    1  A    between atoms: C_2  and  N_3 
REMARK       I    between atoms: N_3  and  C_4 
REMARK       I    between atoms: C_4  and  N_5 
REMARK    2  A    between atoms: N_5  and  C_6 
REMARK    3  A    between atoms: C_17  and  C_18 
REMARK    4  A    between atoms: C_19  and  O_20 
ROOT
HETATM    1  C   UNL     1      -2.556   5.525 -31.650  1.00  0.00     0.120 C 
HETATM    2  C   UNL     1      -3.547   4.344 -31.583  1.00  0.00     0.202 C 
HETATM    3  N   UNL     1      -4.320   4.443 -32.808  1.00  0.00    -0.332 N 
HETATM    4  C   UNL     1      -5.120   3.459 -33.321  1.00  0.00     0.257 C 
HETATM    5  O   UNL     1      -5.675   3.559 -34.411  1.00  0.00    -0.267 OA
HETATM    6  C   UNL     1      -5.308   2.224 -32.523  1.00  0.00     0.059 A 
HETATM    7  C   UNL     1      -5.521   2.216 -31.134  1.00  0.00     0.050 A 
HETATM    8  N   UNL     1      -5.393   3.332 -30.279  1.00  0.00    -0.324 N 
HETATM    9  C   UNL     1      -4.530   4.398 -30.414  1.00  0.00     0.247 C 
HETATM   10  O   UNL     1      -4.503   5.263 -29.540  1.00  0.00    -0.271 OA
HETATM   11  C   UNL     1      -5.401   1.030 -33.258  1.00  0.00     0.031 A 
HETATM   12  C   UNL     1      -5.702  -0.190 -32.637  1.00  0.00    -0.022 A 
HETATM   13  C   UNL     1      -5.975  -0.173 -31.263  1.00  0.00     0.014 A 
HETATM   14  C   UNL     1      -5.900   1.014 -30.525  1.00  0.00     0.031 A 
HETATM   15  C   UNL     1      -4.219   5.759 -33.396  1.00  0.00     0.129 C 
HETATM   16  C   UNL     1      -2.850   6.251 -32.975  1.00  0.00     0.048 C 
HETATM   17  H   UNL     1      -5.831   3.294 -29.367  1.00  0.00     0.169 HD
ENDROOT
BRANCH   1  18
HETATM   18  N   UNL     1      -1.142   5.136 -31.559  1.00  0.00    -0.336 N 
HETATM   19  C   UNL     1      -0.216   5.323 -30.582  1.00  0.00     0.316 C 
HETATM   20  N   UNL     1      -0.646   5.947 -29.451  1.00  0.00    -0.339 N 
HETATM   21  O   UNL     1       0.942   4.983 -30.790  1.00  0.00    -0.247 OA
HETATM   22  H   UNL     1      -1.617   5.831 -29.213  1.00  0.00     0.164 HD
HETATM   23  H   UNL     1      -0.736   4.685 -32.371  1.00  0.00     0.164 HD
BRANCH  20  24
HETATM   24  C   UNL     1       0.225   6.350 -28.353  1.00  0.00     0.078 C 
HETATM   25  C   UNL     1      -0.452   6.210 -26.990  1.00  0.00     0.032 C 
HETATM   26  C   UNL     1       0.805   7.745 -28.555  1.00  0.00     0.032 C 
ENDBRANCH  20  24
ENDBRANCH   1  18
BRANCH  12  27
HETATM   27  C   UNL     1      -5.732  -1.441 -33.421  1.00  0.00     0.009 A 
HETATM   28  C   UNL     1      -6.854  -1.816 -34.199  1.00  0.00     0.079 A 
HETATM   29  C   UNL     1      -6.846  -3.033 -34.893  1.00  0.00     0.039 A 
HETATM   30  C   UNL     1      -5.738  -3.882 -34.825  1.00  0.00     0.026 A 
HETATM   31  C   UNL     1      -4.633  -3.516 -34.066  1.00  0.00     0.035 A 
HETATM   32 CL   UNL     1      -3.272  -4.564 -33.981  1.00  0.00    -0.084 Cl
HETATM   33  C   UNL     1      -4.624  -2.310 -33.371  1.00  0.00     0.039 A 
BRANCH  28  34
HETATM   34  O   UNL     1      -7.914  -0.943 -34.195  1.00  0.00    -0.355 OA
HETATM   35  C   UNL     1      -8.015  -0.015 -35.267  1.00  0.00     0.210 C 
ENDBRANCH  28  34
ENDBRANCH  12  27
TORSDOF 4
ENDMDL
MODEL 2
REMARK VINA RESULT:      -9.8      1.827      2.471
REMARK  4 active torsions:
REMARK  status: ('A' for Active; 'I' for Inactive)
REMARK    1  A    between atoms: C_2  and  N_3 
REMARK       I    between atoms: N_3  and  C_4 
REMARK       I    between atoms: C_4  and  N_5 
REMARK    2  A    between atoms: N_5  and  C_6 
REMARK    3  A    between atoms: C_17  and  C_18 
REMARK    4  A    between atoms: C_19  and  O_20 
ROOT
HETATM    1  C   UNL     1      -1.163   6.585 -31.430  1.00  0.00     0.120 C 
HETATM    2  C   UNL     1      -2.553   5.938 -31.615  1.00  0.00     0.202 C 
HETATM    3  N   UNL     1      -2.848   6.102 -33.027  1.00  0.00    -0.332 N 
HETATM    4  C   UNL     1      -3.834   5.444 -33.712  1.00  0.00     0.257 C 
HETATM    5  O   UNL     1      -3.978   5.546 -34.926  1.00  0.00    -0.267 OA
HETATM    6  C   UNL     1      -4.751   4.568 -32.944  1.00  0.00     0.059 A 
HETATM    7  C   UNL     1      -5.304   4.915 -31.700  1.00  0.00     0.050 A 
HETATM    8  N   UNL     1      -4.927   6.026 -30.917  1.00  0.00    -0.324 N 
HETATM    9  C   UNL     1      -3.681   6.607 -30.830  1.00  0.00     0.247 C 
HETATM   10  O   UNL     1      -3.505   7.540 -30.046  1.00  0.00    -0.271 OA
HETATM   11  C   UNL     1      -5.165   3.394 -33.598  1.00  0.00     0.031 A 
HETATM   12  C   UNL     1      -6.126   2.544 -33.037  1.00  0.00    -0.022 A 
HETATM   13  C   UNL     1      -6.715   2.933 -31.827  1.00  0.00     0.014 A 
HETATM   14  C   UNL     1      -6.321   4.108 -31.175  1.00  0.00     0.031 A 
HETATM   15  C   UNL     1      -2.025   7.125 -33.629  1.00  0.00     0.129 C 
HETATM   16  C   UNL     1      -0.745   7.097 -32.819  1.00  0.00     0.048 C 
HETATM   17  H   UNL     1      -5.560   6.345 -30.194  1.00  0.00     0.169 HD
ENDROOT
BRANCH   1  18
HETATM   18  N   UNL     1      -0.147   5.686 -30.866  1.00  0.00    -0.336 N 
HETATM   19  C   UNL     1       0.262   5.476 -29.588  1.00  0.00     0.316 C 
HETATM   20  N   UNL     1      -0.387   6.180 -28.620  1.00  0.00    -0.339 N 
HETATM   21  O   UNL     1       1.211   4.728 -29.383  1.00  0.00    -0.247 OA
HETATM   22  H   UNL     1      -1.343   6.433 -28.811  1.00  0.00     0.164 HD
HETATM   23  H   UNL     1       0.400   5.141 -31.523  1.00  0.00     0.164 HD
BRANCH  20  24
HETATM   24  C   UNL     1      -0.006   6.186 -27.212  1.00  0.00     0.078 C 
HETATM   25  C   UNL     1      -1.214   6.296 -26.282  1.00  0.00     0.032 C 
HETATM   26  C   UNL     1       1.045   7.246 -26.901  1.00  0.00     0.032 C 
ENDBRANCH  20  24
ENDBRANCH   1  18
BRANCH  12  27
HETATM   27  C   UNL     1      -6.497   1.285 -33.713  1.00  0.00     0.009 A 
HETATM   28  C   UNL     1      -7.714   1.142 -34.423  1.00  0.00     0.079 A 
HETATM   29  C   UNL     1      -8.036  -0.087 -35.014  1.00  0.00     0.039 A 
HETATM   30  C   UNL     1      -7.166  -1.175 -34.909  1.00  0.00     0.026 A 
HETATM   31  C   UNL     1      -5.969  -1.039 -34.216  1.00  0.00     0.035 A 
HETATM   32 CL   UNL     1      -4.901  -2.381 -34.084  1.00  0.00    -0.084 Cl
HETATM   33  C   UNL     1      -5.633   0.176 -33.623  1.00  0.00     0.039 A 
BRANCH  28  34
HETATM   34  O   UNL     1      -8.528   2.247 -34.461  1.00  0.00    -0.355 OA
HETATM   35  C   UNL     1      -9.904   2.070 -34.153  1.00  0.00     0.210 C 
ENDBRANCH  28  34
ENDBRANCH  12  27
TORSDOF 4
ENDMDL
MODEL 3
REMARK VINA RESULT:      -9.0      2.253      3.161
REMARK  4 active torsions:
REMARK  status: ('A' for Active; 'I' for Inactive)
REMARK    1  A    between atoms: C_2  and  N_3 
REMARK       I    between atoms: N_3  and  C_4 
REMARK       I    between atoms: C_4  and  N_5 
REMARK    2  A    between atoms: N_5  and  C_6 
REMARK    3  A    between atoms: C_17  and  C_18 
REMARK    4  A    between atoms: C_19  and  O_20 
ROOT
HETATM    1  C   UNL     1      -4.892   6.130 -30.361  1.00  0.00     0.120 C 
HETATM    2  C   UNL     1      -5.455   4.706 -30.552  1.00  0.00     0.202 C 
HETATM    3  N   UNL     1      -6.048   4.719 -31.877  1.00  0.00    -0.332 N 
HETATM    4  C   UNL     1      -6.418   3.612 -32.591  1.00  0.00     0.257 C 
HETATM    5  O   UNL     1      -6.825   3.676 -33.747  1.00  0.00    -0.267 OA
HETATM    6  C   UNL     1      -6.308   2.288 -31.933  1.00  0.00     0.059 A 
HETATM    7  C   UNL     1      -6.692   2.043 -30.604  1.00  0.00     0.050 A 
HETATM    8  N   UNL     1      -7.041   3.028 -29.656  1.00  0.00    -0.324 N 
HETATM    9  C   UNL     1      -6.552   4.313 -29.562  1.00  0.00     0.247 C 
HETATM   10  O   UNL     1      -6.918   5.029 -28.631  1.00  0.00    -0.271 OA
HETATM   11  C   UNL     1      -5.917   1.224 -32.764  1.00  0.00     0.031 A 
HETATM   12  C   UNL     1      -5.896  -0.097 -32.298  1.00  0.00    -0.022 A 
HETATM   13  C   UNL     1      -6.341  -0.336 -30.992  1.00  0.00     0.014 A 
HETATM   14  C   UNL     1      -6.747   0.715 -30.161  1.00  0.00     0.031 A 
HETATM   15  C   UNL     1      -6.293   6.067 -32.337  1.00  0.00     0.129 C 
HETATM   16  C   UNL     1      -5.221   6.894 -31.656  1.00  0.00     0.048 C 
HETATM   17  H   UNL     1      -7.563   2.745 -28.835  1.00  0.00     0.169 HD
ENDROOT
BRANCH   1  18
HETATM   18  N   UNL     1      -3.453   6.178 -30.067  1.00  0.00    -0.336 N 
HETATM   19  C   UNL     1      -2.364   6.048 -30.868  1.00  0.00     0.316 C 
HETATM   20  N   UNL     1      -2.605   5.878 -32.197  1.00  0.00    -0.339 N 
HETATM   21  O   UNL     1      -1.250   6.031 -30.358  1.00  0.00    -0.247 OA
HETATM   22  H   UNL     1      -3.453   6.285 -32.557  1.00  0.00     0.164 HD
HETATM   23  H   UNL     1      -3.186   6.280 -29.094  1.00  0.00     0.164 HD
BRANCH  20  24
HETATM   24  C   UNL     1      -1.576   5.594 -33.190  1.00  0.00     0.078 C 
HETATM   25  C   UNL     1      -0.841   6.854 -33.647  1.00  0.00     0.032 C 
HETATM   26  C   UNL     1      -2.116   4.795 -34.372  1.00  0.00     0.032 C 
ENDBRANCH  20  24
ENDBRANCH   1  18
BRANCH  12  27
HETATM   27  C   UNL     1      -5.421  -1.190 -33.170  1.00  0.00     0.009 A 
HETATM   28  C   UNL     1      -4.049  -1.371 -33.471  1.00  0.00     0.079 A 
HETATM   29  C   UNL     1      -3.654  -2.399 -34.337  1.00  0.00     0.039 A 
HETATM   30  C   UNL     1      -4.604  -3.252 -34.906  1.00  0.00     0.026 A 
HETATM   31  C   UNL     1      -5.952  -3.081 -34.611  1.00  0.00     0.035 A 
HETATM   32 CL   UNL     1      -7.120  -4.127 -35.316  1.00  0.00    -0.084 Cl
HETATM   33  C   UNL     1      -6.361  -2.063 -33.752  1.00  0.00     0.039 A 
BRANCH  28  34
HETATM   34  O   UNL     1      -3.179  -0.479 -32.895  1.00  0.00    -0.355 OA
HETATM   35  C   UNL     1      -2.477  -0.893 -31.730  1.00  0.00     0.210 C 
ENDBRANCH  28  34
ENDBRANCH  12  27
TORSDOF 4
ENDMDL
MODEL 4
REMARK VINA RESULT:      -8.8      1.854      2.328
REMARK  4 active torsions:
REMARK  status: ('A' for Active; 'I' for Inactive)
REMARK    1  A    between atoms: C_2  and  N_3 
REMARK       I    between atoms: N_3  and  C_4 
REMARK       I    between atoms: C_4  and  N_5 
REMARK    2  A    between atoms: N_5  and  C_6 
REMARK    3  A    between atoms: C_17  and  C_18 
REMARK    4  A    between atoms: C_19  and  O_20 
ROOT
HETATM    1  C   UNL     1      -1.759   6.709 -30.204  1.00  0.00     0.120 C 
HETATM    2  C   UNL     1      -2.858   5.741 -30.694  1.00  0.00     0.202 C 
HETATM    3  N   UNL     1      -2.652   5.646 -32.127  1.00  0.00    -0.332 N 
HETATM    4  C   UNL     1      -3.199   4.695 -32.945  1.00  0.00     0.257 C 
HETATM    5  O   UNL     1      -2.913   4.602 -34.135  1.00  0.00    -0.267 OA
HETATM    6  C   UNL     1      -4.166   3.739 -32.355  1.00  0.00     0.059 A 
HETATM    7  C   UNL     1      -5.178   4.109 -31.453  1.00  0.00     0.050 A 
HETATM    8  N   UNL     1      -5.302   5.370 -30.833  1.00  0.00    -0.324 N 
HETATM    9  C   UNL     1      -4.289   6.229 -30.467  1.00  0.00     0.247 C 
HETATM   10  O   UNL     1      -4.568   7.271 -29.875  1.00  0.00    -0.271 OA
HETATM   11  C   UNL     1      -4.110   2.427 -32.855  1.00  0.00     0.031 A 
HETATM   12  C   UNL     1      -5.049   1.459 -32.475  1.00  0.00    -0.022 A 
HETATM   13  C   UNL     1      -6.089   1.857 -31.625  1.00  0.00     0.014 A 
HETATM   14  C   UNL     1      -6.162   3.165 -31.133  1.00  0.00     0.031 A 
HETATM   15  C   UNL     1      -1.855   6.745 -32.625  1.00  0.00     0.129 C 
HETATM   16  C   UNL     1      -0.965   7.118 -31.458  1.00  0.00     0.048 C 
HETATM   17  H   UNL     1      -6.197   5.626 -30.433  1.00  0.00     0.169 HD
ENDROOT
BRANCH   1  18
HETATM   18  N   UNL     1      -0.875   6.150 -29.173  1.00  0.00    -0.336 N 
HETATM   19  C   UNL     1      -0.475   6.635 -27.969  1.00  0.00     0.316 C 
HETATM   20  N   UNL     1      -0.994   7.837 -27.596  1.00  0.00    -0.339 N 
HETATM   21  O   UNL     1       0.358   6.009 -27.324  1.00  0.00    -0.247 OA
HETATM   22  H   UNL     1      -1.906   8.066 -27.956  1.00  0.00     0.164 HD
HETATM   23  H   UNL     1      -0.427   5.265 -29.382  1.00  0.00     0.164 HD
BRANCH  20  24
HETATM   24  C   UNL     1      -0.588   8.575 -26.406  1.00  0.00     0.078 C 
HETATM   25  C   UNL     1      -1.778   9.172 -25.654  1.00  0.00     0.032 C 
HETATM   26  C   UNL     1       0.473   9.627 -26.710  1.00  0.00     0.032 C 
ENDBRANCH  20  24
ENDBRANCH   1  18
BRANCH  12  27
HETATM   27  C   UNL     1      -4.932   0.071 -32.964  1.00  0.00     0.009 A 
HETATM   28  C   UNL     1      -5.661  -0.396 -34.085  1.00  0.00     0.079 A 
HETATM   29  C   UNL     1      -5.544  -1.734 -34.485  1.00  0.00     0.039 A 
HETATM   30  C   UNL     1      -4.712  -2.613 -33.788  1.00  0.00     0.026 A 
HETATM   31  C   UNL     1      -3.991  -2.159 -32.690  1.00  0.00     0.035 A 
HETATM   32 CL   UNL     1      -2.971  -3.244 -31.830  1.00  0.00    -0.084 Cl
HETATM   33  C   UNL     1      -4.096  -0.832 -32.279  1.00  0.00     0.039 A 
BRANCH  28  34
HETATM   34  O   UNL     1      -6.476   0.520 -34.703  1.00  0.00    -0.355 OA
HETATM   35  C   UNL     1      -7.872   0.252 -34.736  1.00  0.00     0.210 C 
ENDBRANCH  28  34
ENDBRANCH  12  27
TORSDOF 4
ENDMDL
MODEL 5
REMARK VINA RESULT:      -8.6      4.073      9.122
REMARK  4 active torsions:
REMARK  status: ('A' for Active; 'I' for Inactive)
REMARK    1  A    between atoms: C_2  and  N_3 
REMARK       I    between atoms: N_3  and  C_4 
REMARK       I    between atoms: C_4  and  N_5 
REMARK    2  A    between atoms: N_5  and  C_6 
REMARK    3  A    between atoms: C_17  and  C_18 
REMARK    4  A    between atoms: C_19  and  O_20 
ROOT
HETATM    1  C   UNL     1      -9.097   1.109 -33.719  1.00  0.00     0.120 C 
HETATM    2  C   UNL     1      -8.057   1.812 -32.821  1.00  0.00     0.202 C 
HETATM    3  N   UNL     1      -6.808   1.124 -33.098  1.00  0.00    -0.332 N 
HETATM    4  C   UNL     1      -5.563   1.574 -32.754  1.00  0.00     0.257 C 
HETATM    5  O   UNL     1      -4.533   1.001 -33.099  1.00  0.00    -0.267 OA
HETATM    6  C   UNL     1      -5.467   2.809 -31.940  1.00  0.00     0.059 A 
HETATM    7  C   UNL     1      -6.300   3.089 -30.844  1.00  0.00     0.050 A 
HETATM    8  N   UNL     1      -7.452   2.358 -30.483  1.00  0.00    -0.324 N 
HETATM    9  C   UNL     1      -8.322   1.694 -31.320  1.00  0.00     0.247 C 
HETATM   10  O   UNL     1      -9.320   1.154 -30.845  1.00  0.00    -0.271 OA
HETATM   11  C   UNL     1      -4.383   3.653 -32.237  1.00  0.00     0.031 A 
HETATM   12  C   UNL     1      -4.105   4.787 -31.462  1.00  0.00    -0.022 A 
HETATM   13  C   UNL     1      -4.905   5.020 -30.336  1.00  0.00     0.014 A 
HETATM   14  C   UNL     1      -5.977   4.176 -30.023  1.00  0.00     0.031 A 
HETATM   15  C   UNL     1      -7.035  -0.162 -33.716  1.00  0.00     0.129 C 
HETATM   16  C   UNL     1      -8.330   0.015 -34.482  1.00  0.00     0.048 C 
HETATM   17  H   UNL     1      -7.814   2.461 -29.542  1.00  0.00     0.169 HD
ENDROOT
BRANCH   1  18
HETATM   18  N   UNL     1      -9.804   2.006 -34.643  1.00  0.00    -0.336 N 
HETATM   19  C   UNL     1     -11.121   2.315 -34.770  1.00  0.00     0.316 C 
HETATM   20  N   UNL     1     -11.968   1.738 -33.873  1.00  0.00    -0.339 N 
HETATM   21  O   UNL     1     -11.476   3.031 -35.699  1.00  0.00    -0.247 OA
HETATM   22  H   UNL     1     -11.584   1.516 -32.969  1.00  0.00     0.164 HD
HETATM   23  H   UNL     1      -9.248   2.459 -35.360  1.00  0.00     0.164 HD
BRANCH  20  24
HETATM   24  C   UNL     1     -13.421   1.846 -33.928  1.00  0.00     0.078 C 
HETATM   25  C   UNL     1     -14.005   2.513 -32.683  1.00  0.00     0.032 C 
HETATM   26  C   UNL     1     -14.091   0.507 -34.217  1.00  0.00     0.032 C 
ENDBRANCH  20  24
ENDBRANCH   1  18
BRANCH  12  27
HETATM   27  C   UNL     1      -3.000   5.694 -31.832  1.00  0.00     0.009 A 
HETATM   28  C   UNL     1      -2.929   6.315 -33.103  1.00  0.00     0.079 A 
HETATM   29  C   UNL     1      -1.838   7.136 -33.418  1.00  0.00     0.039 A 
HETATM   30  C   UNL     1      -0.817   7.348 -32.487  1.00  0.00     0.026 A 
HETATM   31  C   UNL     1      -0.884   6.743 -31.238  1.00  0.00     0.035 A 
HETATM   32 CL   UNL     1       0.375   7.002 -30.096  1.00  0.00    -0.084 Cl
HETATM   33  C   UNL     1      -1.962   5.925 -30.908  1.00  0.00     0.039 A 
BRANCH  28  34
HETATM   34  O   UNL     1      -3.956   6.039 -33.971  1.00  0.00    -0.355 OA
HETATM   35  C   UNL     1      -3.644   5.338 -35.168  1.00  0.00     0.210 C 
ENDBRANCH  28  34
ENDBRANCH  12  27
TORSDOF 4
ENDMDL
MODEL 6
REMARK VINA RESULT:      -8.6      2.784      4.628
REMARK  4 active torsions:
REMARK  status: ('A' for Active; 'I' for Inactive)
REMARK    1  A    between atoms: C_2  and  N_3 
REMARK       I    between atoms: N_3  and  C_4 
REMARK       I    between atoms: C_4  and  N_5 
REMARK    2  A    between atoms: N_5  and  C_6 
REMARK    3  A    between atoms: C_17  and  C_18 
REMARK    4  A    between atoms: C_19  and  O_20 
ROOT
HETATM    1  C   UNL     1      -1.832   8.096 -30.796  1.00  0.00     0.120 C 
HETATM    2  C   UNL     1      -2.506   7.051 -31.710  1.00  0.00     0.202 C 
HETATM    3  N   UNL     1      -1.936   5.781 -31.299  1.00  0.00    -0.332 N 
HETATM    4  C   UNL     1      -2.429   4.547 -31.627  1.00  0.00     0.257 C 
HETATM    5  O   UNL     1      -1.965   3.506 -31.171  1.00  0.00    -0.267 OA
HETATM    6  C   UNL     1      -3.577   4.480 -32.562  1.00  0.00     0.059 A 
HETATM    7  C   UNL     1      -3.686   5.266 -33.722  1.00  0.00     0.050 A 
HETATM    8  N   UNL     1      -2.847   6.348 -34.061  1.00  0.00    -0.324 N 
HETATM    9  C   UNL     1      -2.216   7.222 -33.202  1.00  0.00     0.247 C 
HETATM   10  O   UNL     1      -1.565   8.157 -33.666  1.00  0.00    -0.271 OA
HETATM   11  C   UNL     1      -4.518   3.469 -32.303  1.00  0.00     0.031 A 
HETATM   12  C   UNL     1      -5.582   3.217 -33.180  1.00  0.00    -0.022 A 
HETATM   13  C   UNL     1      -5.642   3.964 -34.363  1.00  0.00     0.014 A 
HETATM   14  C   UNL     1      -4.701   4.963 -34.638  1.00  0.00     0.031 A 
HETATM   15  C   UNL     1      -0.707   5.963 -30.559  1.00  0.00     0.129 C 
HETATM   16  C   UNL     1      -0.876   7.308 -29.883  1.00  0.00     0.048 C 
HETATM   17  H   UNL     1      -2.826   6.661 -35.024  1.00  0.00     0.169 HD
ENDROOT
BRANCH   1  18
HETATM   18  N   UNL     1      -2.771   8.908 -30.010  1.00  0.00    -0.336 N 
HETATM   19  C   UNL     1      -3.333   8.707 -28.789  1.00  0.00     0.316 C 
HETATM   20  N   UNL     1      -2.956   7.580 -28.126  1.00  0.00    -0.339 N 
HETATM   21  O   UNL     1      -4.175   9.501 -28.386  1.00  0.00    -0.247 OA
HETATM   22  H   UNL     1      -2.033   7.228 -28.322  1.00  0.00     0.164 HD
HETATM   23  H   UNL     1      -3.120   9.755 -30.442  1.00  0.00     0.164 HD
BRANCH  20  24
HETATM   24  C   UNL     1      -3.544   7.130 -26.869  1.00  0.00     0.078 C 
HETATM   25  C   UNL     1      -2.502   6.556 -25.909  1.00  0.00     0.032 C 
HETATM   26  C   UNL     1      -4.705   6.165 -27.085  1.00  0.00     0.032 C 
ENDBRANCH  20  24
ENDBRANCH   1  18
BRANCH  12  27
HETATM   27  C   UNL     1      -6.593   2.192 -32.854  1.00  0.00     0.009 A 
HETATM   28  C   UNL     1      -7.645   2.437 -31.938  1.00  0.00     0.079 A 
HETATM   29  C   UNL     1      -8.556   1.417 -31.634  1.00  0.00     0.039 A 
HETATM   30  C   UNL     1      -8.436   0.158 -32.227  1.00  0.00     0.026 A 
HETATM   31  C   UNL     1      -7.407  -0.087 -33.129  1.00  0.00     0.035 A 
HETATM   32 CL   UNL     1      -7.258  -1.639 -33.855  1.00  0.00    -0.084 Cl
HETATM   33  C   UNL     1      -6.494   0.917 -33.443  1.00  0.00     0.039 A 
BRANCH  28  34
HETATM   34  O   UNL     1      -7.682   3.690 -31.378  1.00  0.00    -0.355 OA
HETATM   35  C   UNL     1      -7.754   3.783 -29.961  1.00  0.00     0.210 C 
ENDBRANCH  28  34
ENDBRANCH  12  27
TORSDOF 4
ENDMDL
MODEL 7
REMARK VINA RESULT:      -8.6      3.661      9.611
REMARK  4 active torsions:
REMARK  status: ('A' for Active; 'I' for Inactive)
REMARK    1  A    between atoms: C_2  and  N_3 
REMARK       I    between atoms: N_3  and  C_4 
REMARK       I    between atoms: C_4  and  N_5 
REMARK    2  A    between atoms: N_5  and  C_6 
REMARK    3  A    between atoms: C_17  and  C_18 
REMARK    4  A    between atoms: C_19  and  O_20 
ROOT
HETATM    1  C   UNL     1      -5.136   2.290 -32.478  1.00  0.00     0.120 C 
HETATM    2  C   UNL     1      -4.554   3.711 -32.320  1.00  0.00     0.202 C 
HETATM    3  N   UNL     1      -5.242   4.264 -31.168  1.00  0.00    -0.332 N 
HETATM    4  C   UNL     1      -4.861   5.384 -30.480  1.00  0.00     0.257 C 
HETATM    5  O   UNL     1      -5.423   5.753 -29.453  1.00  0.00    -0.267 OA
HETATM    6  C   UNL     1      -3.717   6.169 -31.002  1.00  0.00     0.059 A 
HETATM    7  C   UNL     1      -3.527   6.462 -32.363  1.00  0.00     0.050 A 
HETATM    8  N   UNL     1      -4.261   5.904 -33.432  1.00  0.00    -0.324 N 
HETATM    9  C   UNL     1      -4.815   4.645 -33.503  1.00  0.00     0.247 C 
HETATM   10  O   UNL     1      -5.374   4.291 -34.540  1.00  0.00    -0.271 OA
HETATM   11  C   UNL     1      -2.875   6.739 -30.033  1.00  0.00     0.031 A 
HETATM   12  C   UNL     1      -1.832   7.605 -30.388  1.00  0.00    -0.022 A 
HETATM   13  C   UNL     1      -1.693   7.939 -31.741  1.00  0.00     0.014 A 
HETATM   14  C   UNL     1      -2.537   7.388 -32.713  1.00  0.00     0.031 A 
HETATM   15  C   UNL     1      -6.454   3.535 -30.870  1.00  0.00     0.129 C 
HETATM   16  C   UNL     1      -6.168   2.126 -31.347  1.00  0.00     0.048 C 
HETATM   17  H   UNL     1      -4.244   6.377 -34.328  1.00  0.00     0.169 HD
ENDROOT
BRANCH   1  18
HETATM   18  N   UNL     1      -4.133   1.217 -32.442  1.00  0.00    -0.336 N 
HETATM   19  C   UNL     1      -4.185  -0.079 -32.847  1.00  0.00     0.316 C 
HETATM   20  N   UNL     1      -5.346  -0.487 -33.430  1.00  0.00    -0.339 N 
HETATM   21  O   UNL     1      -3.229  -0.811 -32.618  1.00  0.00    -0.247 OA
HETATM   22  H   UNL     1      -5.878   0.217 -33.915  1.00  0.00     0.164 HD
HETATM   23  H   UNL     1      -3.246   1.431 -32.002  1.00  0.00     0.164 HD
BRANCH  20  24
HETATM   24  C   UNL     1      -5.636  -1.865 -33.809  1.00  0.00     0.078 C 
HETATM   25  C   UNL     1      -4.586  -2.442 -34.759  1.00  0.00     0.032 C 
HETATM   26  C   UNL     1      -7.048  -2.029 -34.360  1.00  0.00     0.032 C 
ENDBRANCH  20  24
ENDBRANCH   1  18
BRANCH  12  27
HETATM   27  C   UNL     1      -0.922   8.142 -29.357  1.00  0.00     0.009 A 
HETATM   28  C   UNL     1       0.350   7.572 -29.104  1.00  0.00     0.079 A 
HETATM   29  C   UNL     1       1.159   8.094 -28.087  1.00  0.00     0.039 A 
HETATM   30  C   UNL     1       0.723   9.177 -27.319  1.00  0.00     0.026 A 
HETATM   31  C   UNL     1      -0.522   9.743 -27.565  1.00  0.00     0.035 A 
HETATM   32 CL   UNL     1      -1.059  11.072 -26.615  1.00  0.00    -0.084 Cl
HETATM   33  C   UNL     1      -1.339   9.235 -28.573  1.00  0.00     0.039 A 
BRANCH  28  34
HETATM   34  O   UNL     1       0.697   6.496 -29.883  1.00  0.00    -0.355 OA
HETATM   35  C   UNL     1       0.602   5.199 -29.307  1.00  0.00     0.210 C 
ENDBRANCH  28  34
ENDBRANCH  12  27
TORSDOF 4
ENDMDL
MODEL 8
REMARK VINA RESULT:      -8.6      5.065      7.267
REMARK  4 active torsions:
REMARK  status: ('A' for Active; 'I' for Inactive)
REMARK    1  A    between atoms: C_2  and  N_3 
REMARK       I    between atoms: N_3  and  C_4 
REMARK       I    between atoms: C_4  and  N_5 
REMARK    2  A    between atoms: N_5  and  C_6 
REMARK    3  A    between atoms: C_17  and  C_18 
REMARK    4  A    between atoms: C_19  and  O_20 
ROOT
HETATM    1  C   UNL     1     -11.858   4.475 -33.774  1.00  0.00     0.120 C 
HETATM    2  C   UNL     1     -10.866   3.486 -33.128  1.00  0.00     0.202 C 
HETATM    3  N   UNL     1     -11.473   2.181 -33.316  1.00  0.00    -0.332 N 
HETATM    4  C   UNL     1     -10.835   0.980 -33.161  1.00  0.00     0.257 C 
HETATM    5  O   UNL     1     -11.370  -0.092 -33.427  1.00  0.00    -0.267 OA
HETATM    6  C   UNL     1      -9.440   0.990 -32.662  1.00  0.00     0.059 A 
HETATM    7  C   UNL     1      -8.992   1.808 -31.611  1.00  0.00     0.050 A 
HETATM    8  N   UNL     1      -9.726   2.859 -31.021  1.00  0.00    -0.324 N 
HETATM    9  C   UNL     1     -10.651   3.681 -31.627  1.00  0.00     0.247 C 
HETATM   10  O   UNL     1     -11.159   4.596 -30.980  1.00  0.00    -0.271 OA
HETATM   11  C   UNL     1      -8.587   0.017 -33.211  1.00  0.00     0.031 A 
HETATM   12  C   UNL     1      -7.281  -0.163 -32.738  1.00  0.00    -0.022 A 
HETATM   13  C   UNL     1      -6.869   0.616 -31.649  1.00  0.00     0.014 A 
HETATM   14  C   UNL     1      -7.716   1.577 -31.084  1.00  0.00     0.031 A 
HETATM   15  C   UNL     1     -12.885   2.287 -33.605  1.00  0.00     0.129 C 
HETATM   16  C   UNL     1     -13.021   3.621 -34.310  1.00  0.00     0.048 C 
HETATM   17  H   UNL     1      -9.441   3.195 -30.109  1.00  0.00     0.169 HD
ENDROOT
BRANCH   1  18
HETATM   18  N   UNL     1     -11.279   5.310 -34.836  1.00  0.00    -0.336 N 
HETATM   19  C   UNL     1     -10.776   6.572 -34.817  1.00  0.00     0.316 C 
HETATM   20  N   UNL     1     -10.754   7.198 -33.609  1.00  0.00    -0.339 N 
HETATM   21  O   UNL     1     -10.434   7.090 -35.873  1.00  0.00    -0.247 OA
HETATM   22  H   UNL     1     -10.672   6.608 -32.796  1.00  0.00     0.164 HD
HETATM   23  H   UNL     1     -11.278   4.926 -35.774  1.00  0.00     0.164 HD
BRANCH  20  24
HETATM   24  C   UNL     1     -10.374   8.592 -33.411  1.00  0.00     0.078 C 
HETATM   25  C   UNL     1      -9.140   8.741 -32.522  1.00  0.00     0.032 C 
HETATM   26  C   UNL     1     -11.536   9.444 -32.912  1.00  0.00     0.032 C 
ENDBRANCH  20  24
ENDBRANCH   1  18
BRANCH  12  27
HETATM   27  C   UNL     1      -6.384  -1.148 -33.374  1.00  0.00     0.009 A 
HETATM   28  C   UNL     1      -4.975  -1.008 -33.351  1.00  0.00     0.079 A 
HETATM   29  C   UNL     1      -4.170  -1.950 -34.004  1.00  0.00     0.039 A 
HETATM   30  C   UNL     1      -4.745  -3.030 -34.679  1.00  0.00     0.026 A 
HETATM   31  C   UNL     1      -6.128  -3.174 -34.701  1.00  0.00     0.035 A 
HETATM   32 CL   UNL     1      -6.835  -4.501 -35.535  1.00  0.00    -0.084 Cl
HETATM   33  C   UNL     1      -6.942  -2.246 -34.056  1.00  0.00     0.039 A 
BRANCH  28  34
HETATM   34  O   UNL     1      -4.485   0.092 -32.691  1.00  0.00    -0.355 OA
HETATM   35  C   UNL     1      -3.269  -0.052 -31.970  1.00  0.00     0.210 C 
ENDBRANCH  28  34
ENDBRANCH  12  27
TORSDOF 4
ENDMDL
MODEL 9
REMARK VINA RESULT:      -8.5      3.165      5.016
REMARK  4 active torsions:
REMARK  status: ('A' for Active; 'I' for Inactive)
REMARK    1  A    between atoms: C_2  and  N_3 
REMARK       I    between atoms: N_3  and  C_4 
REMARK       I    between atoms: C_4  and  N_5 
REMARK    2  A    between atoms: N_5  and  C_6 
REMARK    3  A    between atoms: C_17  and  C_18 
REMARK    4  A    between atoms: C_19  and  O_20 
ROOT
HETATM    1  C   UNL     1      -1.208   7.607 -30.974  1.00  0.00     0.120 C 
HETATM    2  C   UNL     1      -2.112   6.685 -31.820  1.00  0.00     0.202 C 
HETATM    3  N   UNL     1      -1.752   5.340 -31.408  1.00  0.00    -0.332 N 
HETATM    4  C   UNL     1      -2.476   4.209 -31.674  1.00  0.00     0.257 C 
HETATM    5  O   UNL     1      -2.177   3.110 -31.218  1.00  0.00    -0.267 OA
HETATM    6  C   UNL     1      -3.673   4.334 -32.540  1.00  0.00     0.059 A 
HETATM    7  C   UNL     1      -3.712   5.108 -33.712  1.00  0.00     0.050 A 
HETATM    8  N   UNL     1      -2.716   6.017 -34.127  1.00  0.00    -0.324 N 
HETATM    9  C   UNL     1      -1.888   6.778 -33.330  1.00  0.00     0.247 C 
HETATM   10  O   UNL     1      -1.110   7.573 -33.856  1.00  0.00    -0.271 OA
HETATM   11  C   UNL     1      -4.761   3.512 -32.200  1.00  0.00     0.031 A 
HETATM   12  C   UNL     1      -5.904   3.441 -33.007  1.00  0.00    -0.022 A 
HETATM   13  C   UNL     1      -5.904   4.168 -34.204  1.00  0.00     0.014 A 
HETATM   14  C   UNL     1      -4.818   4.978 -34.560  1.00  0.00     0.031 A 
HETATM   15  C   UNL     1      -0.468   5.311 -30.746  1.00  0.00     0.129 C 
HETATM   16  C   UNL     1      -0.353   6.675 -30.097  1.00  0.00     0.048 C 
HETATM   17  H   UNL     1      -2.699   6.306 -35.098  1.00  0.00     0.169 HD
ENDROOT
BRANCH   1  18
HETATM   18  N   UNL     1      -1.937   8.586 -30.157  1.00  0.00    -0.336 N 
HETATM   19  C   UNL     1      -3.037   8.463 -29.369  1.00  0.00     0.316 C 
HETATM   20  N   UNL     1      -3.568   7.214 -29.261  1.00  0.00    -0.339 N 
HETATM   21  O   UNL     1      -3.517   9.467 -28.858  1.00  0.00    -0.247 OA
HETATM   22  H   UNL     1      -2.930   6.441 -29.365  1.00  0.00     0.164 HD
HETATM   23  H   UNL     1      -1.619   9.548 -30.199  1.00  0.00     0.164 HD
BRANCH  20  24
HETATM   24  C   UNL     1      -4.815   6.907 -28.569  1.00  0.00     0.078 C 
HETATM   25  C   UNL     1      -4.592   6.520 -27.108  1.00  0.00     0.032 C 
HETATM   26  C   UNL     1      -5.647   5.866 -29.309  1.00  0.00     0.032 C 
ENDBRANCH  20  24
ENDBRANCH   1  18
BRANCH  12  27
HETATM   27  C   UNL     1      -7.060   2.619 -32.596  1.00  0.00     0.009 A 
HETATM   28  C   UNL     1      -7.251   1.298 -33.069  1.00  0.00     0.079 A 
HETATM   29  C   UNL     1      -8.385   0.575 -32.679  1.00  0.00     0.039 A 
HETATM   30  C   UNL     1      -9.332   1.146 -31.825  1.00  0.00     0.026 A 
HETATM   31  C   UNL     1      -9.148   2.441 -31.355  1.00  0.00     0.035 A 
HETATM   32 CL   UNL     1     -10.317   3.144 -30.308  1.00  0.00    -0.084 Cl
HETATM   33  C   UNL     1      -8.025   3.173 -31.732  1.00  0.00     0.039 A 
BRANCH  28  34
HETATM   34  O   UNL     1      -6.291   0.815 -33.924  1.00  0.00    -0.355 OA
HETATM   35  C   UNL     1      -5.467  -0.249 -33.467  1.00  0.00     0.210 C 
ENDBRANCH  28  34
ENDBRANCH  12  27
TORSDOF 4
ENDMDL
MODEL 10
REMARK VINA RESULT:      -8.4      2.636      4.107
REMARK  4 active torsions:
REMARK  status: ('A' for Active; 'I' for Inactive)
REMARK    1  A    between atoms: C_2  and  N_3 
REMARK       I    between atoms: N_3  and  C_4 
REMARK       I    between atoms: C_4  and  N_5 
REMARK    2  A    between atoms: N_5  and  C_6 
REMARK    3  A    between atoms: C_17  and  C_18 
REMARK    4  A    between atoms: C_19  and  O_20 
ROOT
HETATM    1  C   UNL     1      -0.958   7.103 -29.656  1.00  0.00     0.120 C 
HETATM    2  C   UNL     1      -2.189   6.587 -30.430  1.00  0.00     0.202 C 
HETATM    3  N   UNL     1      -1.642   5.996 -31.638  1.00  0.00    -0.332 N 
HETATM    4  C   UNL     1      -2.319   5.166 -32.491  1.00  0.00     0.257 C 
HETATM    5  O   UNL     1      -1.778   4.616 -33.445  1.00  0.00    -0.267 OA
HETATM    6  C   UNL     1      -3.758   4.925 -32.234  1.00  0.00     0.059 A 
HETATM    7  C   UNL     1      -4.666   5.932 -31.866  1.00  0.00     0.050 A 
HETATM    8  N   UNL     1      -4.322   7.250 -31.499  1.00  0.00    -0.324 N 
HETATM    9  C   UNL     1      -3.178   7.672 -30.858  1.00  0.00     0.247 C 
HETATM   10  O   UNL     1      -3.061   8.859 -30.553  1.00  0.00    -0.271 OA
HETATM   11  C   UNL     1      -4.219   3.627 -32.514  1.00  0.00     0.031 A 
HETATM   12  C   UNL     1      -5.579   3.300 -32.434  1.00  0.00    -0.022 A 
HETATM   13  C   UNL     1      -6.480   4.329 -32.128  1.00  0.00     0.014 A 
HETATM   14  C   UNL     1      -6.033   5.628 -31.863  1.00  0.00     0.031 A 
HETATM   15  C   UNL     1      -0.298   6.459 -31.896  1.00  0.00     0.129 C 
HETATM   16  C   UNL     1       0.266   6.752 -30.521  1.00  0.00     0.048 C 
HETATM   17  H   UNL     1      -5.042   7.963 -31.526  1.00  0.00     0.169 HD
ENDROOT
BRANCH   1  18
HETATM   18  N   UNL     1      -0.823   6.557 -28.298  1.00  0.00    -0.336 N 
HETATM   19  C   UNL     1      -0.334   7.099 -27.153  1.00  0.00     0.316 C 
HETATM   20  N   UNL     1       0.085   8.392 -27.224  1.00  0.00    -0.339 N 
HETATM   21  O   UNL     1      -0.240   6.394 -26.155  1.00  0.00    -0.247 OA
HETATM   22  H   UNL     1      -0.370   8.977 -27.907  1.00  0.00     0.164 HD
HETATM   23  H   UNL     1      -1.092   5.589 -28.163  1.00  0.00     0.164 HD
BRANCH  20  24
HETATM   24  C   UNL     1       0.755   9.101 -26.140  1.00  0.00     0.078 C 
HETATM   25  C   UNL     1       0.685  10.619 -26.304  1.00  0.00     0.032 C 
HETATM   26  C   UNL     1       2.187   8.621 -25.932  1.00  0.00     0.032 C 
ENDBRANCH  20  24
ENDBRANCH   1  18
BRANCH  12  27
HETATM   27  C   UNL     1      -6.031   1.915 -32.671  1.00  0.00     0.009 A 
HETATM   28  C   UNL     1      -5.868   0.894 -31.704  1.00  0.00     0.079 A 
HETATM   29  C   UNL     1      -6.278  -0.414 -31.995  1.00  0.00     0.039 A 
HETATM   30  C   UNL     1      -6.850  -0.720 -33.232  1.00  0.00     0.026 A 
HETATM   31  C   UNL     1      -7.016   0.279 -34.184  1.00  0.00     0.035 A 
HETATM   32 CL   UNL     1      -7.715  -0.100 -35.708  1.00  0.00    -0.084 Cl
HETATM   33  C   UNL     1      -6.614   1.585 -33.911  1.00  0.00     0.039 A 
BRANCH  28  34
HETATM   34  O   UNL     1      -5.276   1.266 -30.523  1.00  0.00    -0.355 OA
HETATM   35  C   UNL     1      -5.690   0.607 -29.334  1.00  0.00     0.210 C 
ENDBRANCH  28  34
ENDBRANCH  12  27
TORSDOF 4
ENDMDL
