MODEL 1
REMARK VINA RESULT:      -7.7      0.000      0.000
REMARK  8 active torsions:
REMARK  status: ('A' for Active; 'I' for Inactive)
REMARK    1  A    between atoms: C_2  and  N_3 
REMARK    2  A    between atoms: C_2  and  C_17 
REMARK    3  A    between atoms: N_3  and  C_6 
REMARK    4  A    between atoms: C_6  and  C_7 
REMARK    5  A    between atoms: C_7  and  O_8 
REMARK    6  A    between atoms: C_7  and  C_9 
REMARK    7  A    between atoms: C_11  and  O_12 
REMARK    8  A    between atoms: C_17  and  C_18 
ROOT
HETATM    1  N   UNL     1      -5.650   3.765 -33.693  1.00  0.00    -0.068 N 
HETATM    2  H   UNL     1      -5.341   3.297 -34.571  1.00  0.00     0.277 HD
HETATM    3  H   UNL     1      -6.662   3.924 -33.846  1.00  0.00     0.277 HD
ENDROOT
BRANCH   1   4
HETATM    4  C   UNL     1      -5.362   2.817 -32.561  1.00  0.00     0.188 C 
HETATM    5  C   UNL     1      -5.164   3.610 -31.275  1.00  0.00     0.040 C 
BRANCH   4   6
HETATM    6  C   UNL     1      -6.525   1.812 -32.405  1.00  0.00     0.099 C 
BRANCH   6   7
HETATM    7  C   UNL     1      -6.170   0.467 -32.967  1.00  0.00     0.078 A 
HETATM    8  S   UNL     1      -4.558  -0.103 -32.921  1.00  0.00    -0.073 SA
HETATM    9  C   UNL     1      -5.057  -1.576 -33.658  1.00  0.00     0.035 A 
HETATM   10  C   UNL     1      -6.434  -1.527 -33.888  1.00  0.00     0.074 A 
HETATM   11  C   UNL     1      -4.285  -2.697 -34.005  1.00  0.00     0.021 A 
HETATM   12  N   UNL     1      -7.064  -0.351 -33.489  1.00  0.00    -0.245 NA
HETATM   13  C   UNL     1      -7.061  -2.638 -34.489  1.00  0.00     0.033 A 
HETATM   14  C   UNL     1      -6.301  -3.759 -34.839  1.00  0.00     0.002 A 
HETATM   15  C   UNL     1      -4.931  -3.785 -34.599  1.00  0.00     0.002 A 
ENDBRANCH   6   7
ENDBRANCH   4   6
ENDBRANCH   1   4
BRANCH   1  16
HETATM   16  C   UNL     1      -5.003   5.121 -33.657  1.00  0.00     0.269 C 
BRANCH  16  17
HETATM   17  C   UNL     1      -3.618   5.004 -34.326  1.00  0.00     0.177 C 
BRANCH  17  18
HETATM   18  O   UNL     1      -3.687   5.690 -35.588  1.00  0.00    -0.389 OA
HETATM   19  H   UNL     1      -4.092   6.563 -35.410  1.00  0.00     0.210 HD
ENDBRANCH  17  18
BRANCH  17  20
HETATM   20  C   UNL     1      -2.520   5.557 -33.455  1.00  0.00    -0.025 A 
HETATM   21  C   UNL     1      -1.799   4.730 -32.570  1.00  0.00     0.046 A 
HETATM   22  C   UNL     1      -0.764   5.251 -31.790  1.00  0.00     0.068 A 
HETATM   23  C   UNL     1      -0.431   6.600 -31.911  1.00  0.00     0.037 A 
HETATM   24  C   UNL     1      -1.131   7.430 -32.784  1.00  0.00     0.003 A 
HETATM   25  C   UNL     1      -2.171   6.912 -33.553  1.00  0.00     0.010 A 
BRANCH  22  26
HETATM   26  O   UNL     1      -0.001   4.552 -30.899  1.00  0.00    -0.356 OA
HETATM   27  C   UNL     1       0.466   5.248 -29.750  1.00  0.00     0.210 C 
ENDBRANCH  22  26
ENDBRANCH  17  20
ENDBRANCH  16  17
ENDBRANCH   1  16
TORSDOF 8
ENDMDL
MODEL 2
REMARK VINA RESULT:      -7.7      3.383      8.910
REMARK  8 active torsions:
REMARK  status: ('A' for Active; 'I' for Inactive)
REMARK    1  A    between atoms: C_2  and  N_3 
REMARK    2  A    between atoms: C_2  and  C_17 
REMARK    3  A    between atoms: N_3  and  C_6 
REMARK    4  A    between atoms: C_6  and  C_7 
REMARK    5  A    between atoms: C_7  and  O_8 
REMARK    6  A    between atoms: C_7  and  C_9 
REMARK    7  A    between atoms: C_11  and  O_12 
REMARK    8  A    between atoms: C_17  and  C_18 
ROOT
HETATM    1  N   UNL     1      -3.217   1.986 -31.316  1.00  0.00    -0.068 N 
HETATM    2  H   UNL     1      -2.243   1.863 -31.665  1.00  0.00     0.277 HD
HETATM    3  H   UNL     1      -3.087   2.340 -30.352  1.00  0.00     0.277 HD
ENDROOT
BRANCH   1   4
HETATM    4  C   UNL     1      -3.892   2.975 -32.226  1.00  0.00     0.188 C 
HETATM    5  C   UNL     1      -4.807   3.877 -31.406  1.00  0.00     0.040 C 
BRANCH   4   6
HETATM    6  C   UNL     1      -2.832   3.813 -32.974  1.00  0.00     0.099 C 
BRANCH   6   7
HETATM    7  C   UNL     1      -2.094   4.728 -32.041  1.00  0.00     0.078 A 
HETATM    8  S   UNL     1      -2.453   6.399 -31.989  1.00  0.00    -0.073 SA
HETATM    9  C   UNL     1      -1.285   6.612 -30.743  1.00  0.00     0.035 A 
HETATM   10  C   UNL     1      -0.699   5.378 -30.452  1.00  0.00     0.074 A 
HETATM   11  C   UNL     1      -0.916   7.788 -30.069  1.00  0.00     0.021 A 
HETATM   12  N   UNL     1      -1.170   4.303 -31.202  1.00  0.00    -0.245 NA
HETATM   13  C   UNL     1       0.293   5.317 -29.452  1.00  0.00     0.033 A 
HETATM   14  C   UNL     1       0.668   6.483 -28.775  1.00  0.00     0.002 A 
HETATM   15  C   UNL     1       0.069   7.701 -29.082  1.00  0.00     0.002 A 
ENDBRANCH   6   7
ENDBRANCH   4   6
ENDBRANCH   1   4
BRANCH   1  16
HETATM   16  C   UNL     1      -3.824   0.616 -31.191  1.00  0.00     0.269 C 
BRANCH  16  17
HETATM   17  C   UNL     1      -3.216  -0.274 -32.295  1.00  0.00     0.177 C 
BRANCH  17  18
HETATM   18  O   UNL     1      -2.395  -1.263 -31.651  1.00  0.00    -0.389 OA
HETATM   19  H   UNL     1      -1.993  -1.800 -32.365  1.00  0.00     0.210 HD
ENDBRANCH  17  18
BRANCH  17  20
HETATM   20  C   UNL     1      -4.277  -0.910 -33.157  1.00  0.00    -0.025 A 
HETATM   21  C   UNL     1      -4.207  -2.270 -33.520  1.00  0.00     0.046 A 
HETATM   22  C   UNL     1      -5.212  -2.853 -34.295  1.00  0.00     0.068 A 
HETATM   23  C   UNL     1      -6.305  -2.081 -34.690  1.00  0.00     0.037 A 
HETATM   24  C   UNL     1      -6.389  -0.736 -34.336  1.00  0.00     0.003 A 
HETATM   25  C   UNL     1      -5.380  -0.152 -33.573  1.00  0.00     0.010 A 
BRANCH  22  26
HETATM   26  O   UNL     1      -5.253  -4.154 -34.709  1.00  0.00    -0.356 OA
HETATM   27  C   UNL     1      -6.399  -4.572 -35.440  1.00  0.00     0.210 C 
ENDBRANCH  22  26
ENDBRANCH  17  20
ENDBRANCH  16  17
ENDBRANCH   1  16
TORSDOF 8
ENDMDL
MODEL 3
REMARK VINA RESULT:      -7.7      1.883      2.512
REMARK  8 active torsions:
REMARK  status: ('A' for Active; 'I' for Inactive)
REMARK    1  A    between atoms: C_2  and  N_3 
REMARK    2  A    between atoms: C_2  and  C_17 
REMARK    3  A    between atoms: N_3  and  C_6 
REMARK    4  A    between atoms: C_6  and  C_7 
REMARK    5  A    between atoms: C_7  and  O_8 
REMARK    6  A    between atoms: C_7  and  C_9 
REMARK    7  A    between atoms: C_11  and  O_12 
REMARK    8  A    between atoms: C_17  and  C_18 
ROOT
HETATM    1  N   UNL     1      -5.294   2.444 -31.278  1.00  0.00    -0.068 N 
HETATM    2  H   UNL     1      -5.868   2.969 -30.584  1.00  0.00     0.277 HD
HETATM    3  H   UNL     1      -4.525   2.049 -30.708  1.00  0.00     0.277 HD
ENDROOT
BRANCH   1   4
HETATM    4  C   UNL     1      -6.184   1.395 -31.885  1.00  0.00     0.188 C 
HETATM    5  C   UNL     1      -7.640   1.826 -31.752  1.00  0.00     0.040 C 
BRANCH   4   6
HETATM    6  C   UNL     1      -5.814   1.183 -33.369  1.00  0.00     0.099 C 
BRANCH   6   7
HETATM    7  C   UNL     1      -5.607  -0.270 -33.684  1.00  0.00     0.078 A 
HETATM    8  S   UNL     1      -4.099  -1.022 -33.393  1.00  0.00    -0.073 SA
HETATM    9  C   UNL     1      -4.739  -2.521 -33.944  1.00  0.00     0.035 A 
HETATM   10  C   UNL     1      -6.074  -2.338 -34.314  1.00  0.00     0.074 A 
HETATM   11  C   UNL     1      -4.106  -3.771 -34.040  1.00  0.00     0.021 A 
HETATM   12  N   UNL     1      -6.563  -1.044 -34.161  1.00  0.00    -0.245 NA
HETATM   13  C   UNL     1      -6.801  -3.445 -34.798  1.00  0.00     0.033 A 
HETATM   14  C   UNL     1      -6.179  -4.694 -34.898  1.00  0.00     0.002 A 
HETATM   15  C   UNL     1      -4.848  -4.852 -34.523  1.00  0.00     0.002 A 
ENDBRANCH   6   7
ENDBRANCH   4   6
ENDBRANCH   1   4
BRANCH   1  16
HETATM   16  C   UNL     1      -4.669   3.456 -32.198  1.00  0.00     0.269 C 
BRANCH  16  17
HETATM   17  C   UNL     1      -3.441   4.054 -31.482  1.00  0.00     0.177 C 
BRANCH  17  18
HETATM   18  O   UNL     1      -2.571   2.965 -31.131  1.00  0.00    -0.389 OA
HETATM   19  H   UNL     1      -3.033   2.450 -30.438  1.00  0.00     0.210 HD
ENDBRANCH  17  18
BRANCH  17  20
HETATM   20  C   UNL     1      -2.733   5.077 -32.333  1.00  0.00    -0.025 A 
HETATM   21  C   UNL     1      -2.683   6.434 -31.958  1.00  0.00     0.046 A 
HETATM   22  C   UNL     1      -1.997   7.365 -32.741  1.00  0.00     0.068 A 
HETATM   23  C   UNL     1      -1.338   6.936 -33.893  1.00  0.00     0.037 A 
HETATM   24  C   UNL     1      -1.375   5.597 -34.275  1.00  0.00     0.003 A 
HETATM   25  C   UNL     1      -2.069   4.670 -33.499  1.00  0.00     0.010 A 
BRANCH  22  26
HETATM   26  O   UNL     1      -1.883   8.702 -32.483  1.00  0.00    -0.356 OA
HETATM   27  C   UNL     1      -2.345   9.166 -31.221  1.00  0.00     0.210 C 
ENDBRANCH  22  26
ENDBRANCH  17  20
ENDBRANCH  16  17
ENDBRANCH   1  16
TORSDOF 8
ENDMDL
MODEL 4
REMARK VINA RESULT:      -7.7      3.013      8.526
REMARK  8 active torsions:
REMARK  status: ('A' for Active; 'I' for Inactive)
REMARK    1  A    between atoms: C_2  and  N_3 
REMARK    2  A    between atoms: C_2  and  C_17 
REMARK    3  A    between atoms: N_3  and  C_6 
REMARK    4  A    between atoms: C_6  and  C_7 
REMARK    5  A    between atoms: C_7  and  O_8 
REMARK    6  A    between atoms: C_7  and  C_9 
REMARK    7  A    between atoms: C_11  and  O_12 
REMARK    8  A    between atoms: C_17  and  C_18 
ROOT
HETATM    1  N   UNL     1      -4.338   1.819 -30.747  1.00  0.00    -0.068 N 
HETATM    2  H   UNL     1      -3.347   2.049 -30.974  1.00  0.00     0.277 HD
HETATM    3  H   UNL     1      -4.396   1.976 -29.725  1.00  0.00     0.277 HD
ENDROOT
BRANCH   1   4
HETATM    4  C   UNL     1      -5.204   2.755 -31.543  1.00  0.00     0.188 C 
HETATM    5  C   UNL     1      -5.600   3.943 -30.673  1.00  0.00     0.040 C 
BRANCH   4   6
HETATM    6  C   UNL     1      -4.447   3.234 -32.802  1.00  0.00     0.099 C 
BRANCH   6   7
HETATM    7  C   UNL     1      -3.304   4.140 -32.447  1.00  0.00     0.078 A 
HETATM    8  S   UNL     1      -3.210   5.722 -33.089  1.00  0.00    -0.073 SA
HETATM    9  C   UNL     1      -1.766   6.000 -32.195  1.00  0.00     0.035 A 
HETATM   10  C   UNL     1      -1.457   4.852 -31.461  1.00  0.00     0.074 A 
HETATM   11  C   UNL     1      -0.965   7.152 -32.145  1.00  0.00     0.021 A 
HETATM   12  N   UNL     1      -2.345   3.790 -31.612  1.00  0.00    -0.245 NA
HETATM   13  C   UNL     1      -0.304   4.857 -30.648  1.00  0.00     0.033 A 
HETATM   14  C   UNL     1       0.500   6.000 -30.592  1.00  0.00     0.002 A 
HETATM   15  C   UNL     1       0.171   7.132 -31.332  1.00  0.00     0.002 A 
ENDBRANCH   6   7
ENDBRANCH   4   6
ENDBRANCH   1   4
BRANCH   1  16
HETATM   16  C   UNL     1      -4.514   0.341 -30.964  1.00  0.00     0.269 C 
BRANCH  16  17
HETATM   17  C   UNL     1      -3.313  -0.163 -31.790  1.00  0.00     0.177 C 
BRANCH  17  18
HETATM   18  O   UNL     1      -2.175  -0.214 -30.913  1.00  0.00    -0.389 OA
HETATM   19  H   UNL     1      -1.644   0.589 -31.097  1.00  0.00     0.210 HD
ENDBRANCH  17  18
BRANCH  17  20
HETATM   20  C   UNL     1      -3.585  -1.505 -32.422  1.00  0.00    -0.025 A 
HETATM   21  C   UNL     1      -4.368  -1.620 -33.588  1.00  0.00     0.046 A 
HETATM   22  C   UNL     1      -4.586  -2.866 -34.179  1.00  0.00     0.068 A 
HETATM   23  C   UNL     1      -4.002  -4.001 -33.617  1.00  0.00     0.037 A 
HETATM   24  C   UNL     1      -3.222  -3.903 -32.466  1.00  0.00     0.003 A 
HETATM   25  C   UNL     1      -3.014  -2.661 -31.871  1.00  0.00     0.010 A 
BRANCH  22  26
HETATM   26  O   UNL     1      -5.326  -3.102 -35.303  1.00  0.00    -0.356 OA
HETATM   27  C   UNL     1      -6.131  -4.274 -35.322  1.00  0.00     0.210 C 
ENDBRANCH  22  26
ENDBRANCH  17  20
ENDBRANCH  16  17
ENDBRANCH   1  16
TORSDOF 8
ENDMDL
MODEL 5
REMARK VINA RESULT:      -7.6      4.846      7.035
REMARK  8 active torsions:
REMARK  status: ('A' for Active; 'I' for Inactive)
REMARK    1  A    between atoms: C_2  and  N_3 
REMARK    2  A    between atoms: C_2  and  C_17 
REMARK    3  A    between atoms: N_3  and  C_6 
REMARK    4  A    between atoms: C_6  and  C_7 
REMARK    5  A    between atoms: C_7  and  O_8 
REMARK    6  A    between atoms: C_7  and  C_9 
REMARK    7  A    between atoms: C_11  and  O_12 
REMARK    8  A    between atoms: C_17  and  C_18 
ROOT
HETATM    1  N   UNL     1      -7.870   0.480 -31.902  1.00  0.00    -0.068 N 
HETATM    2  H   UNL     1      -7.776  -0.126 -32.744  1.00  0.00     0.277 HD
HETATM    3  H   UNL     1      -8.045  -0.194 -31.136  1.00  0.00     0.277 HD
ENDROOT
BRANCH   1   4
HETATM    4  C   UNL     1      -6.576   1.231 -31.750  1.00  0.00     0.188 C 
HETATM    5  C   UNL     1      -5.799   0.667 -30.566  1.00  0.00     0.040 C 
BRANCH   4   6
HETATM    6  C   UNL     1      -5.745   1.119 -33.048  1.00  0.00     0.099 C 
BRANCH   6   7
HETATM    7  C   UNL     1      -5.573  -0.311 -33.471  1.00  0.00     0.078 A 
HETATM    8  S   UNL     1      -4.075  -1.109 -33.268  1.00  0.00    -0.073 SA
HETATM    9  C   UNL     1      -4.756  -2.553 -33.912  1.00  0.00     0.035 A 
HETATM   10  C   UNL     1      -6.095  -2.319 -34.238  1.00  0.00     0.074 A 
HETATM   11  C   UNL     1      -4.150  -3.804 -34.112  1.00  0.00     0.021 A 
HETATM   12  N   UNL     1      -6.555  -1.030 -33.981  1.00  0.00    -0.245 NA
HETATM   13  C   UNL     1      -6.853  -3.374 -34.785  1.00  0.00     0.033 A 
HETATM   14  C   UNL     1      -6.258  -4.624 -34.989  1.00  0.00     0.002 A 
HETATM   15  C   UNL     1      -4.924  -4.833 -34.655  1.00  0.00     0.002 A 
ENDBRANCH   6   7
ENDBRANCH   4   6
ENDBRANCH   1   4
BRANCH   1  16
HETATM   16  C   UNL     1      -9.133   1.280 -32.066  1.00  0.00     0.269 C 
BRANCH  16  17
HETATM   17  C   UNL     1      -9.883   0.734 -33.298  1.00  0.00     0.177 C 
BRANCH  17  18
HETATM   18  O   UNL     1     -10.871  -0.198 -32.826  1.00  0.00    -0.389 OA
HETATM   19  H   UNL     1     -11.640   0.334 -32.534  1.00  0.00     0.210 HD
ENDBRANCH  17  18
BRANCH  17  20
HETATM   20  C   UNL     1     -10.509   1.836 -34.114  1.00  0.00    -0.025 A 
HETATM   21  C   UNL     1      -9.839   3.057 -34.331  1.00  0.00     0.046 A 
HETATM   22  C   UNL     1     -10.418   4.059 -35.114  1.00  0.00     0.068 A 
HETATM   23  C   UNL     1     -11.662   3.832 -35.703  1.00  0.00     0.037 A 
HETATM   24  C   UNL     1     -12.334   2.628 -35.502  1.00  0.00     0.003 A 
HETATM   25  C   UNL     1     -11.761   1.635 -34.711  1.00  0.00     0.010 A 
BRANCH  22  26
HETATM   26  O   UNL     1      -9.870   5.278 -35.391  1.00  0.00    -0.356 OA
HETATM   27  C   UNL     1     -10.746   6.398 -35.424  1.00  0.00     0.210 C 
ENDBRANCH  22  26
ENDBRANCH  17  20
ENDBRANCH  16  17
ENDBRANCH   1  16
TORSDOF 8
ENDMDL
MODEL 6
REMARK VINA RESULT:      -7.5      3.360      6.830
REMARK  8 active torsions:
REMARK  status: ('A' for Active; 'I' for Inactive)
REMARK    1  A    between atoms: C_2  and  N_3 
REMARK    2  A    between atoms: C_2  and  C_17 
REMARK    3  A    between atoms: N_3  and  C_6 
REMARK    4  A    between atoms: C_6  and  C_7 
REMARK    5  A    between atoms: C_7  and  O_8 
REMARK    6  A    between atoms: C_7  and  C_9 
REMARK    7  A    between atoms: C_11  and  O_12 
REMARK    8  A    between atoms: C_17  and  C_18 
ROOT
HETATM    1  N   UNL     1      -4.746   2.081 -31.019  1.00  0.00    -0.068 N 
HETATM    2  H   UNL     1      -4.313   1.488 -30.281  1.00  0.00     0.277 HD
HETATM    3  H   UNL     1      -5.703   1.696 -31.110  1.00  0.00     0.277 HD
ENDROOT
BRANCH   1   4
HETATM    4  C   UNL     1      -4.721   3.499 -30.520  1.00  0.00     0.188 C 
HETATM    5  C   UNL     1      -3.986   4.378 -31.525  1.00  0.00     0.040 C 
BRANCH   4   6
HETATM    6  C   UNL     1      -6.163   4.009 -30.305  1.00  0.00     0.099 C 
BRANCH   6   7
HETATM    7  C   UNL     1      -7.141   3.282 -31.179  1.00  0.00     0.078 A 
HETATM    8  S   UNL     1      -7.608   3.924 -32.693  1.00  0.00    -0.073 SA
HETATM    9  C   UNL     1      -8.600   2.546 -32.974  1.00  0.00     0.035 A 
HETATM   10  C   UNL     1      -8.501   1.683 -31.879  1.00  0.00     0.074 A 
HETATM   11  C   UNL     1      -9.405   2.248 -34.085  1.00  0.00     0.021 A 
HETATM   12  N   UNL     1      -7.662   2.114 -30.855  1.00  0.00    -0.245 NA
HETATM   13  C   UNL     1      -9.236   0.480 -31.896  1.00  0.00     0.033 A 
HETATM   14  C   UNL     1     -10.042   0.175 -32.998  1.00  0.00     0.002 A 
HETATM   15  C   UNL     1     -10.123   1.049 -34.077  1.00  0.00     0.002 A 
ENDBRANCH   6   7
ENDBRANCH   4   6
ENDBRANCH   1   4
BRANCH   1  16
HETATM   16  C   UNL     1      -4.037   1.777 -32.310  1.00  0.00     0.269 C 
BRANCH  16  17
HETATM   17  C   UNL     1      -3.737   0.264 -32.341  1.00  0.00     0.177 C 
BRANCH  17  18
HETATM   18  O   UNL     1      -3.803  -0.219 -30.988  1.00  0.00    -0.389 OA
HETATM   19  H   UNL     1      -4.663   0.080 -30.627  1.00  0.00     0.210 HD
ENDBRANCH  17  18
BRANCH  17  20
HETATM   20  C   UNL     1      -4.688  -0.483 -33.242  1.00  0.00    -0.025 A 
HETATM   21  C   UNL     1      -4.498  -1.848 -33.537  1.00  0.00     0.046 A 
HETATM   22  C   UNL     1      -5.403  -2.534 -34.349  1.00  0.00     0.068 A 
HETATM   23  C   UNL     1      -6.516  -1.860 -34.852  1.00  0.00     0.037 A 
HETATM   24  C   UNL     1      -6.720  -0.512 -34.567  1.00  0.00     0.003 A 
HETATM   25  C   UNL     1      -5.810   0.175 -33.766  1.00  0.00     0.010 A 
BRANCH  22  26
HETATM   26  O   UNL     1      -5.324  -3.850 -34.705  1.00  0.00    -0.356 OA
HETATM   27  C   UNL     1      -6.511  -4.472 -35.182  1.00  0.00     0.210 C 
ENDBRANCH  22  26
ENDBRANCH  17  20
ENDBRANCH  16  17
ENDBRANCH   1  16
TORSDOF 8
ENDMDL
MODEL 7
REMARK VINA RESULT:      -7.5      4.844      7.588
REMARK  8 active torsions:
REMARK  status: ('A' for Active; 'I' for Inactive)
REMARK    1  A    between atoms: C_2  and  N_3 
REMARK    2  A    between atoms: C_2  and  C_17 
REMARK    3  A    between atoms: N_3  and  C_6 
REMARK    4  A    between atoms: C_6  and  C_7 
REMARK    5  A    between atoms: C_7  and  O_8 
REMARK    6  A    between atoms: C_7  and  C_9 
REMARK    7  A    between atoms: C_11  and  O_12 
REMARK    8  A    between atoms: C_17  and  C_18 
ROOT
HETATM    1  N   UNL     1      -7.890   1.405 -32.076  1.00  0.00    -0.068 N 
HETATM    2  H   UNL     1      -8.174   0.449 -32.378  1.00  0.00     0.277 HD
HETATM    3  H   UNL     1      -8.513   1.601 -31.273  1.00  0.00     0.277 HD
ENDROOT
BRANCH   1   4
HETATM    4  C   UNL     1      -6.436   1.334 -31.698  1.00  0.00     0.188 C 
HETATM    5  C   UNL     1      -6.213   0.154 -30.759  1.00  0.00     0.040 C 
BRANCH   4   6
HETATM    6  C   UNL     1      -5.566   1.190 -32.966  1.00  0.00     0.099 C 
BRANCH   6   7
HETATM    7  C   UNL     1      -5.474  -0.240 -33.412  1.00  0.00     0.078 A 
HETATM    8  S   UNL     1      -3.995  -1.092 -33.318  1.00  0.00    -0.073 SA
HETATM    9  C   UNL     1      -4.768  -2.504 -33.927  1.00  0.00     0.035 A 
HETATM   10  C   UNL     1      -6.116  -2.220 -34.160  1.00  0.00     0.074 A 
HETATM   11  C   UNL     1      -4.222  -3.773 -34.178  1.00  0.00     0.021 A 
HETATM   12  N   UNL     1      -6.512  -0.919 -33.862  1.00  0.00    -0.245 NA
HETATM   13  C   UNL     1      -6.947  -3.242 -34.664  1.00  0.00     0.033 A 
HETATM   14  C   UNL     1      -6.412  -4.509 -34.918  1.00  0.00     0.002 A 
HETATM   15  C   UNL     1      -5.066  -4.768 -34.677  1.00  0.00     0.002 A 
ENDBRANCH   6   7
ENDBRANCH   4   6
ENDBRANCH   1   4
BRANCH   1  16
HETATM   16  C   UNL     1      -8.287   2.356 -33.171  1.00  0.00     0.269 C 
BRANCH  16  17
HETATM   17  C   UNL     1      -9.075   1.559 -34.229  1.00  0.00     0.177 C 
BRANCH  17  18
HETATM   18  O   UNL     1      -9.249   0.223 -33.726  1.00  0.00    -0.389 OA
HETATM   19  H   UNL     1      -8.458   0.025 -33.183  1.00  0.00     0.210 HD
ENDBRANCH  17  18
BRANCH  17  20
HETATM   20  C   UNL     1     -10.399   2.204 -34.553  1.00  0.00    -0.025 A 
HETATM   21  C   UNL     1     -11.584   1.445 -34.635  1.00  0.00     0.046 A 
HETATM   22  C   UNL     1     -12.807   2.060 -34.907  1.00  0.00     0.068 A 
HETATM   23  C   UNL     1     -12.853   3.444 -35.076  1.00  0.00     0.037 A 
HETATM   24  C   UNL     1     -11.691   4.209 -34.994  1.00  0.00     0.003 A 
HETATM   25  C   UNL     1     -10.469   3.592 -34.735  1.00  0.00     0.010 A 
BRANCH  22  26
HETATM   26  O   UNL     1     -14.016   1.432 -35.012  1.00  0.00    -0.356 OA
HETATM   27  C   UNL     1     -14.477   0.707 -33.880  1.00  0.00     0.210 C 
ENDBRANCH  22  26
ENDBRANCH  17  20
ENDBRANCH  16  17
ENDBRANCH   1  16
TORSDOF 8
ENDMDL
MODEL 8
REMARK VINA RESULT:      -7.5      2.660      4.345
REMARK  8 active torsions:
REMARK  status: ('A' for Active; 'I' for Inactive)
REMARK    1  A    between atoms: C_2  and  N_3 
REMARK    2  A    between atoms: C_2  and  C_17 
REMARK    3  A    between atoms: N_3  and  C_6 
REMARK    4  A    between atoms: C_6  and  C_7 
REMARK    5  A    between atoms: C_7  and  O_8 
REMARK    6  A    between atoms: C_7  and  C_9 
REMARK    7  A    between atoms: C_11  and  O_12 
REMARK    8  A    between atoms: C_17  and  C_18 
ROOT
HETATM    1  N   UNL     1      -8.220   0.448 -32.335  1.00  0.00    -0.068 N 
HETATM    2  H   UNL     1      -8.893  -0.177 -31.843  1.00  0.00     0.277 HD
HETATM    3  H   UNL     1      -7.298   0.033 -32.115  1.00  0.00     0.277 HD
ENDROOT
BRANCH   1   4
HETATM    4  C   UNL     1      -8.560   0.399 -33.799  1.00  0.00     0.188 C 
HETATM    5  C   UNL     1      -9.473   1.568 -34.147  1.00  0.00     0.040 C 
BRANCH   4   6
HETATM    6  C   UNL     1      -7.268   0.450 -34.644  1.00  0.00     0.099 C 
BRANCH   6   7
HETATM    7  C   UNL     1      -6.435  -0.784 -34.453  1.00  0.00     0.078 A 
HETATM    8  S   UNL     1      -4.962  -0.719 -33.587  1.00  0.00    -0.073 SA
HETATM    9  C   UNL     1      -4.755  -2.413 -33.811  1.00  0.00     0.035 A 
HETATM   10  C   UNL     1      -5.839  -2.912 -34.538  1.00  0.00     0.074 A 
HETATM   11  C   UNL     1      -3.709  -3.242 -33.372  1.00  0.00     0.021 A 
HETATM   12  N   UNL     1      -6.797  -1.970 -34.901  1.00  0.00    -0.245 NA
HETATM   13  C   UNL     1      -5.877  -4.290 -34.837  1.00  0.00     0.033 A 
HETATM   14  C   UNL     1      -4.840  -5.123 -34.405  1.00  0.00     0.002 A 
HETATM   15  C   UNL     1      -3.772  -4.603 -33.682  1.00  0.00     0.002 A 
ENDBRANCH   6   7
ENDBRANCH   4   6
ENDBRANCH   1   4
BRANCH   1  16
HETATM   16  C   UNL     1      -8.265   1.784 -31.647  1.00  0.00     0.269 C 
BRANCH  16  17
HETATM   17  C   UNL     1      -7.007   1.904 -30.763  1.00  0.00     0.177 C 
BRANCH  17  18
HETATM   18  O   UNL     1      -6.708   0.593 -30.253  1.00  0.00    -0.389 OA
HETATM   19  H   UNL     1      -6.260   0.108 -30.976  1.00  0.00     0.210 HD
ENDBRANCH  17  18
BRANCH  17  20
HETATM   20  C   UNL     1      -5.838   2.483 -31.519  1.00  0.00    -0.025 A 
HETATM   21  C   UNL     1      -6.030   3.312 -32.642  1.00  0.00     0.046 A 
HETATM   22  C   UNL     1      -4.939   3.866 -33.315  1.00  0.00     0.068 A 
HETATM   23  C   UNL     1      -3.648   3.609 -32.850  1.00  0.00     0.037 A 
HETATM   24  C   UNL     1      -3.442   2.794 -31.739  1.00  0.00     0.003 A 
HETATM   25  C   UNL     1      -4.531   2.233 -31.076  1.00  0.00     0.010 A 
BRANCH  22  26
HETATM   26  O   UNL     1      -4.999   4.678 -34.411  1.00  0.00    -0.356 OA
HETATM   27  C   UNL     1      -3.782   5.253 -34.867  1.00  0.00     0.210 C 
ENDBRANCH  22  26
ENDBRANCH  17  20
ENDBRANCH  16  17
ENDBRANCH   1  16
TORSDOF 8
ENDMDL
MODEL 9
REMARK VINA RESULT:      -7.5      2.830      7.610
REMARK  8 active torsions:
REMARK  status: ('A' for Active; 'I' for Inactive)
REMARK    1  A    between atoms: C_2  and  N_3 
REMARK    2  A    between atoms: C_2  and  C_17 
REMARK    3  A    between atoms: N_3  and  C_6 
REMARK    4  A    between atoms: C_6  and  C_7 
REMARK    5  A    between atoms: C_7  and  O_8 
REMARK    6  A    between atoms: C_7  and  C_9 
REMARK    7  A    between atoms: C_11  and  O_12 
REMARK    8  A    between atoms: C_17  and  C_18 
ROOT
HETATM    1  N   UNL     1      -6.712   1.716 -31.730  1.00  0.00    -0.068 N 
HETATM    2  H   UNL     1      -7.568   2.254 -31.982  1.00  0.00     0.277 HD
HETATM    3  H   UNL     1      -5.967   2.171 -32.287  1.00  0.00     0.277 HD
ENDROOT
BRANCH   1   4
HETATM    4  C   UNL     1      -6.519   1.861 -30.246  1.00  0.00     0.188 C 
HETATM    5  C   UNL     1      -5.773   0.644 -29.711  1.00  0.00     0.040 C 
BRANCH   4   6
HETATM    6  C   UNL     1      -5.735   3.156 -29.940  1.00  0.00     0.099 C 
BRANCH   6   7
HETATM    7  C   UNL     1      -4.956   3.625 -31.133  1.00  0.00     0.078 A 
HETATM    8  S   UNL     1      -3.265   3.390 -31.221  1.00  0.00    -0.073 SA
HETATM    9  C   UNL     1      -3.244   4.116 -32.782  1.00  0.00     0.035 A 
HETATM   10  C   UNL     1      -4.546   4.488 -33.128  1.00  0.00     0.074 A 
HETATM   11  C   UNL     1      -2.155   4.337 -33.640  1.00  0.00     0.021 A 
HETATM   12  N   UNL     1      -5.521   4.202 -32.176  1.00  0.00    -0.245 NA
HETATM   13  C   UNL     1      -4.764   5.105 -34.377  1.00  0.00     0.033 A 
HETATM   14  C   UNL     1      -3.685   5.330 -35.239  1.00  0.00     0.002 A 
HETATM   15  C   UNL     1      -2.398   4.949 -34.872  1.00  0.00     0.002 A 
ENDBRANCH   6   7
ENDBRANCH   4   6
ENDBRANCH   1   4
BRANCH   1  16
HETATM   16  C   UNL     1      -6.876   0.328 -32.286  1.00  0.00     0.269 C 
BRANCH  16  17
HETATM   17  C   UNL     1      -5.893   0.170 -33.464  1.00  0.00     0.177 C 
BRANCH  17  18
HETATM   18  O   UNL     1      -4.606   0.634 -33.020  1.00  0.00    -0.389 OA
HETATM   19  H   UNL     1      -4.580   1.597 -33.198  1.00  0.00     0.210 HD
ENDBRANCH  17  18
BRANCH  17  20
HETATM   20  C   UNL     1      -5.827  -1.252 -33.959  1.00  0.00    -0.025 A 
HETATM   21  C   UNL     1      -4.628  -1.992 -33.906  1.00  0.00     0.046 A 
HETATM   22  C   UNL     1      -4.590  -3.318 -34.341  1.00  0.00     0.068 A 
HETATM   23  C   UNL     1      -5.758  -3.918 -34.810  1.00  0.00     0.037 A 
HETATM   24  C   UNL     1      -6.952  -3.201 -34.865  1.00  0.00     0.003 A 
HETATM   25  C   UNL     1      -6.987  -1.874 -34.442  1.00  0.00     0.010 A 
BRANCH  22  26
HETATM   26  O   UNL     1      -3.492  -4.131 -34.341  1.00  0.00    -0.356 OA
HETATM   27  C   UNL     1      -3.312  -4.988 -33.220  1.00  0.00     0.210 C 
ENDBRANCH  22  26
ENDBRANCH  17  20
ENDBRANCH  16  17
ENDBRANCH   1  16
TORSDOF 8
ENDMDL
MODEL 10
REMARK VINA RESULT:      -7.4      2.811      7.167
REMARK  8 active torsions:
REMARK  status: ('A' for Active; 'I' for Inactive)
REMARK    1  A    between atoms: C_2  and  N_3 
REMARK    2  A    between atoms: C_2  and  C_17 
REMARK    3  A    between atoms: N_3  and  C_6 
REMARK    4  A    between atoms: C_6  and  C_7 
REMARK    5  A    between atoms: C_7  and  O_8 
REMARK    6  A    between atoms: C_7  and  C_9 
REMARK    7  A    between atoms: C_11  and  O_12 
REMARK    8  A    between atoms: C_17  and  C_18 
ROOT
HETATM    1  N   UNL     1      -7.728   2.136 -33.817  1.00  0.00    -0.068 N 
HETATM    2  H   UNL     1      -7.941   1.908 -34.811  1.00  0.00     0.277 HD
HETATM    3  H   UNL     1      -6.724   2.384 -33.834  1.00  0.00     0.277 HD
ENDROOT
BRANCH   1   4
HETATM    4  C   UNL     1      -8.618   3.285 -33.427  1.00  0.00     0.188 C 
HETATM    5  C   UNL     1      -9.898   2.745 -32.801  1.00  0.00     0.040 C 
BRANCH   4   6
HETATM    6  C   UNL     1      -7.879   4.213 -32.437  1.00  0.00     0.099 C 
BRANCH   6   7
HETATM    7  C   UNL     1      -6.433   4.371 -32.804  1.00  0.00     0.078 A 
HETATM    8  S   UNL     1      -5.199   3.892 -31.722  1.00  0.00    -0.073 SA
HETATM    9  C   UNL     1      -4.007   4.348 -32.877  1.00  0.00     0.035 A 
HETATM   10  C   UNL     1      -4.645   4.837 -34.020  1.00  0.00     0.074 A 
HETATM   11  C   UNL     1      -2.608   4.275 -32.781  1.00  0.00     0.021 A 
HETATM   12  N   UNL     1      -6.037   4.847 -33.969  1.00  0.00    -0.245 NA
HETATM   13  C   UNL     1      -3.854   5.270 -35.104  1.00  0.00     0.033 A 
HETATM   14  C   UNL     1      -2.460   5.202 -35.017  1.00  0.00     0.002 A 
HETATM   15  C   UNL     1      -1.848   4.710 -33.869  1.00  0.00     0.002 A 
ENDBRANCH   6   7
ENDBRANCH   4   6
ENDBRANCH   1   4
BRANCH   1  16
HETATM   16  C   UNL     1      -7.842   0.860 -33.030  1.00  0.00     0.269 C 
BRANCH  16  17
HETATM   17  C   UNL     1      -7.920  -0.309 -34.032  1.00  0.00     0.177 C 
BRANCH  17  18
HETATM   18  O   UNL     1      -8.158   0.251 -35.335  1.00  0.00    -0.389 OA
HETATM   19  H   UNL     1      -7.280   0.458 -35.715  1.00  0.00     0.210 HD
ENDBRANCH  17  18
BRANCH  17  20
HETATM   20  C   UNL     1      -6.671  -1.154 -34.014  1.00  0.00    -0.025 A 
HETATM   21  C   UNL     1      -5.500  -0.717 -33.364  1.00  0.00     0.046 A 
HETATM   22  C   UNL     1      -4.360  -1.523 -33.329  1.00  0.00     0.068 A 
HETATM   23  C   UNL     1      -4.396  -2.783 -33.927  1.00  0.00     0.037 A 
HETATM   24  C   UNL     1      -5.548  -3.231 -34.570  1.00  0.00     0.003 A 
HETATM   25  C   UNL     1      -6.681  -2.421 -34.614  1.00  0.00     0.010 A 
BRANCH  22  26
HETATM   26  O   UNL     1      -3.171  -1.207 -32.735  1.00  0.00    -0.356 OA
HETATM   27  C   UNL     1      -3.125  -0.018 -31.956  1.00  0.00     0.210 C 
ENDBRANCH  22  26
ENDBRANCH  17  20
ENDBRANCH  16  17
ENDBRANCH   1  16
TORSDOF 8
ENDMDL
