MODEL 1
REMARK VINA RESULT:      -7.7      0.000      0.000
REMARK  3 active torsions:
REMARK  status: ('A' for Active; 'I' for Inactive)
REMARK    1  A    between atoms: C_9  and  C_10 
REMARK    2  A    between atoms: C_16  and  C_17 
REMARK       I    between atoms: C_17  and  N_18 
REMARK    3  A    between atoms: N_18  and  C_19 
ROOT
HETATM    1  C   UNL     1      -3.692   2.045 -32.335  1.00  0.00     0.070 C 
HETATM    2  C   UNL     1      -5.103   2.404 -31.939  1.00  0.00     0.037 C 
HETATM    3  N   UNL     1      -5.305   3.739 -31.598  1.00  0.00    -0.192 N 
HETATM    4  C   UNL     1      -6.396   4.164 -30.931  1.00  0.00     0.725 A 
HETATM    5  N   UNL     1      -7.448   3.309 -30.753  1.00  0.00    -0.084 N 
HETATM    6  N   UNL     1      -8.413   3.867 -29.992  1.00  0.00    -0.149 NA
HETATM    7  C   UNL     1      -7.888   5.080 -29.783  1.00  0.00     0.275 A 
HETATM    8  N   UNL     1      -6.658   5.305 -30.347  1.00  0.00    -0.054 NA
HETATM    9  C   UNL     1      -7.496   1.944 -31.290  1.00  0.00     0.202 C 
HETATM   10  C   UNL     1      -6.127   1.519 -31.821  1.00  0.00     0.062 C 
HETATM   11  H   UNL     1      -4.491   4.350 -31.599  1.00  0.00     0.184 HD
ENDROOT
BRANCH  10  12
HETATM   12  C   UNL     1      -5.999   0.053 -32.039  1.00  0.00     0.256 C 
HETATM   13  N   UNL     1      -6.064  -0.333 -33.358  1.00  0.00    -0.322 N 
HETATM   14  H   UNL     1      -6.264   0.382 -34.047  1.00  0.00     0.169 HD
HETATM   15  O   UNL     1      -5.893  -0.682 -31.066  1.00  0.00    -0.267 OA
BRANCH  13  16
HETATM   16  C   UNL     1      -5.819  -1.631 -33.861  1.00  0.00     0.052 A 
HETATM   17  C   UNL     1      -4.563  -2.220 -33.984  1.00  0.00     0.145 A 
HETATM   18  N   UNL     1      -4.348  -3.454 -34.512  1.00  0.00    -0.271 NA
HETATM   19  C   UNL     1      -5.431  -4.133 -34.939  1.00  0.00     0.116 A 
HETATM   20  C   UNL     1      -6.721  -3.640 -34.858  1.00  0.00     0.021 A 
HETATM   21  C   UNL     1      -6.914  -2.373 -34.308  1.00  0.00     0.032 A 
ENDBRANCH  13  16
ENDBRANCH  10  12
BRANCH   9  22
HETATM   22  C   UNL     1      -8.579   1.830 -32.358  1.00  0.00    -0.025 A 
HETATM   23  C   UNL     1      -8.694   2.753 -33.409  1.00  0.00     0.029 A 
HETATM   24  C   UNL     1      -9.705   2.581 -34.342  1.00  0.00     0.117 A 
HETATM   25  N   UNL     1     -10.583   1.559 -34.317  1.00  0.00    -0.273 NA
HETATM   26  C   UNL     1     -10.457   0.675 -33.306  1.00  0.00     0.117 A 
HETATM   27  C   UNL     1      -9.485   0.762 -32.321  1.00  0.00     0.029 A 
ENDBRANCH   9  22
TORSDOF 3
ENDMDL
MODEL 2
REMARK VINA RESULT:      -7.4      2.482      3.904
REMARK  3 active torsions:
REMARK  status: ('A' for Active; 'I' for Inactive)
REMARK    1  A    between atoms: C_9  and  C_10 
REMARK    2  A    between atoms: C_16  and  C_17 
REMARK       I    between atoms: C_17  and  N_18 
REMARK    3  A    between atoms: N_18  and  C_19 
ROOT
HETATM    1  C   UNL     1      -5.601   0.762 -29.789  1.00  0.00     0.070 C 
HETATM    2  C   UNL     1      -5.567   2.151 -30.376  1.00  0.00     0.037 C 
HETATM    3  N   UNL     1      -5.473   3.187 -29.450  1.00  0.00    -0.192 N 
HETATM    4  C   UNL     1      -5.743   4.471 -29.761  1.00  0.00     0.725 A 
HETATM    5  N   UNL     1      -5.920   4.820 -31.071  1.00  0.00    -0.084 N 
HETATM    6  N   UNL     1      -6.269   6.118 -31.191  1.00  0.00    -0.149 NA
HETATM    7  C   UNL     1      -6.241   6.498 -29.909  1.00  0.00     0.275 A 
HETATM    8  N   UNL     1      -5.917   5.522 -29.001  1.00  0.00    -0.054 NA
HETATM    9  C   UNL     1      -5.785   3.885 -32.194  1.00  0.00     0.202 C 
HETATM   10  C   UNL     1      -5.702   2.442 -31.696  1.00  0.00     0.062 C 
HETATM   11  H   UNL     1      -5.479   2.935 -28.464  1.00  0.00     0.184 HD
ENDROOT
BRANCH  10  12
HETATM   12  C   UNL     1      -5.932   1.428 -32.761  1.00  0.00     0.256 C 
HETATM   13  N   UNL     1      -5.196   0.275 -32.615  1.00  0.00    -0.322 N 
HETATM   14  H   UNL     1      -4.521   0.241 -31.861  1.00  0.00     0.169 HD
HETATM   15  O   UNL     1      -6.697   1.698 -33.677  1.00  0.00    -0.267 OA
BRANCH  13  16
HETATM   16  C   UNL     1      -5.330  -0.903 -33.384  1.00  0.00     0.052 A 
HETATM   17  C   UNL     1      -4.273  -1.669 -33.870  1.00  0.00     0.145 A 
HETATM   18  N   UNL     1      -4.426  -2.775 -34.645  1.00  0.00    -0.271 NA
HETATM   19  C   UNL     1      -5.687  -3.136 -34.951  1.00  0.00     0.116 A 
HETATM   20  C   UNL     1      -6.805  -2.448 -34.516  1.00  0.00     0.021 A 
HETATM   21  C   UNL     1      -6.620  -1.319 -33.718  1.00  0.00     0.032 A 
ENDBRANCH  13  16
ENDBRANCH  10  12
BRANCH   9  22
HETATM   22  C   UNL     1      -4.582   4.258 -33.056  1.00  0.00    -0.025 A 
HETATM   23  C   UNL     1      -3.264   3.994 -32.655  1.00  0.00     0.029 A 
HETATM   24  C   UNL     1      -2.224   4.362 -33.494  1.00  0.00     0.117 A 
HETATM   25  N   UNL     1      -2.400   4.947 -34.695  1.00  0.00    -0.273 NA
HETATM   26  C   UNL     1      -3.673   5.189 -35.072  1.00  0.00     0.117 A 
HETATM   27  C   UNL     1      -4.780   4.865 -34.303  1.00  0.00     0.029 A 
ENDBRANCH   9  22
TORSDOF 3
ENDMDL
MODEL 3
REMARK VINA RESULT:      -7.4      2.849      6.303
REMARK  3 active torsions:
REMARK  status: ('A' for Active; 'I' for Inactive)
REMARK    1  A    between atoms: C_9  and  C_10 
REMARK    2  A    between atoms: C_16  and  C_17 
REMARK       I    between atoms: C_17  and  N_18 
REMARK    3  A    between atoms: N_18  and  C_19 
ROOT
HETATM    1  C   UNL     1      -2.997   0.421 -31.173  1.00  0.00     0.070 C 
HETATM    2  C   UNL     1      -4.225   0.668 -32.015  1.00  0.00     0.037 C 
HETATM    3  N   UNL     1      -4.883  -0.476 -32.457  1.00  0.00    -0.192 N 
HETATM    4  C   UNL     1      -5.788  -0.457 -33.456  1.00  0.00     0.725 A 
HETATM    5  N   UNL     1      -6.241   0.745 -33.927  1.00  0.00    -0.084 N 
HETATM    6  N   UNL     1      -7.069   0.580 -34.979  1.00  0.00    -0.149 NA
HETATM    7  C   UNL     1      -7.102  -0.755 -35.059  1.00  0.00     0.275 A 
HETATM    8  N   UNL     1      -6.337  -1.428 -34.140  1.00  0.00    -0.054 NA
HETATM    9  C   UNL     1      -5.839   2.045 -33.378  1.00  0.00     0.202 C 
HETATM   10  C   UNL     1      -4.659   1.890 -32.418  1.00  0.00     0.062 C 
HETATM   11  H   UNL     1      -4.469  -1.375 -32.220  1.00  0.00     0.184 HD
ENDROOT
BRANCH  10  12
HETATM   12  C   UNL     1      -3.967   3.172 -32.111  1.00  0.00     0.256 C 
HETATM   13  N   UNL     1      -3.074   3.580 -33.075  1.00  0.00    -0.322 N 
HETATM   14  H   UNL     1      -2.908   2.956 -33.855  1.00  0.00     0.169 HD
HETATM   15  O   UNL     1      -4.199   3.728 -31.046  1.00  0.00    -0.267 OA
BRANCH  13  16
HETATM   16  C   UNL     1      -2.401   4.822 -33.117  1.00  0.00     0.052 A 
HETATM   17  C   UNL     1      -2.673   5.852 -34.014  1.00  0.00     0.145 A 
HETATM   18  N   UNL     1      -1.982   7.022 -34.064  1.00  0.00    -0.271 NA
HETATM   19  C   UNL     1      -0.974   7.173 -33.183  1.00  0.00     0.116 A 
HETATM   20  C   UNL     1      -0.625   6.214 -32.249  1.00  0.00     0.021 A 
HETATM   21  C   UNL     1      -1.353   5.025 -32.216  1.00  0.00     0.032 A 
ENDBRANCH  13  16
ENDBRANCH  10  12
BRANCH   9  22
HETATM   22  C   UNL     1      -7.027   2.731 -32.710  1.00  0.00    -0.025 A 
HETATM   23  C   UNL     1      -7.657   2.199 -31.575  1.00  0.00     0.029 A 
HETATM   24  C   UNL     1      -8.730   2.881 -31.024  1.00  0.00     0.117 A 
HETATM   25  N   UNL     1      -9.201   4.050 -31.503  1.00  0.00    -0.273 NA
HETATM   26  C   UNL     1      -8.582   4.555 -32.590  1.00  0.00     0.117 A 
HETATM   27  C   UNL     1      -7.506   3.946 -33.217  1.00  0.00     0.029 A 
ENDBRANCH   9  22
TORSDOF 3
ENDMDL
MODEL 4
REMARK VINA RESULT:      -7.3      2.225      5.777
REMARK  3 active torsions:
REMARK  status: ('A' for Active; 'I' for Inactive)
REMARK    1  A    between atoms: C_9  and  C_10 
REMARK    2  A    between atoms: C_16  and  C_17 
REMARK       I    between atoms: C_17  and  N_18 
REMARK    3  A    between atoms: N_18  and  C_19 
ROOT
HETATM    1  C   UNL     1      -7.668   4.901 -34.031  1.00  0.00     0.070 C 
HETATM    2  C   UNL     1      -7.962   3.464 -33.675  1.00  0.00     0.037 C 
HETATM    3  N   UNL     1      -9.174   2.969 -34.150  1.00  0.00    -0.192 N 
HETATM    4  C   UNL     1      -9.736   1.839 -33.675  1.00  0.00     0.725 A 
HETATM    5  N   UNL     1      -9.013   1.028 -32.846  1.00  0.00    -0.084 N 
HETATM    6  N   UNL     1      -9.756  -0.006 -32.398  1.00  0.00    -0.149 NA
HETATM    7  C   UNL     1     -10.909   0.227 -33.036  1.00  0.00     0.275 A 
HETATM    8  N   UNL     1     -10.936   1.343 -33.834  1.00  0.00    -0.054 NA
HETATM    9  C   UNL     1      -7.619   1.279 -32.464  1.00  0.00     0.202 C 
HETATM   10  C   UNL     1      -7.184   2.684 -32.880  1.00  0.00     0.062 C 
HETATM   11  H   UNL     1      -9.778   3.615 -34.653  1.00  0.00     0.184 HD
ENDROOT
BRANCH  10  12
HETATM   12  C   UNL     1      -5.933   3.144 -32.217  1.00  0.00     0.256 C 
HETATM   13  N   UNL     1      -4.845   3.228 -33.055  1.00  0.00    -0.322 N 
HETATM   14  H   UNL     1      -4.960   2.907 -34.008  1.00  0.00     0.169 HD
HETATM   15  O   UNL     1      -5.950   3.365 -31.014  1.00  0.00    -0.267 OA
BRANCH  13  16
HETATM   16  C   UNL     1      -3.583   3.778 -32.732  1.00  0.00     0.052 A 
HETATM   17  C   UNL     1      -2.880   3.535 -31.555  1.00  0.00     0.145 A 
HETATM   18  N   UNL     1      -1.687   4.110 -31.246  1.00  0.00    -0.271 NA
HETATM   19  C   UNL     1      -1.172   4.967 -32.149  1.00  0.00     0.116 A 
HETATM   20  C   UNL     1      -1.788   5.274 -33.349  1.00  0.00     0.021 A 
HETATM   21  C   UNL     1      -3.008   4.666 -33.643  1.00  0.00     0.032 A 
ENDBRANCH  13  16
ENDBRANCH  10  12
BRANCH   9  22
HETATM   22  C   UNL     1      -6.705   0.206 -33.048  1.00  0.00    -0.025 A 
HETATM   23  C   UNL     1      -5.695  -0.409 -32.293  1.00  0.00     0.029 A 
HETATM   24  C   UNL     1      -4.906  -1.377 -32.895  1.00  0.00     0.117 A 
HETATM   25  N   UNL     1      -5.061  -1.786 -34.169  1.00  0.00    -0.273 NA
HETATM   26  C   UNL     1      -6.041  -1.192 -34.882  1.00  0.00     0.117 A 
HETATM   27  C   UNL     1      -6.879  -0.211 -34.374  1.00  0.00     0.029 A 
ENDBRANCH   9  22
TORSDOF 3
ENDMDL
MODEL 5
REMARK VINA RESULT:      -7.1      7.794     11.140
REMARK  3 active torsions:
REMARK  status: ('A' for Active; 'I' for Inactive)
REMARK    1  A    between atoms: C_9  and  C_10 
REMARK    2  A    between atoms: C_16  and  C_17 
REMARK       I    between atoms: C_17  and  N_18 
REMARK    3  A    between atoms: N_18  and  C_19 
ROOT
HETATM    1  C   UNL     1       1.005   4.609 -29.562  1.00  0.00     0.070 C 
HETATM    2  C   UNL     1       0.027   5.572 -30.188  1.00  0.00     0.037 C 
HETATM    3  N   UNL     1      -0.304   5.307 -31.515  1.00  0.00    -0.192 N 
HETATM    4  C   UNL     1      -0.898   6.216 -32.314  1.00  0.00     0.725 A 
HETATM    5  N   UNL     1      -1.387   7.370 -31.769  1.00  0.00    -0.084 N 
HETATM    6  N   UNL     1      -1.866   8.199 -32.719  1.00  0.00    -0.149 NA
HETATM    7  C   UNL     1      -1.670   7.455 -33.814  1.00  0.00     0.275 A 
HETATM    8  N   UNL     1      -1.086   6.231 -33.609  1.00  0.00    -0.054 NA
HETATM    9  C   UNL     1      -1.354   7.677 -30.334  1.00  0.00     0.202 C 
HETATM   10  C   UNL     1      -0.466   6.684 -29.584  1.00  0.00     0.062 C 
HETATM   11  H   UNL     1       0.165   4.525 -31.966  1.00  0.00     0.184 HD
ENDROOT
BRANCH  10  12
HETATM   12  C   UNL     1      -0.089   7.134 -28.216  1.00  0.00     0.256 C 
HETATM   13  N   UNL     1       0.827   8.161 -28.190  1.00  0.00    -0.322 N 
HETATM   14  H   UNL     1       1.216   8.467 -29.073  1.00  0.00     0.169 HD
HETATM   15  O   UNL     1      -0.568   6.555 -27.251  1.00  0.00    -0.267 OA
BRANCH  13  16
HETATM   16  C   UNL     1       1.240   8.881 -27.046  1.00  0.00     0.052 A 
HETATM   17  C   UNL     1       0.836  10.174 -26.721  1.00  0.00     0.145 A 
HETATM   18  N   UNL     1       1.281  10.863 -25.638  1.00  0.00    -0.271 NA
HETATM   19  C   UNL     1       2.171  10.239 -24.841  1.00  0.00     0.116 A 
HETATM   20  C   UNL     1       2.633   8.955 -25.072  1.00  0.00     0.021 A 
HETATM   21  C   UNL     1       2.156   8.269 -26.188  1.00  0.00     0.032 A 
ENDBRANCH  13  16
ENDBRANCH  10  12
BRANCH   9  22
HETATM   22  C   UNL     1      -2.769   7.716 -29.764  1.00  0.00    -0.025 A 
HETATM   23  C   UNL     1      -3.633   6.614 -29.834  1.00  0.00     0.029 A 
HETATM   24  C   UNL     1      -4.905   6.726 -29.293  1.00  0.00     0.117 A 
HETATM   25  N   UNL     1      -5.363   7.834 -28.677  1.00  0.00    -0.273 NA
HETATM   26  C   UNL     1      -4.518   8.884 -28.610  1.00  0.00     0.117 A 
HETATM   27  C   UNL     1      -3.232   8.874 -29.126  1.00  0.00     0.029 A 
ENDBRANCH   9  22
TORSDOF 3
ENDMDL
MODEL 6
REMARK VINA RESULT:      -6.8      2.196      5.641
REMARK  3 active torsions:
REMARK  status: ('A' for Active; 'I' for Inactive)
REMARK    1  A    between atoms: C_9  and  C_10 
REMARK    2  A    between atoms: C_16  and  C_17 
REMARK       I    between atoms: C_17  and  N_18 
REMARK    3  A    between atoms: N_18  and  C_19 
ROOT
HETATM    1  C   UNL     1      -6.317   4.778 -29.308  1.00  0.00     0.070 C 
HETATM    2  C   UNL     1      -5.365   4.244 -30.350  1.00  0.00     0.037 C 
HETATM    3  N   UNL     1      -4.103   4.831 -30.360  1.00  0.00    -0.192 N 
HETATM    4  C   UNL     1      -3.250   4.710 -31.397  1.00  0.00     0.725 A 
HETATM    5  N   UNL     1      -3.531   3.818 -32.394  1.00  0.00    -0.084 N 
HETATM    6  N   UNL     1      -2.623   3.891 -33.390  1.00  0.00    -0.149 NA
HETATM    7  C   UNL     1      -1.798   4.824 -32.900  1.00  0.00     0.275 A 
HETATM    8  N   UNL     1      -2.142   5.346 -31.679  1.00  0.00    -0.054 NA
HETATM    9  C   UNL     1      -4.697   2.927 -32.394  1.00  0.00     0.202 C 
HETATM   10  C   UNL     1      -5.683   3.320 -31.293  1.00  0.00     0.062 C 
HETATM   11  H   UNL     1      -3.936   5.593 -29.706  1.00  0.00     0.184 HD
ENDROOT
BRANCH  10  12
HETATM   12  C   UNL     1      -7.033   2.715 -31.457  1.00  0.00     0.256 C 
HETATM   13  N   UNL     1      -7.806   3.309 -32.428  1.00  0.00    -0.322 N 
HETATM   14  H   UNL     1      -7.435   4.132 -32.885  1.00  0.00     0.169 HD
HETATM   15  O   UNL     1      -7.362   1.797 -30.718  1.00  0.00    -0.267 OA
BRANCH  13  16
HETATM   16  C   UNL     1      -9.056   2.846 -32.898  1.00  0.00     0.052 A 
HETATM   17  C   UNL     1      -9.235   1.856 -33.861  1.00  0.00     0.145 A 
HETATM   18  N   UNL     1     -10.447   1.457 -34.329  1.00  0.00    -0.271 NA
HETATM   19  C   UNL     1     -11.531   2.072 -33.817  1.00  0.00     0.116 A 
HETATM   20  C   UNL     1     -11.463   3.063 -32.855  1.00  0.00     0.021 A 
HETATM   21  C   UNL     1     -10.207   3.450 -32.388  1.00  0.00     0.032 A 
ENDBRANCH  13  16
ENDBRANCH  10  12
BRANCH   9  22
HETATM   22  C   UNL     1      -4.255   1.472 -32.266  1.00  0.00    -0.025 A 
HETATM   23  C   UNL     1      -3.326   1.054 -31.302  1.00  0.00     0.029 A 
HETATM   24  C   UNL     1      -2.975  -0.286 -31.248  1.00  0.00     0.117 A 
HETATM   25  N   UNL     1      -3.491  -1.230 -32.060  1.00  0.00    -0.273 NA
HETATM   26  C   UNL     1      -4.388  -0.816 -32.979  1.00  0.00     0.117 A 
HETATM   27  C   UNL     1      -4.799   0.501 -33.117  1.00  0.00     0.029 A 
ENDBRANCH   9  22
TORSDOF 3
ENDMDL
MODEL 7
REMARK VINA RESULT:      -6.8      4.842      8.766
REMARK  3 active torsions:
REMARK  status: ('A' for Active; 'I' for Inactive)
REMARK    1  A    between atoms: C_9  and  C_10 
REMARK    2  A    between atoms: C_16  and  C_17 
REMARK       I    between atoms: C_17  and  N_18 
REMARK    3  A    between atoms: N_18  and  C_19 
ROOT
HETATM    1  C   UNL     1      -6.313   6.411 -29.456  1.00  0.00     0.070 C 
HETATM    2  C   UNL     1      -5.524   5.387 -30.234  1.00  0.00     0.037 C 
HETATM    3  N   UNL     1      -6.211   4.217 -30.547  1.00  0.00    -0.192 N 
HETATM    4  C   UNL     1      -5.589   3.091 -30.948  1.00  0.00     0.725 A 
HETATM    5  N   UNL     1      -4.260   3.135 -31.262  1.00  0.00    -0.084 N 
HETATM    6  N   UNL     1      -3.782   1.908 -31.556  1.00  0.00    -0.149 NA
HETATM    7  C   UNL     1      -4.897   1.177 -31.439  1.00  0.00     0.275 A 
HETATM    8  N   UNL     1      -6.027   1.865 -31.076  1.00  0.00    -0.054 NA
HETATM    9  C   UNL     1      -3.452   4.360 -31.239  1.00  0.00     0.202 C 
HETATM   10  C   UNL     1      -4.211   5.501 -30.561  1.00  0.00     0.062 C 
HETATM   11  H   UNL     1      -7.162   4.125 -30.196  1.00  0.00     0.184 HD
ENDROOT
BRANCH  10  12
HETATM   12  C   UNL     1      -3.344   6.647 -30.173  1.00  0.00     0.256 C 
HETATM   13  N   UNL     1      -2.577   6.425 -29.052  1.00  0.00    -0.322 N 
HETATM   14  H   UNL     1      -2.717   5.555 -28.553  1.00  0.00     0.169 HD
HETATM   15  O   UNL     1      -3.404   7.681 -30.826  1.00  0.00    -0.267 OA
BRANCH  13  16
HETATM   16  C   UNL     1      -1.561   7.272 -28.555  1.00  0.00     0.052 A 
HETATM   17  C   UNL     1      -1.762   8.339 -27.683  1.00  0.00     0.145 A 
HETATM   18  N   UNL     1      -0.774   9.168 -27.252  1.00  0.00    -0.271 NA
HETATM   19  C   UNL     1       0.470   8.925 -27.710  1.00  0.00     0.116 A 
HETATM   20  C   UNL     1       0.776   7.889 -28.574  1.00  0.00     0.021 A 
HETATM   21  C   UNL     1      -0.255   7.051 -28.997  1.00  0.00     0.032 A 
ENDBRANCH  13  16
ENDBRANCH  10  12
BRANCH   9  22
HETATM   22  C   UNL     1      -3.010   4.733 -32.651  1.00  0.00    -0.025 A 
HETATM   23  C   UNL     1      -3.926   4.918 -33.697  1.00  0.00     0.029 A 
HETATM   24  C   UNL     1      -3.447   5.257 -34.953  1.00  0.00     0.117 A 
HETATM   25  N   UNL     1      -2.142   5.444 -35.233  1.00  0.00    -0.273 NA
HETATM   26  C   UNL     1      -1.272   5.271 -34.216  1.00  0.00     0.117 A 
HETATM   27  C   UNL     1      -1.650   4.926 -32.928  1.00  0.00     0.029 A 
ENDBRANCH   9  22
TORSDOF 3
ENDMDL
MODEL 8
REMARK VINA RESULT:      -6.8      5.340      8.988
REMARK  3 active torsions:
REMARK  status: ('A' for Active; 'I' for Inactive)
REMARK    1  A    between atoms: C_9  and  C_10 
REMARK    2  A    between atoms: C_16  and  C_17 
REMARK       I    between atoms: C_17  and  N_18 
REMARK    3  A    between atoms: N_18  and  C_19 
ROOT
HETATM    1  C   UNL     1       0.384   6.539 -31.157  1.00  0.00     0.070 C 
HETATM    2  C   UNL     1      -0.959   6.194 -31.754  1.00  0.00     0.037 C 
HETATM    3  N   UNL     1      -0.914   5.511 -32.966  1.00  0.00    -0.192 N 
HETATM    4  C   UNL     1      -1.981   5.403 -33.783  1.00  0.00     0.725 A 
HETATM    5  N   UNL     1      -3.211   5.794 -33.333  1.00  0.00    -0.084 N 
HETATM    6  N   UNL     1      -4.143   5.701 -34.304  1.00  0.00    -0.149 NA
HETATM    7  C   UNL     1      -3.405   5.205 -35.304  1.00  0.00     0.275 A 
HETATM    8  N   UNL     1      -2.078   5.001 -35.024  1.00  0.00    -0.054 NA
HETATM    9  C   UNL     1      -3.469   6.289 -31.975  1.00  0.00     0.202 C 
HETATM   10  C   UNL     1      -2.158   6.570 -31.239  1.00  0.00     0.062 C 
HETATM   11  H   UNL     1       0.003   5.338 -33.372  1.00  0.00     0.184 HD
ENDROOT
BRANCH  10  12
HETATM   12  C   UNL     1      -2.325   7.406 -30.020  1.00  0.00     0.256 C 
HETATM   13  N   UNL     1      -2.251   6.705 -28.838  1.00  0.00    -0.322 N 
HETATM   14  H   UNL     1      -2.169   5.697 -28.893  1.00  0.00     0.169 HD
HETATM   15  O   UNL     1      -2.549   8.602 -30.150  1.00  0.00    -0.267 OA
BRANCH  13  16
HETATM   16  C   UNL     1      -2.220   7.262 -27.539  1.00  0.00     0.052 A 
HETATM   17  C   UNL     1      -1.073   7.698 -26.880  1.00  0.00     0.145 A 
HETATM   18  N   UNL     1      -1.061   8.189 -25.613  1.00  0.00    -0.271 NA
HETATM   19  C   UNL     1      -2.244   8.249 -24.970  1.00  0.00     0.116 A 
HETATM   20  C   UNL     1      -3.441   7.846 -25.536  1.00  0.00     0.021 A 
HETATM   21  C   UNL     1      -3.425   7.349 -26.839  1.00  0.00     0.032 A 
ENDBRANCH  13  16
ENDBRANCH  10  12
BRANCH   9  22
HETATM   22  C   UNL     1      -4.351   5.308 -31.209  1.00  0.00    -0.025 A 
HETATM   23  C   UNL     1      -5.487   5.721 -30.499  1.00  0.00     0.029 A 
HETATM   24  C   UNL     1      -6.239   4.770 -29.828  1.00  0.00     0.117 A 
HETATM   25  N   UNL     1      -5.957   3.452 -29.830  1.00  0.00    -0.273 NA
HETATM   26  C   UNL     1      -4.865   3.067 -30.523  1.00  0.00     0.117 A 
HETATM   27  C   UNL     1      -4.046   3.941 -31.221  1.00  0.00     0.029 A 
ENDBRANCH   9  22
TORSDOF 3
ENDMDL
MODEL 9
REMARK VINA RESULT:      -6.8      2.434      6.065
REMARK  3 active torsions:
REMARK  status: ('A' for Active; 'I' for Inactive)
REMARK    1  A    between atoms: C_9  and  C_10 
REMARK    2  A    between atoms: C_16  and  C_17 
REMARK       I    between atoms: C_17  and  N_18 
REMARK    3  A    between atoms: N_18  and  C_19 
ROOT
HETATM    1  C   UNL     1      -9.368   5.231 -34.603  1.00  0.00     0.070 C 
HETATM    2  C   UNL     1      -9.557   3.774 -34.257  1.00  0.00     0.037 C 
HETATM    3  N   UNL     1     -10.675   3.168 -34.823  1.00  0.00    -0.192 N 
HETATM    4  C   UNL     1     -11.169   1.993 -34.384  1.00  0.00     0.725 A 
HETATM    5  N   UNL     1     -10.445   1.254 -33.490  1.00  0.00    -0.084 N 
HETATM    6  N   UNL     1     -11.124   0.158 -33.093  1.00  0.00    -0.149 NA
HETATM    7  C   UNL     1     -12.237   0.281 -33.826  1.00  0.00     0.275 A 
HETATM    8  N   UNL     1     -12.301   1.387 -34.635  1.00  0.00    -0.054 NA
HETATM    9  C   UNL     1      -9.115   1.634 -32.998  1.00  0.00     0.202 C 
HETATM   10  C   UNL     1      -8.778   3.072 -33.393  1.00  0.00     0.062 C 
HETATM   11  H   UNL     1     -11.292   3.754 -35.382  1.00  0.00     0.184 HD
ENDROOT
BRANCH  10  12
HETATM   12  C   UNL     1      -7.634   3.647 -32.636  1.00  0.00     0.256 C 
HETATM   13  N   UNL     1      -6.425   3.573 -33.290  1.00  0.00    -0.322 N 
HETATM   14  H   UNL     1      -6.399   3.080 -34.174  1.00  0.00     0.169 HD
HETATM   15  O   UNL     1      -7.832   4.090 -31.512  1.00  0.00    -0.267 OA
BRANCH  13  16
HETATM   16  C   UNL     1      -5.214   4.174 -32.877  1.00  0.00     0.052 A 
HETATM   17  C   UNL     1      -4.265   3.579 -32.050  1.00  0.00     0.145 A 
HETATM   18  N   UNL     1      -3.127   4.193 -31.630  1.00  0.00    -0.271 NA
HETATM   19  C   UNL     1      -2.925   5.457 -32.051  1.00  0.00     0.116 A 
HETATM   20  C   UNL     1      -3.803   6.136 -32.876  1.00  0.00     0.021 A 
HETATM   21  C   UNL     1      -4.960   5.482 -33.296  1.00  0.00     0.032 A 
ENDBRANCH  13  16
ENDBRANCH  10  12
BRANCH   9  22
HETATM   22  C   UNL     1      -8.062   0.648 -33.495  1.00  0.00    -0.025 A 
HETATM   23  C   UNL     1      -7.262  -0.098 -32.616  1.00  0.00     0.029 A 
HETATM   24  C   UNL     1      -6.327  -0.975 -33.143  1.00  0.00     0.117 A 
HETATM   25  N   UNL     1      -6.148  -1.176 -34.464  1.00  0.00    -0.273 NA
HETATM   26  C   UNL     1      -6.929  -0.457 -35.299  1.00  0.00     0.117 A 
HETATM   27  C   UNL     1      -7.887   0.449 -34.870  1.00  0.00     0.029 A 
ENDBRANCH   9  22
TORSDOF 3
ENDMDL
MODEL 10
REMARK VINA RESULT:      -6.7     15.420     18.079
REMARK  3 active torsions:
REMARK  status: ('A' for Active; 'I' for Inactive)
REMARK    1  A    between atoms: C_9  and  C_10 
REMARK    2  A    between atoms: C_16  and  C_17 
REMARK       I    between atoms: C_17  and  N_18 
REMARK    3  A    between atoms: N_18  and  C_19 
ROOT
HETATM    1  C   UNL     1      -2.872 -14.338 -35.778  1.00  0.00     0.070 C 
HETATM    2  C   UNL     1      -2.052 -14.502 -37.034  1.00  0.00     0.037 C 
HETATM    3  N   UNL     1      -0.847 -15.182 -36.874  1.00  0.00    -0.192 N 
HETATM    4  C   UNL     1       0.139 -15.146 -37.793  1.00  0.00     0.725 A 
HETATM    5  N   UNL     1      -0.110 -14.599 -39.021  1.00  0.00    -0.084 N 
HETATM    6  N   UNL     1       1.005 -14.566 -39.779  1.00  0.00    -0.149 NA
HETATM    7  C   UNL     1       1.880 -15.152 -38.954  1.00  0.00     0.275 A 
HETATM    8  N   UNL     1       1.388 -15.529 -37.730  1.00  0.00    -0.054 NA
HETATM    9  C   UNL     1      -1.417 -14.078 -39.437  1.00  0.00     0.202 C 
HETATM   10  C   UNL     1      -2.368 -13.974 -38.244  1.00  0.00     0.062 C 
HETATM   11  H   UNL     1      -0.596 -15.472 -35.931  1.00  0.00     0.184 HD
ENDROOT
BRANCH  10  12
HETATM   12  C   UNL     1      -3.563 -13.127 -38.505  1.00  0.00     0.256 C 
HETATM   13  N   UNL     1      -4.675 -13.825 -38.918  1.00  0.00    -0.322 N 
HETATM   14  H   UNL     1      -4.571 -14.820 -39.080  1.00  0.00     0.169 HD
HETATM   15  O   UNL     1      -3.466 -11.913 -38.380  1.00  0.00    -0.267 OA
BRANCH  13  16
HETATM   16  C   UNL     1      -5.976 -13.300 -39.085  1.00  0.00     0.052 A 
HETATM   17  C   UNL     1      -6.930 -13.183 -38.076  1.00  0.00     0.145 A 
HETATM   18  N   UNL     1      -8.191 -12.715 -38.269  1.00  0.00    -0.271 NA
HETATM   19  C   UNL     1      -8.520 -12.348 -39.524  1.00  0.00     0.116 A 
HETATM   20  C   UNL     1      -7.647 -12.420 -40.594  1.00  0.00     0.021 A 
HETATM   21  C   UNL     1      -6.357 -12.900 -40.367  1.00  0.00     0.032 A 
ENDBRANCH  13  16
ENDBRANCH  10  12
BRANCH   9  22
HETATM   22  C   UNL     1      -2.001 -14.937 -40.554  1.00  0.00    -0.025 A 
HETATM   23  C   UNL     1      -2.441 -14.389 -41.768  1.00  0.00     0.029 A 
HETATM   24  C   UNL     1      -2.960 -15.235 -42.736  1.00  0.00     0.117 A 
HETATM   25  N   UNL     1      -3.050 -16.572 -42.593  1.00  0.00    -0.273 NA
HETATM   26  C   UNL     1      -2.617 -17.088 -41.424  1.00  0.00     0.117 A 
HETATM   27  C   UNL     1      -2.089 -16.326 -40.393  1.00  0.00     0.029 A 
ENDBRANCH   9  22
TORSDOF 3
ENDMDL
