MODEL 1
REMARK VINA RESULT:      -8.3      0.000      0.000
REMARK  8 active torsions:
REMARK  status: ('A' for Active; 'I' for Inactive)
REMARK    1  A    between atoms: C_8  and  C_9 
REMARK       I    between atoms: C_9  and  N_10 
REMARK    2  A    between atoms: N_10  and  N_11 
REMARK    3  A    between atoms: N_11  and  C_12 
REMARK    4  A    between atoms: C_12  and  N_13 
REMARK    5  A    between atoms: N_13  and  C_14 
REMARK    6  A    between atoms: C_15  and  O_16 
REMARK    7  A    between atoms: C_19  and  O_20 
REMARK    8  A    between atoms: C_26  and  C_27 
ROOT
HETATM    1  C   UNL     1      -4.909   3.371 -31.101  1.00  0.00     0.275 C 
HETATM    2  N   UNL     1      -5.669   2.762 -32.081  1.00  0.00    -0.263 N 
HETATM    3  O   UNL     1      -5.232   3.372 -29.914  1.00  0.00    -0.266 OA
HETATM    4  H   UNL     1      -5.533   2.988 -33.063  1.00  0.00     0.190 HD
ENDROOT
BRANCH   2   5
HETATM    5  N   UNL     1      -6.834   2.078 -31.716  1.00  0.00    -0.273 N 
HETATM    6  H   UNL     1      -7.416   2.570 -31.035  1.00  0.00     0.189 HD
BRANCH   5   7
HETATM    7  C   UNL     1      -7.465   1.223 -32.580  1.00  0.00     0.191 C 
HETATM    8  S   UNL     1      -9.046   0.693 -32.403  1.00  0.00    -0.039 SA
BRANCH   7   9
HETATM    9  N   UNL     1      -6.741   0.766 -33.643  1.00  0.00    -0.330 N 
HETATM   10  H   UNL     1      -6.509   1.477 -34.335  1.00  0.00     0.168 HD
BRANCH   9  11
HETATM   11  C   UNL     1      -6.160  -0.495 -33.914  1.00  0.00     0.068 A 
HETATM   12  C   UNL     1      -4.868  -0.732 -33.396  1.00  0.00     0.097 A 
HETATM   13  C   UNL     1      -4.249  -1.976 -33.586  1.00  0.00     0.075 A 
HETATM   14  C   UNL     1      -4.912  -2.991 -34.279  1.00  0.00     0.070 A 
HETATM   15  C   UNL     1      -6.194  -2.757 -34.776  1.00  0.00     0.039 A 
HETATM   16  C   UNL     1      -6.820  -1.523 -34.587  1.00  0.00     0.035 A 
BRANCH  12  17
HETATM   17  O   UNL     1      -4.308   0.324 -32.711  1.00  0.00    -0.354 OA
HETATM   18  C   UNL     1      -3.300   0.021 -31.755  1.00  0.00     0.210 C 
ENDBRANCH  12  17
BRANCH  14  19
HETATM   19  O   UNL     1      -4.433  -4.247 -34.528  1.00  0.00    -0.356 OA
HETATM   20  C   UNL     1      -3.591  -4.829 -33.541  1.00  0.00     0.210 C 
ENDBRANCH  14  19
ENDBRANCH   9  11
ENDBRANCH   7   9
ENDBRANCH   5   7
ENDBRANCH   2   5
BRANCH   1  21
HETATM   21  C   UNL     1      -3.709   4.011 -31.590  1.00  0.00     0.098 A 
HETATM   22  C   UNL     1      -3.074   5.144 -31.114  1.00  0.00     0.138 A 
HETATM   23  N   UNL     1      -3.367   6.031 -30.130  1.00  0.00    -0.370 N 
HETATM   24  N   UNL     1      -1.982   5.326 -31.925  1.00  0.00    -0.240 N 
HETATM   25  C   UNL     1      -2.535   7.209 -29.883  1.00  0.00     0.081 C 
HETATM   26  H   UNL     1      -4.275   6.024 -29.664  1.00  0.00     0.161 HD
HETATM   27  C   UNL     1      -3.410   8.344 -29.351  1.00  0.00     0.032 C 
HETATM   28  C   UNL     1      -1.817   7.638 -31.172  1.00  0.00     0.061 C 
HETATM   29  C   UNL     1      -1.080   6.457 -31.827  1.00  0.00     0.221 C 
HETATM   30  N   UNL     1      -1.906   4.455 -32.944  1.00  0.00    -0.181 NA
HETATM   31  C   UNL     1      -2.951   3.648 -32.731  1.00  0.00     0.160 A 
BRANCH  29  32
HETATM   32  C   UNL     1       0.170   6.056 -31.077  1.00  0.00     0.409 C 
HETATM   33  F   UNL     1      -0.046   5.821 -29.765  1.00  0.00    -0.169 F 
HETATM   34  F   UNL     1       0.762   4.960 -31.598  1.00  0.00    -0.169 F 
HETATM   35  F   UNL     1       1.086   7.057 -31.146  1.00  0.00    -0.169 F 
ENDBRANCH  29  32
ENDBRANCH   1  21
TORSDOF 8
ENDMDL
MODEL 2
REMARK VINA RESULT:      -8.0      1.737      1.964
REMARK  8 active torsions:
REMARK  status: ('A' for Active; 'I' for Inactive)
REMARK    1  A    between atoms: C_8  and  C_9 
REMARK       I    between atoms: C_9  and  N_10 
REMARK    2  A    between atoms: N_10  and  N_11 
REMARK    3  A    between atoms: N_11  and  C_12 
REMARK    4  A    between atoms: C_12  and  N_13 
REMARK    5  A    between atoms: N_13  and  C_14 
REMARK    6  A    between atoms: C_15  and  O_16 
REMARK    7  A    between atoms: C_19  and  O_20 
REMARK    8  A    between atoms: C_26  and  C_27 
ROOT
HETATM    1  C   UNL     1      -4.223   4.705 -33.976  1.00  0.00     0.275 C 
HETATM    2  N   UNL     1      -4.460   3.669 -33.094  1.00  0.00    -0.263 N 
HETATM    3  O   UNL     1      -4.922   4.906 -34.967  1.00  0.00    -0.266 OA
HETATM    4  H   UNL     1      -3.740   3.361 -32.443  1.00  0.00     0.190 HD
ENDROOT
BRANCH   2   5
HETATM    5  N   UNL     1      -5.562   2.832 -33.302  1.00  0.00    -0.273 N 
HETATM    6  H   UNL     1      -5.513   2.277 -34.158  1.00  0.00     0.189 HD
BRANCH   5   7
HETATM    7  C   UNL     1      -6.276   2.310 -32.256  1.00  0.00     0.191 C 
HETATM    8  S   UNL     1      -7.267   3.208 -31.244  1.00  0.00    -0.039 SA
BRANCH   7   9
HETATM    9  N   UNL     1      -6.151   0.971 -32.024  1.00  0.00    -0.330 N 
HETATM   10  H   UNL     1      -6.245   0.699 -31.047  1.00  0.00     0.168 HD
BRANCH   9  11
HETATM   11  C   UNL     1      -6.015  -0.128 -32.905  1.00  0.00     0.068 A 
HETATM   12  C   UNL     1      -4.705  -0.574 -33.180  1.00  0.00     0.097 A 
HETATM   13  C   UNL     1      -4.498  -1.686 -34.009  1.00  0.00     0.075 A 
HETATM   14  C   UNL     1      -5.588  -2.365 -34.557  1.00  0.00     0.070 A 
HETATM   15  C   UNL     1      -6.881  -1.930 -34.270  1.00  0.00     0.039 A 
HETATM   16  C   UNL     1      -7.097  -0.827 -33.442  1.00  0.00     0.035 A 
BRANCH  12  17
HETATM   17  O   UNL     1      -3.700   0.150 -32.576  1.00  0.00    -0.354 OA
HETATM   18  C   UNL     1      -3.098  -0.411 -31.417  1.00  0.00     0.210 C 
ENDBRANCH  12  17
BRANCH  14  19
HETATM   19  O   UNL     1      -5.531  -3.464 -35.369  1.00  0.00    -0.356 OA
HETATM   20  C   UNL     1      -6.481  -4.496 -35.135  1.00  0.00     0.210 C 
ENDBRANCH  14  19
ENDBRANCH   9  11
ENDBRANCH   7   9
ENDBRANCH   5   7
ENDBRANCH   2   5
BRANCH   1  21
HETATM   21  C   UNL     1      -3.083   5.526 -33.637  1.00  0.00     0.098 A 
HETATM   22  C   UNL     1      -2.732   6.061 -32.411  1.00  0.00     0.138 A 
HETATM   23  N   UNL     1      -3.326   6.059 -31.191  1.00  0.00    -0.370 N 
HETATM   24  N   UNL     1      -1.569   6.754 -32.627  1.00  0.00    -0.240 N 
HETATM   25  C   UNL     1      -2.754   6.783 -30.055  1.00  0.00     0.081 C 
HETATM   26  H   UNL     1      -4.284   5.728 -31.068  1.00  0.00     0.161 HD
HETATM   27  C   UNL     1      -3.881   7.258 -29.139  1.00  0.00     0.032 C 
HETATM   28  C   UNL     1      -1.917   7.974 -30.546  1.00  0.00     0.061 C 
HETATM   29  C   UNL     1      -0.896   7.544 -31.614  1.00  0.00     0.221 C 
HETATM   30  N   UNL     1      -1.183   6.788 -33.913  1.00  0.00    -0.181 NA
HETATM   31  C   UNL     1      -2.100   6.030 -34.524  1.00  0.00     0.160 A 
BRANCH  29  32
HETATM   32  C   UNL     1       0.263   6.764 -31.038  1.00  0.00     0.409 C 
HETATM   33  F   UNL     1       0.430   6.954 -29.711  1.00  0.00    -0.169 F 
HETATM   34  F   UNL     1       0.155   5.435 -31.251  1.00  0.00    -0.169 F 
HETATM   35  F   UNL     1       1.420   7.156 -31.633  1.00  0.00    -0.169 F 
ENDBRANCH  29  32
ENDBRANCH   1  21
TORSDOF 8
ENDMDL
MODEL 3
REMARK VINA RESULT:      -7.6      2.095      2.689
REMARK  8 active torsions:
REMARK  status: ('A' for Active; 'I' for Inactive)
REMARK    1  A    between atoms: C_8  and  C_9 
REMARK       I    between atoms: C_9  and  N_10 
REMARK    2  A    between atoms: N_10  and  N_11 
REMARK    3  A    between atoms: N_11  and  C_12 
REMARK    4  A    between atoms: C_12  and  N_13 
REMARK    5  A    between atoms: N_13  and  C_14 
REMARK    6  A    between atoms: C_15  and  O_16 
REMARK    7  A    between atoms: C_19  and  O_20 
REMARK    8  A    between atoms: C_26  and  C_27 
ROOT
HETATM    1  C   UNL     1      -2.508   4.051 -32.102  1.00  0.00     0.275 C 
HETATM    2  N   UNL     1      -3.137   3.204 -31.210  1.00  0.00    -0.263 N 
HETATM    3  O   UNL     1      -2.680   3.983 -33.318  1.00  0.00    -0.266 OA
HETATM    4  H   UNL     1      -2.794   3.100 -30.258  1.00  0.00     0.190 HD
ENDROOT
BRANCH   2   5
HETATM    5  N   UNL     1      -4.042   2.253 -31.693  1.00  0.00    -0.273 N 
HETATM    6  H   UNL     1      -3.612   1.488 -32.215  1.00  0.00     0.189 HD
BRANCH   5   7
HETATM    7  C   UNL     1      -5.219   1.986 -31.044  1.00  0.00     0.191 C 
HETATM    8  S   UNL     1      -6.077   3.106 -30.139  1.00  0.00    -0.039 SA
BRANCH   7   9
HETATM    9  N   UNL     1      -5.704   0.713 -31.135  1.00  0.00    -0.330 N 
HETATM   10  H   UNL     1      -6.223   0.398 -30.318  1.00  0.00     0.168 HD
BRANCH   9  11
HETATM   11  C   UNL     1      -5.709  -0.217 -32.201  1.00  0.00     0.068 A 
HETATM   12  C   UNL     1      -4.594  -1.075 -32.310  1.00  0.00     0.097 A 
HETATM   13  C   UNL     1      -4.553  -2.052 -33.316  1.00  0.00     0.075 A 
HETATM   14  C   UNL     1      -5.619  -2.189 -34.206  1.00  0.00     0.070 A 
HETATM   15  C   UNL     1      -6.725  -1.349 -34.085  1.00  0.00     0.039 A 
HETATM   16  C   UNL     1      -6.778  -0.376 -33.084  1.00  0.00     0.035 A 
BRANCH  12  17
HETATM   17  O   UNL     1      -3.605  -0.874 -31.373  1.00  0.00    -0.354 OA
HETATM   18  C   UNL     1      -2.259  -1.041 -31.799  1.00  0.00     0.210 C 
ENDBRANCH  12  17
BRANCH  14  19
HETATM   19  O   UNL     1      -5.713  -3.100 -35.222  1.00  0.00    -0.356 OA
HETATM   20  C   UNL     1      -6.616  -4.184 -35.042  1.00  0.00     0.210 C 
ENDBRANCH  14  19
ENDBRANCH   9  11
ENDBRANCH   7   9
ENDBRANCH   5   7
ENDBRANCH   2   5
BRANCH   1  21
HETATM   21  C   UNL     1      -1.627   5.017 -31.485  1.00  0.00     0.098 A 
HETATM   22  C   UNL     1      -1.906   5.933 -30.487  1.00  0.00     0.138 A 
HETATM   23  N   UNL     1      -3.042   6.271 -29.826  1.00  0.00    -0.370 N 
HETATM   24  N   UNL     1      -0.732   6.606 -30.262  1.00  0.00    -0.240 N 
HETATM   25  C   UNL     1      -3.066   7.354 -28.841  1.00  0.00     0.081 C 
HETATM   26  H   UNL     1      -3.954   5.927 -30.128  1.00  0.00     0.161 HD
HETATM   27  C   UNL     1      -4.446   8.010 -28.845  1.00  0.00     0.032 C 
HETATM   28  C   UNL     1      -1.974   8.387 -29.157  1.00  0.00     0.061 C 
HETATM   29  C   UNL     1      -0.600   7.720 -29.343  1.00  0.00     0.221 C 
HETATM   30  N   UNL     1       0.264   6.263 -31.095  1.00  0.00    -0.181 NA
HETATM   31  C   UNL     1      -0.279   5.287 -31.831  1.00  0.00     0.160 A 
BRANCH  29  32
HETATM   32  C   UNL     1       0.003   7.245 -28.041  1.00  0.00     0.409 C 
HETATM   33  F   UNL     1       1.327   7.494 -27.942  1.00  0.00    -0.169 F 
HETATM   34  F   UNL     1      -0.597   7.787 -26.960  1.00  0.00    -0.169 F 
HETATM   35  F   UNL     1      -0.147   5.899 -27.930  1.00  0.00    -0.169 F 
ENDBRANCH  29  32
ENDBRANCH   1  21
TORSDOF 8
ENDMDL
MODEL 4
REMARK VINA RESULT:      -7.5      4.266      9.244
REMARK  8 active torsions:
REMARK  status: ('A' for Active; 'I' for Inactive)
REMARK    1  A    between atoms: C_8  and  C_9 
REMARK       I    between atoms: C_9  and  N_10 
REMARK    2  A    between atoms: N_10  and  N_11 
REMARK    3  A    between atoms: N_11  and  C_12 
REMARK    4  A    between atoms: C_12  and  N_13 
REMARK    5  A    between atoms: N_13  and  C_14 
REMARK    6  A    between atoms: C_15  and  O_16 
REMARK    7  A    between atoms: C_19  and  O_20 
REMARK    8  A    between atoms: C_26  and  C_27 
ROOT
HETATM    1  C   UNL     1      -4.256   2.780 -31.563  1.00  0.00     0.275 C 
HETATM    2  N   UNL     1      -2.967   3.196 -31.289  1.00  0.00    -0.263 N 
HETATM    3  O   UNL     1      -5.202   3.560 -31.647  1.00  0.00    -0.266 OA
HETATM    4  H   UNL     1      -2.262   2.536 -30.969  1.00  0.00     0.190 HD
ENDROOT
BRANCH   2   5
HETATM    5  N   UNL     1      -2.707   4.563 -31.142  1.00  0.00    -0.273 N 
HETATM    6  H   UNL     1      -2.657   4.881 -30.173  1.00  0.00     0.189 HD
BRANCH   5   7
HETATM    7  C   UNL     1      -1.977   5.259 -32.069  1.00  0.00     0.191 C 
HETATM    8  S   UNL     1      -2.011   4.963 -33.719  1.00  0.00    -0.039 SA
BRANCH   7   9
HETATM    9  N   UNL     1      -1.159   6.247 -31.601  1.00  0.00    -0.330 N 
HETATM   10  H   UNL     1      -1.000   7.011 -32.255  1.00  0.00     0.168 HD
BRANCH   9  11
HETATM   11  C   UNL     1      -0.570   6.458 -30.332  1.00  0.00     0.068 A 
HETATM   12  C   UNL     1      -0.907   7.652 -29.658  1.00  0.00     0.097 A 
HETATM   13  C   UNL     1      -0.396   7.905 -28.377  1.00  0.00     0.075 A 
HETATM   14  C   UNL     1       0.439   6.974 -27.757  1.00  0.00     0.070 A 
HETATM   15  C   UNL     1       0.757   5.790 -28.421  1.00  0.00     0.039 A 
HETATM   16  C   UNL     1       0.249   5.526 -29.694  1.00  0.00     0.035 A 
BRANCH  12  17
HETATM   17  O   UNL     1      -1.752   8.495 -30.345  1.00  0.00    -0.354 OA
HETATM   18  C   UNL     1      -3.014   8.777 -29.755  1.00  0.00     0.210 C 
ENDBRANCH  12  17
BRANCH  14  19
HETATM   19  O   UNL     1       0.996   7.089 -26.513  1.00  0.00    -0.356 OA
HETATM   20  C   UNL     1       1.854   8.200 -26.285  1.00  0.00     0.210 C 
ENDBRANCH  14  19
ENDBRANCH   9  11
ENDBRANCH   7   9
ENDBRANCH   5   7
ENDBRANCH   2   5
BRANCH   1  21
HETATM   21  C   UNL     1      -4.396   1.351 -31.734  1.00  0.00     0.098 A 
HETATM   22  C   UNL     1      -5.128   0.659 -32.681  1.00  0.00     0.138 A 
HETATM   23  N   UNL     1      -5.966   1.046 -33.676  1.00  0.00    -0.370 N 
HETATM   24  N   UNL     1      -4.924  -0.670 -32.409  1.00  0.00    -0.240 N 
HETATM   25  C   UNL     1      -6.680   0.074 -34.504  1.00  0.00     0.081 C 
HETATM   26  H   UNL     1      -6.285   2.013 -33.753  1.00  0.00     0.161 HD
HETATM   27  C   UNL     1      -8.018   0.667 -34.940  1.00  0.00     0.032 C 
HETATM   28  C   UNL     1      -6.894  -1.235 -33.728  1.00  0.00     0.061 C 
HETATM   29  C   UNL     1      -5.579  -1.752 -33.118  1.00  0.00     0.221 C 
HETATM   30  N   UNL     1      -4.192  -0.897 -31.307  1.00  0.00    -0.181 NA
HETATM   31  C   UNL     1      -3.862   0.335 -30.904  1.00  0.00     0.160 A 
BRANCH  29  32
HETATM   32  C   UNL     1      -4.642  -2.334 -34.151  1.00  0.00     0.409 C 
HETATM   33  F   UNL     1      -3.978  -3.427 -33.716  1.00  0.00    -0.169 F 
HETATM   34  F   UNL     1      -5.272  -2.666 -35.298  1.00  0.00    -0.169 F 
HETATM   35  F   UNL     1      -3.699  -1.414 -34.483  1.00  0.00    -0.169 F 
ENDBRANCH  29  32
ENDBRANCH   1  21
TORSDOF 8
ENDMDL
MODEL 5
REMARK VINA RESULT:      -7.5      4.505      7.901
REMARK  8 active torsions:
REMARK  status: ('A' for Active; 'I' for Inactive)
REMARK    1  A    between atoms: C_8  and  C_9 
REMARK       I    between atoms: C_9  and  N_10 
REMARK    2  A    between atoms: N_10  and  N_11 
REMARK    3  A    between atoms: N_11  and  C_12 
REMARK    4  A    between atoms: C_12  and  N_13 
REMARK    5  A    between atoms: N_13  and  C_14 
REMARK    6  A    between atoms: C_15  and  O_16 
REMARK    7  A    between atoms: C_19  and  O_20 
REMARK    8  A    between atoms: C_26  and  C_27 
ROOT
HETATM    1  C   UNL     1      -6.728   3.313 -29.759  1.00  0.00     0.275 C 
HETATM    2  N   UNL     1      -5.544   3.594 -29.106  1.00  0.00    -0.263 N 
HETATM    3  O   UNL     1      -7.751   3.975 -29.596  1.00  0.00    -0.266 OA
HETATM    4  H   UNL     1      -4.802   2.901 -29.048  1.00  0.00     0.190 HD
ENDROOT
BRANCH   2   5
HETATM    5  N   UNL     1      -5.481   4.701 -28.252  1.00  0.00    -0.273 N 
HETATM    6  H   UNL     1      -5.137   4.491 -27.314  1.00  0.00     0.189 HD
BRANCH   5   7
HETATM    7  C   UNL     1      -5.263   5.967 -28.732  1.00  0.00     0.191 C 
HETATM    8  S   UNL     1      -6.347   7.237 -28.581  1.00  0.00    -0.039 SA
BRANCH   7   9
HETATM    9  N   UNL     1      -4.087   6.188 -29.388  1.00  0.00    -0.330 N 
HETATM   10  H   UNL     1      -3.301   6.422 -28.784  1.00  0.00     0.168 HD
BRANCH   9  11
HETATM   11  C   UNL     1      -3.730   6.052 -30.750  1.00  0.00     0.068 A 
HETATM   12  C   UNL     1      -2.352   6.057 -31.058  1.00  0.00     0.097 A 
HETATM   13  C   UNL     1      -1.924   5.881 -32.382  1.00  0.00     0.075 A 
HETATM   14  C   UNL     1      -2.858   5.687 -33.401  1.00  0.00     0.070 A 
HETATM   15  C   UNL     1      -4.217   5.668 -33.091  1.00  0.00     0.039 A 
HETATM   16  C   UNL     1      -4.653   5.838 -31.775  1.00  0.00     0.035 A 
BRANCH  12  17
HETATM   17  O   UNL     1      -1.511   6.234 -29.981  1.00  0.00    -0.354 OA
HETATM   18  C   UNL     1      -0.650   7.364 -30.004  1.00  0.00     0.210 C 
ENDBRANCH  12  17
BRANCH  14  19
HETATM   19  O   UNL     1      -2.580   5.495 -34.726  1.00  0.00    -0.356 OA
HETATM   20  C   UNL     1      -1.221   5.274 -35.081  1.00  0.00     0.210 C 
ENDBRANCH  14  19
ENDBRANCH   9  11
ENDBRANCH   7   9
ENDBRANCH   5   7
ENDBRANCH   2   5
BRANCH   1  21
HETATM   21  C   UNL     1      -6.663   2.172 -30.644  1.00  0.00     0.098 A 
HETATM   22  C   UNL     1      -7.486   1.851 -31.709  1.00  0.00     0.138 A 
HETATM   23  N   UNL     1      -8.605   2.420 -32.224  1.00  0.00    -0.370 N 
HETATM   24  N   UNL     1      -6.996   0.674 -32.215  1.00  0.00    -0.240 N 
HETATM   25  C   UNL     1      -9.332   1.815 -33.340  1.00  0.00     0.081 C 
HETATM   26  H   UNL     1      -9.093   3.170 -31.733  1.00  0.00     0.161 HD
HETATM   27  C   UNL     1     -10.819   2.144 -33.213  1.00  0.00     0.032 C 
HETATM   28  C   UNL     1      -9.114   0.294 -33.359  1.00  0.00     0.061 C 
HETATM   29  C   UNL     1      -7.618  -0.063 -33.298  1.00  0.00     0.221 C 
HETATM   30  N   UNL     1      -5.977   0.157 -31.510  1.00  0.00    -0.181 NA
HETATM   31  C   UNL     1      -5.768   1.077 -30.561  1.00  0.00     0.160 A 
BRANCH  29  32
HETATM   32  C   UNL     1      -6.894   0.216 -34.595  1.00  0.00     0.409 C 
HETATM   33  F   UNL     1      -6.360   1.455 -34.654  1.00  0.00    -0.169 F 
HETATM   34  F   UNL     1      -5.905  -0.669 -34.841  1.00  0.00    -0.169 F 
HETATM   35  F   UNL     1      -7.764   0.119 -35.634  1.00  0.00    -0.169 F 
ENDBRANCH  29  32
ENDBRANCH   1  21
TORSDOF 8
ENDMDL
MODEL 6
REMARK VINA RESULT:      -7.4      2.404      3.410
REMARK  8 active torsions:
REMARK  status: ('A' for Active; 'I' for Inactive)
REMARK    1  A    between atoms: C_8  and  C_9 
REMARK       I    between atoms: C_9  and  N_10 
REMARK    2  A    between atoms: N_10  and  N_11 
REMARK    3  A    between atoms: N_11  and  C_12 
REMARK    4  A    between atoms: C_12  and  N_13 
REMARK    5  A    between atoms: N_13  and  C_14 
REMARK    6  A    between atoms: C_15  and  O_16 
REMARK    7  A    between atoms: C_19  and  O_20 
REMARK    8  A    between atoms: C_26  and  C_27 
ROOT
HETATM    1  C   UNL     1      -5.741   3.881 -30.943  1.00  0.00     0.275 C 
HETATM    2  N   UNL     1      -7.078   4.220 -30.861  1.00  0.00    -0.263 N 
HETATM    3  O   UNL     1      -5.259   2.927 -30.336  1.00  0.00    -0.266 OA
HETATM    4  H   UNL     1      -7.402   5.141 -31.148  1.00  0.00     0.190 HD
ENDROOT
BRANCH   2   5
HETATM    5  N   UNL     1      -7.938   3.427 -30.094  1.00  0.00    -0.273 N 
HETATM    6  H   UNL     1      -7.821   3.532 -29.084  1.00  0.00     0.189 HD
BRANCH   5   7
HETATM    7  C   UNL     1      -9.181   3.068 -30.547  1.00  0.00     0.191 C 
HETATM    8  S   UNL     1     -10.498   4.102 -30.621  1.00  0.00    -0.039 SA
BRANCH   7   9
HETATM    9  N   UNL     1      -9.346   1.773 -30.947  1.00  0.00    -0.330 N 
HETATM   10  H   UNL     1     -10.180   1.319 -30.579  1.00  0.00     0.168 HD
BRANCH   9  11
HETATM   11  C   UNL     1      -8.626   0.973 -31.865  1.00  0.00     0.068 A 
HETATM   12  C   UNL     1      -9.112   0.918 -33.189  1.00  0.00     0.097 A 
HETATM   13  C   UNL     1      -8.423   0.181 -34.163  1.00  0.00     0.075 A 
HETATM   14  C   UNL     1      -7.246  -0.493 -33.831  1.00  0.00     0.070 A 
HETATM   15  C   UNL     1      -6.762  -0.423 -32.526  1.00  0.00     0.039 A 
HETATM   16  C   UNL     1      -7.438   0.312 -31.550  1.00  0.00     0.035 A 
BRANCH  12  17
HETATM   17  O   UNL     1     -10.267   1.632 -33.420  1.00  0.00    -0.354 OA
HETATM   18  C   UNL     1     -11.464   0.891 -33.618  1.00  0.00     0.210 C 
ENDBRANCH  12  17
BRANCH  14  19
HETATM   19  O   UNL     1      -6.473  -1.237 -34.680  1.00  0.00    -0.356 OA
HETATM   20  C   UNL     1      -6.616  -2.650 -34.620  1.00  0.00     0.210 C 
ENDBRANCH  14  19
ENDBRANCH   9  11
ENDBRANCH   7   9
ENDBRANCH   5   7
ENDBRANCH   2   5
BRANCH   1  21
HETATM   21  C   UNL     1      -4.959   4.748 -31.795  1.00  0.00     0.098 A 
HETATM   22  C   UNL     1      -3.888   5.556 -31.461  1.00  0.00     0.138 A 
HETATM   23  N   UNL     1      -3.276   5.852 -30.287  1.00  0.00    -0.370 N 
HETATM   24  N   UNL     1      -3.504   6.166 -32.629  1.00  0.00    -0.240 N 
HETATM   25  C   UNL     1      -2.181   6.821 -30.211  1.00  0.00     0.081 C 
HETATM   26  H   UNL     1      -3.680   5.570 -29.393  1.00  0.00     0.161 HD
HETATM   27  C   UNL     1      -2.211   7.513 -28.850  1.00  0.00     0.032 C 
HETATM   28  C   UNL     1      -2.300   7.851 -31.345  1.00  0.00     0.061 C 
HETATM   29  C   UNL     1      -2.460   7.168 -32.715  1.00  0.00     0.221 C 
HETATM   30  N   UNL     1      -4.296   5.888 -33.677  1.00  0.00    -0.181 NA
HETATM   31  C   UNL     1      -5.174   5.015 -33.170  1.00  0.00     0.160 A 
BRANCH  29  32
HETATM   32  C   UNL     1      -1.179   6.536 -33.209  1.00  0.00     0.409 C 
HETATM   33  F   UNL     1      -1.029   6.608 -34.550  1.00  0.00    -0.169 F 
HETATM   34  F   UNL     1      -0.079   7.077 -32.644  1.00  0.00    -0.169 F 
HETATM   35  F   UNL     1      -1.166   5.216 -32.888  1.00  0.00    -0.169 F 
ENDBRANCH  29  32
ENDBRANCH   1  21
TORSDOF 8
ENDMDL
MODEL 7
REMARK VINA RESULT:      -7.3      4.471      9.007
REMARK  8 active torsions:
REMARK  status: ('A' for Active; 'I' for Inactive)
REMARK    1  A    between atoms: C_8  and  C_9 
REMARK       I    between atoms: C_9  and  N_10 
REMARK    2  A    between atoms: N_10  and  N_11 
REMARK    3  A    between atoms: N_11  and  C_12 
REMARK    4  A    between atoms: C_12  and  N_13 
REMARK    5  A    between atoms: N_13  and  C_14 
REMARK    6  A    between atoms: C_15  and  O_16 
REMARK    7  A    between atoms: C_19  and  O_20 
REMARK    8  A    between atoms: C_26  and  C_27 
ROOT
HETATM    1  C   UNL     1      -6.582   3.165 -29.825  1.00  0.00     0.275 C 
HETATM    2  N   UNL     1      -5.331   3.583 -29.415  1.00  0.00    -0.263 N 
HETATM    3  O   UNL     1      -7.618   3.733 -29.483  1.00  0.00    -0.266 OA
HETATM    4  H   UNL     1      -4.525   2.967 -29.486  1.00  0.00     0.190 HD
ENDROOT
BRANCH   2   5
HETATM    5  N   UNL     1      -5.220   4.724 -28.613  1.00  0.00    -0.273 N 
HETATM    6  H   UNL     1      -4.828   4.552 -27.686  1.00  0.00     0.189 HD
BRANCH   5   7
HETATM    7  C   UNL     1      -5.027   5.968 -29.155  1.00  0.00     0.191 C 
HETATM    8  S   UNL     1      -6.121   7.233 -29.040  1.00  0.00    -0.039 SA
BRANCH   7   9
HETATM    9  N   UNL     1      -3.867   6.171 -29.845  1.00  0.00    -0.330 N 
HETATM   10  H   UNL     1      -3.932   5.993 -30.846  1.00  0.00     0.168 HD
BRANCH   9  11
HETATM   11  C   UNL     1      -2.611   6.685 -29.445  1.00  0.00     0.068 A 
HETATM   12  C   UNL     1      -1.560   6.619 -30.384  1.00  0.00     0.097 A 
HETATM   13  C   UNL     1      -0.300   7.151 -30.071  1.00  0.00     0.075 A 
HETATM   14  C   UNL     1      -0.083   7.759 -28.833  1.00  0.00     0.070 A 
HETATM   15  C   UNL     1      -1.129   7.835 -27.914  1.00  0.00     0.039 A 
HETATM   16  C   UNL     1      -2.387   7.313 -28.218  1.00  0.00     0.035 A 
BRANCH  12  17
HETATM   17  O   UNL     1      -1.880   6.020 -31.582  1.00  0.00    -0.354 OA
HETATM   18  C   UNL     1      -0.923   5.131 -32.144  1.00  0.00     0.210 C 
ENDBRANCH  12  17
BRANCH  14  19
HETATM   19  O   UNL     1       1.086   8.324 -28.404  1.00  0.00    -0.356 OA
HETATM   20  C   UNL     1       1.515   8.008 -27.085  1.00  0.00     0.210 C 
ENDBRANCH  14  19
ENDBRANCH   9  11
ENDBRANCH   7   9
ENDBRANCH   5   7
ENDBRANCH   2   5
BRANCH   1  21
HETATM   21  C   UNL     1      -6.570   2.001 -30.682  1.00  0.00     0.098 A 
HETATM   22  C   UNL     1      -7.428   1.677 -31.717  1.00  0.00     0.138 A 
HETATM   23  N   UNL     1      -8.546   2.261 -32.217  1.00  0.00    -0.370 N 
HETATM   24  N   UNL     1      -6.982   0.475 -32.206  1.00  0.00    -0.240 N 
HETATM   25  C   UNL     1      -9.317   1.648 -33.299  1.00  0.00     0.081 C 
HETATM   26  H   UNL     1      -9.001   3.036 -31.733  1.00  0.00     0.161 HD
HETATM   27  C   UNL     1     -10.791   2.019 -33.142  1.00  0.00     0.032 C 
HETATM   28  C   UNL     1      -9.138   0.122 -33.285  1.00  0.00     0.061 C 
HETATM   29  C   UNL     1      -7.651  -0.272 -33.253  1.00  0.00     0.221 C 
HETATM   30  N   UNL     1      -5.958  -0.051 -31.515  1.00  0.00    -0.181 NA
HETATM   31  C   UNL     1      -5.701   0.885 -30.595  1.00  0.00     0.160 A 
BRANCH  29  32
HETATM   32  C   UNL     1      -6.955  -0.044 -34.575  1.00  0.00     0.409 C 
HETATM   33  F   UNL     1      -7.793  -0.071 -35.634  1.00  0.00    -0.169 F 
HETATM   34  F   UNL     1      -6.281   1.125 -34.615  1.00  0.00    -0.169 F 
HETATM   35  F   UNL     1      -6.036  -1.024 -34.784  1.00  0.00    -0.169 F 
ENDBRANCH  29  32
ENDBRANCH   1  21
TORSDOF 8
ENDMDL
MODEL 8
REMARK VINA RESULT:      -7.3      4.824      9.775
REMARK  8 active torsions:
REMARK  status: ('A' for Active; 'I' for Inactive)
REMARK    1  A    between atoms: C_8  and  C_9 
REMARK       I    between atoms: C_9  and  N_10 
REMARK    2  A    between atoms: N_10  and  N_11 
REMARK    3  A    between atoms: N_11  and  C_12 
REMARK    4  A    between atoms: C_12  and  N_13 
REMARK    5  A    between atoms: N_13  and  C_14 
REMARK    6  A    between atoms: C_15  and  O_16 
REMARK    7  A    between atoms: C_19  and  O_20 
REMARK    8  A    between atoms: C_26  and  C_27 
ROOT
HETATM    1  C   UNL     1      -3.483   3.352 -31.667  1.00  0.00     0.275 C 
HETATM    2  N   UNL     1      -3.414   4.716 -31.455  1.00  0.00    -0.263 N 
HETATM    3  O   UNL     1      -2.659   2.565 -31.204  1.00  0.00    -0.266 OA
HETATM    4  H   UNL     1      -3.932   5.363 -32.044  1.00  0.00     0.190 HD
ENDROOT
BRANCH   2   5
HETATM    5  N   UNL     1      -2.395   5.231 -30.646  1.00  0.00    -0.273 N 
HETATM    6  H   UNL     1      -1.838   4.522 -30.166  1.00  0.00     0.189 HD
BRANCH   5   7
HETATM    7  C   UNL     1      -1.781   6.422 -30.935  1.00  0.00     0.191 C 
HETATM    8  S   UNL     1      -1.062   6.785 -32.404  1.00  0.00    -0.039 SA
BRANCH   7   9
HETATM    9  N   UNL     1      -1.746   7.359 -29.943  1.00  0.00    -0.330 N 
HETATM   10  H   UNL     1      -2.528   8.012 -29.949  1.00  0.00     0.168 HD
BRANCH   9  11
HETATM   11  C   UNL     1      -0.877   7.530 -28.840  1.00  0.00     0.068 A 
HETATM   12  C   UNL     1      -1.424   7.336 -27.554  1.00  0.00     0.097 A 
HETATM   13  C   UNL     1      -0.609   7.445 -26.417  1.00  0.00     0.075 A 
HETATM   14  C   UNL     1       0.750   7.734 -26.553  1.00  0.00     0.070 A 
HETATM   15  C   UNL     1       1.289   7.910 -27.826  1.00  0.00     0.039 A 
HETATM   16  C   UNL     1       0.487   7.798 -28.964  1.00  0.00     0.035 A 
BRANCH  12  17
HETATM   17  O   UNL     1      -2.768   7.036 -27.527  1.00  0.00    -0.354 OA
HETATM   18  C   UNL     1      -3.639   7.989 -26.932  1.00  0.00     0.210 C 
ENDBRANCH  12  17
BRANCH  14  19
HETATM   19  O   UNL     1       1.656   7.858 -25.536  1.00  0.00    -0.356 OA
HETATM   20  C   UNL     1       2.164   9.160 -25.273  1.00  0.00     0.210 C 
ENDBRANCH  14  19
ENDBRANCH   9  11
ENDBRANCH   7   9
ENDBRANCH   5   7
ENDBRANCH   2   5
BRANCH   1  21
HETATM   21  C   UNL     1      -4.599   2.933 -32.484  1.00  0.00     0.098 A 
HETATM   22  C   UNL     1      -5.044   1.651 -32.752  1.00  0.00     0.138 A 
HETATM   23  N   UNL     1      -4.586   0.418 -32.420  1.00  0.00    -0.370 N 
HETATM   24  N   UNL     1      -6.132   1.801 -33.574  1.00  0.00    -0.240 N 
HETATM   25  C   UNL     1      -5.229  -0.801 -32.911  1.00  0.00     0.081 C 
HETATM   26  H   UNL     1      -3.669   0.292 -31.988  1.00  0.00     0.161 HD
HETATM   27  C   UNL     1      -4.179  -1.900 -33.065  1.00  0.00     0.032 C 
HETATM   28  C   UNL     1      -5.933  -0.532 -34.250  1.00  0.00     0.061 C 
HETATM   29  C   UNL     1      -6.859   0.694 -34.166  1.00  0.00     0.221 C 
HETATM   30  N   UNL     1      -6.375   3.071 -33.935  1.00  0.00    -0.181 NA
HETATM   31  C   UNL     1      -5.448   3.760 -33.260  1.00  0.00     0.160 A 
BRANCH  29  32
HETATM   32  C   UNL     1      -8.119   0.424 -33.378  1.00  0.00     0.409 C 
HETATM   33  F   UNL     1      -8.525  -0.862 -33.440  1.00  0.00    -0.169 F 
HETATM   34  F   UNL     1      -8.000   0.754 -32.074  1.00  0.00    -0.169 F 
HETATM   35  F   UNL     1      -9.138   1.176 -33.872  1.00  0.00    -0.169 F 
ENDBRANCH  29  32
ENDBRANCH   1  21
TORSDOF 8
ENDMDL
MODEL 9
REMARK VINA RESULT:      -7.3      4.472      7.777
REMARK  8 active torsions:
REMARK  status: ('A' for Active; 'I' for Inactive)
REMARK    1  A    between atoms: C_8  and  C_9 
REMARK       I    between atoms: C_9  and  N_10 
REMARK    2  A    between atoms: N_10  and  N_11 
REMARK    3  A    between atoms: N_11  and  C_12 
REMARK    4  A    between atoms: C_12  and  N_13 
REMARK    5  A    between atoms: N_13  and  C_14 
REMARK    6  A    between atoms: C_15  and  O_16 
REMARK    7  A    between atoms: C_19  and  O_20 
REMARK    8  A    between atoms: C_26  and  C_27 
ROOT
HETATM    1  C   UNL     1      -6.690   2.867 -29.820  1.00  0.00     0.275 C 
HETATM    2  N   UNL     1      -5.439   3.370 -29.522  1.00  0.00    -0.263 N 
HETATM    3  O   UNL     1      -7.724   3.332 -29.345  1.00  0.00    -0.266 OA
HETATM    4  H   UNL     1      -4.599   2.826 -29.707  1.00  0.00     0.190 HD
ENDROOT
BRANCH   2   5
HETATM    5  N   UNL     1      -5.332   4.482 -28.680  1.00  0.00    -0.273 N 
HETATM    6  H   UNL     1      -4.515   4.471 -28.068  1.00  0.00     0.189 HD
BRANCH   5   7
HETATM    7  C   UNL     1      -5.829   5.707 -29.040  1.00  0.00     0.191 C 
HETATM    8  S   UNL     1      -6.996   6.547 -28.179  1.00  0.00    -0.039 SA
BRANCH   7   9
HETATM    9  N   UNL     1      -5.344   6.261 -30.190  1.00  0.00    -0.330 N 
HETATM   10  H   UNL     1      -5.627   7.226 -30.349  1.00  0.00     0.168 HD
BRANCH   9  11
HETATM   11  C   UNL     1      -4.431   5.775 -31.155  1.00  0.00     0.068 A 
HETATM   12  C   UNL     1      -4.976   5.195 -32.321  1.00  0.00     0.097 A 
HETATM   13  C   UNL     1      -4.130   4.733 -33.340  1.00  0.00     0.075 A 
HETATM   14  C   UNL     1      -2.745   4.855 -33.212  1.00  0.00     0.070 A 
HETATM   15  C   UNL     1      -2.212   5.442 -32.065  1.00  0.00     0.039 A 
HETATM   16  C   UNL     1      -3.046   5.910 -31.048  1.00  0.00     0.035 A 
BRANCH  12  17
HETATM   17  O   UNL     1      -6.351   5.139 -32.360  1.00  0.00    -0.354 OA
HETATM   18  C   UNL     1      -6.960   4.912 -33.625  1.00  0.00     0.210 C 
ENDBRANCH  12  17
BRANCH  14  19
HETATM   19  O   UNL     1      -1.810   4.458 -34.128  1.00  0.00    -0.356 OA
HETATM   20  C   UNL     1      -1.180   5.475 -34.897  1.00  0.00     0.210 C 
ENDBRANCH  14  19
ENDBRANCH   9  11
ENDBRANCH   7   9
ENDBRANCH   5   7
ENDBRANCH   2   5
BRANCH   1  21
HETATM   21  C   UNL     1      -6.679   1.744 -30.731  1.00  0.00     0.098 A 
HETATM   22  C   UNL     1      -7.529   1.476 -31.788  1.00  0.00     0.138 A 
HETATM   23  N   UNL     1      -8.637   2.093 -32.271  1.00  0.00    -0.370 N 
HETATM   24  N   UNL     1      -7.088   0.295 -32.329  1.00  0.00    -0.240 N 
HETATM   25  C   UNL     1      -9.403   1.538 -33.387  1.00  0.00     0.081 C 
HETATM   26  H   UNL     1      -9.091   2.847 -31.754  1.00  0.00     0.161 HD
HETATM   27  C   UNL     1     -10.875   1.913 -33.227  1.00  0.00     0.032 C 
HETATM   28  C   UNL     1      -9.236   0.011 -33.444  1.00  0.00     0.061 C 
HETATM   29  C   UNL     1      -7.753  -0.397 -33.416  1.00  0.00     0.221 C 
HETATM   30  N   UNL     1      -6.075  -0.271 -31.654  1.00  0.00    -0.181 NA
HETATM   31  C   UNL     1      -5.819   0.618 -30.689  1.00  0.00     0.160 A 
BRANCH  29  32
HETATM   32  C   UNL     1      -7.042  -0.113 -34.719  1.00  0.00     0.409 C 
HETATM   33  F   UNL     1      -6.435   1.094 -34.746  1.00  0.00    -0.169 F 
HETATM   34  F   UNL     1      -6.114  -1.045 -35.021  1.00  0.00    -0.169 F 
HETATM   35  F   UNL     1      -7.938  -0.118 -35.741  1.00  0.00    -0.169 F 
ENDBRANCH  29  32
ENDBRANCH   1  21
TORSDOF 8
ENDMDL
MODEL 10
REMARK VINA RESULT:      -7.3      4.553      9.223
REMARK  8 active torsions:
REMARK  status: ('A' for Active; 'I' for Inactive)
REMARK    1  A    between atoms: C_8  and  C_9 
REMARK       I    between atoms: C_9  and  N_10 
REMARK    2  A    between atoms: N_10  and  N_11 
REMARK    3  A    between atoms: N_11  and  C_12 
REMARK    4  A    between atoms: C_12  and  N_13 
REMARK    5  A    between atoms: N_13  and  C_14 
REMARK    6  A    between atoms: C_15  and  O_16 
REMARK    7  A    between atoms: C_19  and  O_20 
REMARK    8  A    between atoms: C_26  and  C_27 
ROOT
HETATM    1  C   UNL     1      -4.401   2.993 -32.528  1.00  0.00     0.275 C 
HETATM    2  N   UNL     1      -3.817   4.105 -33.102  1.00  0.00    -0.263 N 
HETATM    3  O   UNL     1      -3.815   2.279 -31.716  1.00  0.00    -0.266 OA
HETATM    4  H   UNL     1      -4.204   4.523 -33.945  1.00  0.00     0.190 HD
ENDROOT
BRANCH   2   5
HETATM    5  N   UNL     1      -2.521   4.469 -32.721  1.00  0.00    -0.273 N 
HETATM    6  H   UNL     1      -1.968   3.708 -32.325  1.00  0.00     0.189 HD
BRANCH   5   7
HETATM    7  C   UNL     1      -1.840   5.474 -33.358  1.00  0.00     0.191 C 
HETATM    8  S   UNL     1      -1.279   5.385 -34.935  1.00  0.00    -0.039 SA
BRANCH   7   9
HETATM    9  N   UNL     1      -1.595   6.610 -32.642  1.00  0.00    -0.330 N 
HETATM   10  H   UNL     1      -1.836   7.474 -33.123  1.00  0.00     0.168 HD
BRANCH   9  11
HETATM   11  C   UNL     1      -1.163   6.807 -31.310  1.00  0.00     0.068 A 
HETATM   12  C   UNL     1      -2.163   6.948 -30.324  1.00  0.00     0.097 A 
HETATM   13  C   UNL     1      -1.808   7.101 -28.976  1.00  0.00     0.075 A 
HETATM   14  C   UNL     1      -0.463   7.103 -28.600  1.00  0.00     0.070 A 
HETATM   15  C   UNL     1       0.521   6.950 -29.576  1.00  0.00     0.039 A 
HETATM   16  C   UNL     1       0.177   6.791 -30.920  1.00  0.00     0.035 A 
BRANCH  12  17
HETATM   17  O   UNL     1      -3.458   6.912 -30.792  1.00  0.00    -0.354 OA
HETATM   18  C   UNL     1      -4.386   6.099 -30.085  1.00  0.00     0.210 C 
ENDBRANCH  12  17
BRANCH  14  19
HETATM   19  O   UNL     1       0.021   7.234 -27.328  1.00  0.00    -0.356 OA
HETATM   20  C   UNL     1      -0.719   6.616 -26.283  1.00  0.00     0.210 C 
ENDBRANCH  14  19
ENDBRANCH   9  11
ENDBRANCH   7   9
ENDBRANCH   5   7
ENDBRANCH   2   5
BRANCH   1  21
HETATM   21  C   UNL     1      -5.754   2.737 -32.968  1.00  0.00     0.098 A 
HETATM   22  C   UNL     1      -6.370   1.525 -33.223  1.00  0.00     0.138 A 
HETATM   23  N   UNL     1      -5.933   0.240 -33.214  1.00  0.00    -0.370 N 
HETATM   24  N   UNL     1      -7.650   1.833 -33.609  1.00  0.00    -0.240 N 
HETATM   25  C   UNL     1      -6.803  -0.870 -33.604  1.00  0.00     0.081 C 
HETATM   26  H   UNL     1      -4.941   0.018 -33.134  1.00  0.00     0.161 HD
HETATM   27  C   UNL     1      -5.958  -1.978 -34.232  1.00  0.00     0.032 C 
HETATM   28  C   UNL     1      -7.880  -0.387 -34.588  1.00  0.00     0.061 C 
HETATM   29  C   UNL     1      -8.621   0.851 -34.051  1.00  0.00     0.221 C 
HETATM   30  N   UNL     1      -7.889   3.150 -33.711  1.00  0.00    -0.181 NA
HETATM   31  C   UNL     1      -6.737   3.699 -33.309  1.00  0.00     0.160 A 
BRANCH  29  32
HETATM   32  C   UNL     1      -9.572   0.523 -32.924  1.00  0.00     0.409 C 
HETATM   33  F   UNL     1     -10.712   1.246 -32.958  1.00  0.00    -0.169 F 
HETATM   34  F   UNL     1      -9.916  -0.782 -32.895  1.00  0.00    -0.169 F 
HETATM   35  F   UNL     1      -8.980   0.791 -31.731  1.00  0.00    -0.169 F 
ENDBRANCH  29  32
ENDBRANCH   1  21
TORSDOF 8
ENDMDL
