MODEL 1
REMARK VINA RESULT:      -8.7      0.000      0.000
REMARK  2 active torsions:
REMARK  status: ('A' for Active; 'I' for Inactive)
REMARK    1  A    between atoms: C_10  and  C_11 
REMARK    2  A    between atoms: C_12  and  O_13 
ROOT
HETATM    1  C   UNL     1      -0.541   5.928 -34.630  1.00  0.00     0.076 C 
HETATM    2  C   UNL     1      -1.787   5.904 -33.837  1.00  0.00     0.050 A 
HETATM    3  O   UNL     1      -2.250   4.680 -33.459  1.00  0.00    -0.312 OA
HETATM    4  C   UNL     1      -3.399   4.875 -32.734  1.00  0.00     0.121 A 
HETATM    5  C   UNL     1      -4.147   3.803 -32.162  1.00  0.00     0.163 A 
HETATM    6  N   UNL     1      -5.260   3.922 -31.469  1.00  0.00    -0.221 NA
HETATM    7  C   UNL     1      -5.596   2.642 -31.065  1.00  0.00     0.149 A 
HETATM    8  C   UNL     1      -4.654   1.739 -31.537  1.00  0.00     0.046 A 
HETATM    9  C   UNL     1      -4.498   0.285 -31.273  1.00  0.00     0.070 C 
HETATM   10  C   UNL     1      -5.762  -0.560 -31.536  1.00  0.00     0.045 C 
HETATM   11  C   UNL     1      -7.106   0.199 -31.491  1.00  0.00     0.132 C 
HETATM   12  N   UNL     1      -7.279   1.049 -30.326  1.00  0.00    -0.355 N 
HETATM   13  C   UNL     1      -6.756   2.325 -30.226  1.00  0.00     0.272 C 
HETATM   14  O   UNL     1      -7.279   3.126 -29.453  1.00  0.00    -0.266 OA
HETATM   15  N   UNL     1      -3.758   2.493 -32.250  1.00  0.00    -0.340 N 
HETATM   16  H   UNL     1      -2.918   2.174 -32.714  1.00  0.00     0.167 HD
HETATM   17  C   UNL     1      -3.654   6.233 -32.663  1.00  0.00     0.043 A 
HETATM   18  C   UNL     1      -2.620   6.893 -33.367  1.00  0.00     0.035 A 
HETATM   19  H   UNL     1      -8.128   0.952 -29.784  1.00  0.00     0.162 HD
ENDROOT
BRANCH  10  20
HETATM   20  C   UNL     1      -5.610  -1.368 -32.827  1.00  0.00    -0.019 A 
HETATM   21  C   UNL     1      -4.486  -2.199 -33.035  1.00  0.00     0.074 A 
HETATM   22  C   UNL     1      -4.376  -2.933 -34.222  1.00  0.00     0.037 A 
HETATM   23  C   UNL     1      -5.357  -2.838 -35.210  1.00  0.00     0.003 A 
HETATM   24  C   UNL     1      -6.451  -2.001 -35.027  1.00  0.00     0.001 A 
HETATM   25  C   UNL     1      -6.574  -1.265 -33.848  1.00  0.00     0.010 A 
BRANCH  21  26
HETATM   26  O   UNL     1      -3.556  -2.220 -32.029  1.00  0.00    -0.355 OA
HETATM   27  C   UNL     1      -2.919  -3.458 -31.742  1.00  0.00     0.210 C 
ENDBRANCH  21  26
ENDBRANCH  10  20
TORSDOF 2
ENDMDL
MODEL 2
REMARK VINA RESULT:      -8.7      2.336      3.027
REMARK  2 active torsions:
REMARK  status: ('A' for Active; 'I' for Inactive)
REMARK    1  A    between atoms: C_10  and  C_11 
REMARK    2  A    between atoms: C_12  and  O_13 
ROOT
HETATM    1  C   UNL     1       1.046   4.978 -29.736  1.00  0.00     0.076 C 
HETATM    2  C   UNL     1      -0.043   5.210 -30.706  1.00  0.00     0.050 A 
HETATM    3  O   UNL     1      -0.981   4.229 -30.823  1.00  0.00    -0.312 OA
HETATM    4  C   UNL     1      -1.898   4.638 -31.759  1.00  0.00     0.121 A 
HETATM    5  C   UNL     1      -3.036   3.857 -32.123  1.00  0.00     0.163 A 
HETATM    6  N   UNL     1      -3.942   4.186 -33.019  1.00  0.00    -0.221 NA
HETATM    7  C   UNL     1      -4.883   3.172 -32.999  1.00  0.00     0.149 A 
HETATM    8  C   UNL     1      -4.519   2.213 -32.064  1.00  0.00     0.046 A 
HETATM    9  C   UNL     1      -5.250   1.013 -31.581  1.00  0.00     0.070 C 
HETATM   10  C   UNL     1      -5.736   0.061 -32.693  1.00  0.00     0.045 C 
HETATM   11  C   UNL     1      -5.908   0.686 -34.095  1.00  0.00     0.132 C 
HETATM   12  N   UNL     1      -6.655   1.932 -34.110  1.00  0.00    -0.355 N 
HETATM   13  C   UNL     1      -6.097   3.163 -33.822  1.00  0.00     0.272 C 
HETATM   14  O   UNL     1      -6.631   4.179 -34.263  1.00  0.00    -0.266 OA
HETATM   15  N   UNL     1      -3.332   2.655 -31.538  1.00  0.00    -0.340 N 
HETATM   16  H   UNL     1      -2.787   2.224 -30.804  1.00  0.00     0.167 HD
HETATM   17  C   UNL     1      -1.526   5.884 -32.230  1.00  0.00     0.043 A 
HETATM   18  C   UNL     1      -0.339   6.253 -31.554  1.00  0.00     0.035 A 
HETATM   19  H   UNL     1      -7.430   2.017 -34.757  1.00  0.00     0.162 HD
ENDROOT
BRANCH  10  20
HETATM   20  C   UNL     1      -4.869  -1.201 -32.738  1.00  0.00    -0.019 A 
HETATM   21  C   UNL     1      -5.150  -2.242 -33.651  1.00  0.00     0.074 A 
HETATM   22  C   UNL     1      -4.337  -3.381 -33.675  1.00  0.00     0.037 A 
HETATM   23  C   UNL     1      -3.263  -3.506 -32.794  1.00  0.00     0.003 A 
HETATM   24  C   UNL     1      -2.997  -2.501 -31.872  1.00  0.00     0.001 A 
HETATM   25  C   UNL     1      -3.797  -1.359 -31.839  1.00  0.00     0.010 A 
BRANCH  21  26
HETATM   26  O   UNL     1      -6.235  -2.054 -34.466  1.00  0.00    -0.355 OA
HETATM   27  C   UNL     1      -6.920  -3.208 -34.933  1.00  0.00     0.210 C 
ENDBRANCH  21  26
ENDBRANCH  10  20
TORSDOF 2
ENDMDL
MODEL 3
REMARK VINA RESULT:      -8.7      3.967      7.522
REMARK  2 active torsions:
REMARK  status: ('A' for Active; 'I' for Inactive)
REMARK    1  A    between atoms: C_10  and  C_11 
REMARK    2  A    between atoms: C_12  and  O_13 
ROOT
HETATM    1  C   UNL     1      -6.366  -4.831 -35.346  1.00  0.00     0.076 C 
HETATM    2  C   UNL     1      -5.792  -3.563 -34.853  1.00  0.00     0.050 A 
HETATM    3  O   UNL     1      -6.660  -2.670 -34.303  1.00  0.00    -0.312 OA
HETATM    4  C   UNL     1      -5.936  -1.574 -33.906  1.00  0.00     0.121 A 
HETATM    5  C   UNL     1      -6.526  -0.441 -33.269  1.00  0.00     0.163 A 
HETATM    6  N   UNL     1      -5.890   0.642 -32.877  1.00  0.00    -0.221 NA
HETATM    7  C   UNL     1      -6.839   1.440 -32.262  1.00  0.00     0.149 A 
HETATM    8  C   UNL     1      -8.074   0.808 -32.295  1.00  0.00     0.046 A 
HETATM    9  C   UNL     1      -9.366   1.187 -31.667  1.00  0.00     0.070 C 
HETATM   10  C   UNL     1      -9.844   2.620 -31.984  1.00  0.00     0.045 C 
HETATM   11  C   UNL     1      -8.748   3.622 -32.408  1.00  0.00     0.132 C 
HETATM   12  N   UNL     1      -7.582   3.640 -31.541  1.00  0.00    -0.355 N 
HETATM   13  C   UNL     1      -6.543   2.733 -31.638  1.00  0.00     0.272 C 
HETATM   14  O   UNL     1      -5.435   3.046 -31.206  1.00  0.00    -0.266 OA
HETATM   15  N   UNL     1      -7.858  -0.372 -32.959  1.00  0.00    -0.340 N 
HETATM   16  H   UNL     1      -8.529  -1.105 -33.144  1.00  0.00     0.167 HD
HETATM   17  C   UNL     1      -4.604  -1.787 -34.215  1.00  0.00     0.043 A 
HETATM   18  C   UNL     1      -4.511  -3.062 -34.820  1.00  0.00     0.035 A 
HETATM   19  H   UNL     1      -7.264   4.533 -31.185  1.00  0.00     0.162 HD
ENDROOT
BRANCH  10  20
HETATM   20  C   UNL     1     -11.003   2.591 -32.984  1.00  0.00    -0.019 A 
HETATM   21  C   UNL     1     -12.177   3.343 -32.755  1.00  0.00     0.074 A 
HETATM   22  C   UNL     1     -13.219   3.304 -33.689  1.00  0.00     0.037 A 
HETATM   23  C   UNL     1     -13.116   2.516 -34.836  1.00  0.00     0.003 A 
HETATM   24  C   UNL     1     -11.977   1.750 -35.055  1.00  0.00     0.001 A 
HETATM   25  C   UNL     1     -10.931   1.781 -34.133  1.00  0.00     0.010 A 
BRANCH  21  26
HETATM   26  O   UNL     1     -12.211   4.072 -31.596  1.00  0.00    -0.355 OA
HETATM   27  C   UNL     1     -13.423   4.080 -30.853  1.00  0.00     0.210 C 
ENDBRANCH  21  26
ENDBRANCH  10  20
TORSDOF 2
ENDMDL
MODEL 4
REMARK VINA RESULT:      -8.5      3.638      8.908
REMARK  2 active torsions:
REMARK  status: ('A' for Active; 'I' for Inactive)
REMARK    1  A    between atoms: C_10  and  C_11 
REMARK    2  A    between atoms: C_12  and  O_13 
ROOT
HETATM    1  C   UNL     1      -6.013   0.142 -29.733  1.00  0.00     0.076 C 
HETATM    2  C   UNL     1      -5.520   0.834 -30.940  1.00  0.00     0.050 A 
HETATM    3  O   UNL     1      -4.625   1.842 -30.747  1.00  0.00    -0.312 OA
HETATM    4  C   UNL     1      -4.290   2.345 -31.979  1.00  0.00     0.121 A 
HETATM    5  C   UNL     1      -3.354   3.408 -32.156  1.00  0.00     0.163 A 
HETATM    6  N   UNL     1      -3.001   3.941 -33.306  1.00  0.00    -0.221 NA
HETATM    7  C   UNL     1      -2.036   4.886 -33.007  1.00  0.00     0.149 A 
HETATM    8  C   UNL     1      -1.815   4.914 -31.637  1.00  0.00     0.046 A 
HETATM    9  C   UNL     1      -0.802   5.653 -30.840  1.00  0.00     0.070 C 
HETATM   10  C   UNL     1      -0.759   7.173 -31.099  1.00  0.00     0.045 C 
HETATM   11  C   UNL     1      -1.321   7.646 -32.458  1.00  0.00     0.132 C 
HETATM   12  N   UNL     1      -0.822   6.907 -33.605  1.00  0.00    -0.355 N 
HETATM   13  C   UNL     1      -1.336   5.691 -34.014  1.00  0.00     0.272 C 
HETATM   14  O   UNL     1      -1.190   5.345 -35.185  1.00  0.00    -0.266 OA
HETATM   15  N   UNL     1      -2.678   3.986 -31.115  1.00  0.00    -0.340 N 
HETATM   16  H   UNL     1      -2.774   3.712 -30.146  1.00  0.00     0.167 HD
HETATM   17  C   UNL     1      -4.986   1.645 -32.948  1.00  0.00     0.043 A 
HETATM   18  C   UNL     1      -5.773   0.675 -32.283  1.00  0.00     0.035 A 
HETATM   19  H   UNL     1      -0.442   7.431 -34.383  1.00  0.00     0.162 HD
ENDROOT
BRANCH  10  20
HETATM   20  C   UNL     1      -1.389   7.936 -29.930  1.00  0.00    -0.019 A 
HETATM   21  C   UNL     1      -0.608   8.342 -28.825  1.00  0.00     0.074 A 
HETATM   22  C   UNL     1      -1.208   9.044 -27.772  1.00  0.00     0.037 A 
HETATM   23  C   UNL     1      -2.573   9.331 -27.796  1.00  0.00     0.003 A 
HETATM   24  C   UNL     1      -3.355   8.909 -28.865  1.00  0.00     0.001 A 
HETATM   25  C   UNL     1      -2.770   8.211 -29.921  1.00  0.00     0.010 A 
BRANCH  21  26
HETATM   26  O   UNL     1       0.719   8.003 -28.865  1.00  0.00    -0.355 OA
HETATM   27  C   UNL     1       1.552   8.461 -27.809  1.00  0.00     0.210 C 
ENDBRANCH  21  26
ENDBRANCH  10  20
TORSDOF 2
ENDMDL
MODEL 5
REMARK VINA RESULT:      -8.5      2.724      3.529
REMARK  2 active torsions:
REMARK  status: ('A' for Active; 'I' for Inactive)
REMARK    1  A    between atoms: C_10  and  C_11 
REMARK    2  A    between atoms: C_12  and  O_13 
ROOT
HETATM    1  C   UNL     1       1.543   4.583 -29.425  1.00  0.00     0.076 C 
HETATM    2  C   UNL     1       0.467   5.216 -30.212  1.00  0.00     0.050 A 
HETATM    3  O   UNL     1      -0.647   4.467 -30.442  1.00  0.00    -0.312 OA
HETATM    4  C   UNL     1      -1.520   5.231 -31.176  1.00  0.00     0.121 A 
HETATM    5  C   UNL     1      -2.805   4.765 -31.585  1.00  0.00     0.163 A 
HETATM    6  N   UNL     1      -3.680   5.443 -32.298  1.00  0.00    -0.221 NA
HETATM    7  C   UNL     1      -4.797   4.631 -32.401  1.00  0.00     0.149 A 
HETATM    8  C   UNL     1      -4.572   3.437 -31.731  1.00  0.00     0.046 A 
HETATM    9  C   UNL     1      -5.492   2.307 -31.445  1.00  0.00     0.070 C 
HETATM   10  C   UNL     1      -6.214   1.731 -32.681  1.00  0.00     0.045 C 
HETATM   11  C   UNL     1      -6.341   2.678 -33.894  1.00  0.00     0.132 C 
HETATM   12  N   UNL     1      -6.834   4.006 -33.572  1.00  0.00    -0.355 N 
HETATM   13  C   UNL     1      -6.033   5.022 -33.085  1.00  0.00     0.272 C 
HETATM   14  O   UNL     1      -6.386   6.189 -33.246  1.00  0.00    -0.266 OA
HETATM   15  N   UNL     1      -3.295   3.534 -31.242  1.00  0.00    -0.340 N 
HETATM   16  H   UNL     1      -2.802   2.859 -30.673  1.00  0.00     0.167 HD
HETATM   17  C   UNL     1      -0.942   6.467 -31.407  1.00  0.00     0.043 A 
HETATM   18  C   UNL     1       0.330   6.459 -30.787  1.00  0.00     0.035 A 
HETATM   19  H   UNL     1      -7.613   4.370 -34.107  1.00  0.00     0.162 HD
ENDROOT
BRANCH  10  20
HETATM   20  C   UNL     1      -5.611   0.381 -33.076  1.00  0.00    -0.019 A 
HETATM   21  C   UNL     1      -6.398  -0.609 -33.705  1.00  0.00     0.074 A 
HETATM   22  C   UNL     1      -5.819  -1.833 -34.063  1.00  0.00     0.037 A 
HETATM   23  C   UNL     1      -4.476  -2.091 -33.787  1.00  0.00     0.003 A 
HETATM   24  C   UNL     1      -3.701  -1.134 -33.142  1.00  0.00     0.001 A 
HETATM   25  C   UNL     1      -4.265   0.090 -32.782  1.00  0.00     0.010 A 
BRANCH  21  26
HETATM   26  O   UNL     1      -7.713  -0.289 -33.920  1.00  0.00    -0.355 OA
HETATM   27  C   UNL     1      -8.119  -0.019 -35.255  1.00  0.00     0.210 C 
ENDBRANCH  21  26
ENDBRANCH  10  20
TORSDOF 2
ENDMDL
MODEL 6
REMARK VINA RESULT:      -8.4      3.277      6.792
REMARK  2 active torsions:
REMARK  status: ('A' for Active; 'I' for Inactive)
REMARK    1  A    between atoms: C_10  and  C_11 
REMARK    2  A    between atoms: C_12  and  O_13 
ROOT
HETATM    1  C   UNL     1     -12.317   3.881 -35.460  1.00  0.00     0.076 C 
HETATM    2  C   UNL     1     -11.613   2.817 -34.716  1.00  0.00     0.050 A 
HETATM    3  O   UNL     1     -10.412   3.146 -34.164  1.00  0.00    -0.312 OA
HETATM    4  C   UNL     1      -9.931   2.034 -33.519  1.00  0.00     0.121 A 
HETATM    5  C   UNL     1      -8.692   2.023 -32.809  1.00  0.00     0.163 A 
HETATM    6  N   UNL     1      -8.172   0.989 -32.183  1.00  0.00    -0.221 NA
HETATM    7  C   UNL     1      -7.008   1.449 -31.592  1.00  0.00     0.149 A 
HETATM    8  C   UNL     1      -6.835   2.795 -31.882  1.00  0.00     0.046 A 
HETATM    9  C   UNL     1      -5.825   3.765 -31.385  1.00  0.00     0.070 C 
HETATM   10  C   UNL     1      -4.359   3.315 -31.552  1.00  0.00     0.045 C 
HETATM   11  C   UNL     1      -4.126   1.793 -31.675  1.00  0.00     0.132 C 
HETATM   12  N   UNL     1      -4.805   0.998 -30.666  1.00  0.00    -0.355 N 
HETATM   13  C   UNL     1      -6.133   0.624 -30.753  1.00  0.00     0.272 C 
HETATM   14  O   UNL     1      -6.515  -0.368 -30.136  1.00  0.00    -0.266 OA
HETATM   15  N   UNL     1      -7.902   3.133 -32.675  1.00  0.00    -0.340 N 
HETATM   16  H   UNL     1      -8.123   4.044 -33.052  1.00  0.00     0.167 HD
HETATM   17  C   UNL     1     -10.840   1.003 -33.674  1.00  0.00     0.043 A 
HETATM   18  C   UNL     1     -11.919   1.504 -34.438  1.00  0.00     0.035 A 
HETATM   19  H   UNL     1      -4.261   0.321 -30.145  1.00  0.00     0.162 HD
ENDROOT
BRANCH  10  20
HETATM   20  C   UNL     1      -3.687   4.085 -32.692  1.00  0.00    -0.019 A 
HETATM   21  C   UNL     1      -2.327   4.460 -32.611  1.00  0.00     0.074 A 
HETATM   22  C   UNL     1      -1.736   5.158 -33.672  1.00  0.00     0.037 A 
HETATM   23  C   UNL     1      -2.481   5.502 -34.800  1.00  0.00     0.003 A 
HETATM   24  C   UNL     1      -3.828   5.163 -34.875  1.00  0.00     0.001 A 
HETATM   25  C   UNL     1      -4.429   4.466 -33.827  1.00  0.00     0.010 A 
BRANCH  21  26
HETATM   26  O   UNL     1      -1.670   4.106 -31.463  1.00  0.00    -0.355 OA
HETATM   27  C   UNL     1      -0.784   5.057 -30.887  1.00  0.00     0.210 C 
ENDBRANCH  21  26
ENDBRANCH  10  20
TORSDOF 2
ENDMDL
MODEL 7
REMARK VINA RESULT:      -8.4      3.546      4.461
REMARK  2 active torsions:
REMARK  status: ('A' for Active; 'I' for Inactive)
REMARK    1  A    between atoms: C_10  and  C_11 
REMARK    2  A    between atoms: C_12  and  O_13 
ROOT
HETATM    1  C   UNL     1      -5.657   5.763 -27.557  1.00  0.00     0.076 C 
HETATM    2  C   UNL     1      -6.498   5.753 -28.770  1.00  0.00     0.050 A 
HETATM    3  O   UNL     1      -6.648   4.556 -29.402  1.00  0.00    -0.312 OA
HETATM    4  C   UNL     1      -7.461   4.757 -30.489  1.00  0.00     0.121 A 
HETATM    5  C   UNL     1      -7.847   3.707 -31.375  1.00  0.00     0.163 A 
HETATM    6  N   UNL     1      -8.612   3.836 -32.439  1.00  0.00    -0.221 NA
HETATM    7  C   UNL     1      -8.768   2.561 -32.953  1.00  0.00     0.149 A 
HETATM    8  C   UNL     1      -8.071   1.652 -32.171  1.00  0.00     0.046 A 
HETATM    9  C   UNL     1      -8.027   0.168 -32.228  1.00  0.00     0.070 C 
HETATM   10  C   UNL     1      -7.672  -0.416 -33.611  1.00  0.00     0.045 C 
HETATM   11  C   UNL     1      -7.945   0.500 -34.825  1.00  0.00     0.132 C 
HETATM   12  N   UNL     1      -9.265   1.106 -34.837  1.00  0.00    -0.355 N 
HETATM   13  C   UNL     1      -9.591   2.245 -34.125  1.00  0.00     0.272 C 
HETATM   14  O   UNL     1     -10.537   2.934 -34.502  1.00  0.00    -0.266 OA
HETATM   15  N   UNL     1      -7.475   2.402 -31.190  1.00  0.00    -0.340 N 
HETATM   16  H   UNL     1      -6.910   2.070 -30.420  1.00  0.00     0.167 HD
HETATM   17  C   UNL     1      -7.819   6.093 -30.535  1.00  0.00     0.043 A 
HETATM   18  C   UNL     1      -7.204   6.731 -29.432  1.00  0.00     0.035 A 
HETATM   19  H   UNL     1      -9.823   1.019 -35.677  1.00  0.00     0.162 HD
ENDROOT
BRANCH  10  20
HETATM   20  C   UNL     1      -6.238  -0.952 -33.617  1.00  0.00    -0.019 A 
HETATM   21  C   UNL     1      -5.937  -2.211 -34.183  1.00  0.00     0.074 A 
HETATM   22  C   UNL     1      -4.615  -2.674 -34.181  1.00  0.00     0.037 A 
HETATM   23  C   UNL     1      -3.596  -1.912 -33.609  1.00  0.00     0.003 A 
HETATM   24  C   UNL     1      -3.888  -0.686 -33.023  1.00  0.00     0.001 A 
HETATM   25  C   UNL     1      -5.200  -0.212 -33.020  1.00  0.00     0.010 A 
BRANCH  21  26
HETATM   26  O   UNL     1      -6.995  -2.908 -34.704  1.00  0.00    -0.355 OA
HETATM   27  C   UNL     1      -6.774  -4.260 -35.086  1.00  0.00     0.210 C 
ENDBRANCH  21  26
ENDBRANCH  10  20
TORSDOF 2
ENDMDL
MODEL 8
REMARK VINA RESULT:      -8.3      3.953      5.420
REMARK  2 active torsions:
REMARK  status: ('A' for Active; 'I' for Inactive)
REMARK    1  A    between atoms: C_10  and  C_11 
REMARK    2  A    between atoms: C_12  and  O_13 
ROOT
HETATM    1  C   UNL     1      -1.595   5.905 -34.515  1.00  0.00     0.076 C 
HETATM    2  C   UNL     1      -2.158   5.025 -33.471  1.00  0.00     0.050 A 
HETATM    3  O   UNL     1      -3.357   4.440 -33.742  1.00  0.00    -0.312 OA
HETATM    4  C   UNL     1      -3.698   3.666 -32.662  1.00  0.00     0.121 A 
HETATM    5  C   UNL     1      -4.895   2.890 -32.609  1.00  0.00     0.163 A 
HETATM    6  N   UNL     1      -5.284   2.139 -31.600  1.00  0.00    -0.221 NA
HETATM    7  C   UNL     1      -6.458   1.531 -32.008  1.00  0.00     0.149 A 
HETATM    8  C   UNL     1      -6.773   1.939 -33.297  1.00  0.00     0.046 A 
HETATM    9  C   UNL     1      -7.848   1.481 -34.215  1.00  0.00     0.070 C 
HETATM   10  C   UNL     1      -9.270   1.522 -33.618  1.00  0.00     0.045 C 
HETATM   11  C   UNL     1      -9.360   1.486 -32.077  1.00  0.00     0.132 C 
HETATM   12  N   UNL     1      -8.561   0.445 -31.452  1.00  0.00    -0.355 N 
HETATM   13  C   UNL     1      -7.209   0.569 -31.195  1.00  0.00     0.272 C 
HETATM   14  O   UNL     1      -6.704  -0.118 -30.309  1.00  0.00    -0.266 OA
HETATM   15  N   UNL     1      -5.783   2.819 -33.649  1.00  0.00    -0.340 N 
HETATM   16  H   UNL     1      -5.668   3.294 -34.534  1.00  0.00     0.167 HD
HETATM   17  C   UNL     1      -2.702   3.772 -31.708  1.00  0.00     0.043 A 
HETATM   18  C   UNL     1      -1.713   4.640 -32.227  1.00  0.00     0.035 A 
HETATM   19  H   UNL     1      -9.012  -0.168 -30.785  1.00  0.00     0.162 HD
ENDROOT
BRANCH  10  20
HETATM   20  C   UNL     1     -10.066   2.692 -34.205  1.00  0.00    -0.019 A 
HETATM   21  C   UNL     1     -11.388   2.509 -34.667  1.00  0.00     0.074 A 
HETATM   22  C   UNL     1     -12.096   3.598 -35.192  1.00  0.00     0.037 A 
HETATM   23  C   UNL     1     -11.501   4.856 -35.280  1.00  0.00     0.003 A 
HETATM   24  C   UNL     1     -10.190   5.038 -34.855  1.00  0.00     0.001 A 
HETATM   25  C   UNL     1      -9.474   3.964 -34.327  1.00  0.00     0.010 A 
BRANCH  21  26
HETATM   26  O   UNL     1     -11.893   1.239 -34.569  1.00  0.00    -0.355 OA
HETATM   27  C   UNL     1     -13.018   1.038 -33.724  1.00  0.00     0.210 C 
ENDBRANCH  21  26
ENDBRANCH  10  20
TORSDOF 2
ENDMDL
MODEL 9
REMARK VINA RESULT:      -8.1      2.186      2.484
REMARK  2 active torsions:
REMARK  status: ('A' for Active; 'I' for Inactive)
REMARK    1  A    between atoms: C_10  and  C_11 
REMARK    2  A    between atoms: C_12  and  O_13 
ROOT
HETATM    1  C   UNL     1       0.833   4.991 -30.865  1.00  0.00     0.076 C 
HETATM    2  C   UNL     1      -0.383   5.370 -31.613  1.00  0.00     0.050 A 
HETATM    3  O   UNL     1      -1.380   4.445 -31.672  1.00  0.00    -0.312 OA
HETATM    4  C   UNL     1      -2.411   4.988 -32.397  1.00  0.00     0.121 A 
HETATM    5  C   UNL     1      -3.635   4.296 -32.645  1.00  0.00     0.163 A 
HETATM    6  N   UNL     1      -4.653   4.756 -33.341  1.00  0.00    -0.221 NA
HETATM    7  C   UNL     1      -5.635   3.783 -33.268  1.00  0.00     0.149 A 
HETATM    8  C   UNL     1      -5.180   2.715 -32.508  1.00  0.00     0.046 A 
HETATM    9  C   UNL     1      -5.890   1.499 -32.035  1.00  0.00     0.070 C 
HETATM   10  C   UNL     1      -6.601   0.693 -33.142  1.00  0.00     0.045 C 
HETATM   11  C   UNL     1      -6.959   1.474 -34.425  1.00  0.00     0.132 C 
HETATM   12  N   UNL     1      -7.629   2.742 -34.191  1.00  0.00    -0.355 N 
HETATM   13  C   UNL     1      -6.963   3.911 -33.875  1.00  0.00     0.272 C 
HETATM   14  O   UNL     1      -7.503   4.989 -34.117  1.00  0.00    -0.266 OA
HETATM   15  N   UNL     1      -3.901   3.051 -32.143  1.00  0.00    -0.340 N 
HETATM   16  H   UNL     1      -3.270   2.522 -31.557  1.00  0.00     0.167 HD
HETATM   17  C   UNL     1      -2.050   6.263 -32.795  1.00  0.00     0.043 A 
HETATM   18  C   UNL     1      -0.752   6.509 -32.291  1.00  0.00     0.035 A 
HETATM   19  H   UNL     1      -8.491   2.927 -34.688  1.00  0.00     0.162 HD
ENDROOT
BRANCH  10  20
HETATM   20  C   UNL     1      -5.825  -0.589 -33.456  1.00  0.00    -0.019 A 
HETATM   21  C   UNL     1      -4.652  -0.921 -32.741  1.00  0.00     0.074 A 
HETATM   22  C   UNL     1      -3.966  -2.103 -33.045  1.00  0.00     0.037 A 
HETATM   23  C   UNL     1      -4.419  -2.947 -34.059  1.00  0.00     0.003 A 
HETATM   24  C   UNL     1      -5.555  -2.614 -34.788  1.00  0.00     0.001 A 
HETATM   25  C   UNL     1      -6.249  -1.440 -34.494  1.00  0.00     0.010 A 
BRANCH  21  26
HETATM   26  O   UNL     1      -4.260  -0.030 -31.777  1.00  0.00    -0.355 OA
HETATM   27  C   UNL     1      -2.951  -0.169 -31.241  1.00  0.00     0.210 C 
ENDBRANCH  21  26
ENDBRANCH  10  20
TORSDOF 2
ENDMDL
MODEL 10
REMARK VINA RESULT:      -8.0     15.534     17.521
REMARK  2 active torsions:
REMARK  status: ('A' for Active; 'I' for Inactive)
REMARK    1  A    between atoms: C_10  and  C_11 
REMARK    2  A    between atoms: C_12  and  O_13 
ROOT
HETATM    1  C   UNL     1      -6.772 -16.789 -32.027  1.00  0.00     0.076 C 
HETATM    2  C   UNL     1      -5.789 -16.173 -32.940  1.00  0.00     0.050 A 
HETATM    3  O   UNL     1      -6.286 -15.502 -34.015  1.00  0.00    -0.312 OA
HETATM    4  C   UNL     1      -5.223 -15.005 -34.726  1.00  0.00     0.121 A 
HETATM    5  C   UNL     1      -5.377 -14.228 -35.913  1.00  0.00     0.163 A 
HETATM    6  N   UNL     1      -4.400 -13.735 -36.645  1.00  0.00    -0.221 NA
HETATM    7  C   UNL     1      -5.009 -13.007 -37.652  1.00  0.00     0.149 A 
HETATM    8  C   UNL     1      -6.388 -13.077 -37.513  1.00  0.00     0.046 A 
HETATM    9  C   UNL     1      -7.467 -12.373 -38.254  1.00  0.00     0.070 C 
HETATM   10  C   UNL     1      -7.395 -12.514 -39.788  1.00  0.00     0.045 C 
HETATM   11  C   UNL     1      -6.007 -12.853 -40.374  1.00  0.00     0.132 C 
HETATM   12  N   UNL     1      -4.924 -12.023 -39.874  1.00  0.00    -0.355 N 
HETATM   13  C   UNL     1      -4.278 -12.250 -38.673  1.00  0.00     0.272 C 
HETATM   14  O   UNL     1      -3.138 -11.818 -38.518  1.00  0.00    -0.266 OA
HETATM   15  N   UNL     1      -6.600 -13.875 -36.418  1.00  0.00    -0.340 N 
HETATM   16  H   UNL     1      -7.486 -14.122 -36.000  1.00  0.00     0.167 HD
HETATM   17  C   UNL     1      -4.052 -15.373 -34.088  1.00  0.00     0.043 A 
HETATM   18  C   UNL     1      -4.414 -16.120 -32.942  1.00  0.00     0.035 A 
HETATM   19  H   UNL     1      -4.313 -11.578 -40.547  1.00  0.00     0.162 HD
ENDROOT
BRANCH  10  20
HETATM   20  C   UNL     1      -8.473 -13.477 -40.292  1.00  0.00    -0.019 A 
HETATM   21  C   UNL     1      -9.829 -13.084 -40.346  1.00  0.00     0.074 A 
HETATM   22  C   UNL     1     -10.794 -13.983 -40.817  1.00  0.00     0.037 A 
HETATM   23  C   UNL     1     -10.431 -15.270 -41.217  1.00  0.00     0.003 A 
HETATM   24  C   UNL     1      -9.104 -15.675 -41.138  1.00  0.00     0.001 A 
HETATM   25  C   UNL     1      -8.132 -14.789 -40.673  1.00  0.00     0.010 A 
BRANCH  21  26
HETATM   26  O   UNL     1     -10.108 -11.814 -39.915  1.00  0.00    -0.355 OA
HETATM   27  C   UNL     1     -11.030 -11.044 -40.675  1.00  0.00     0.210 C 
ENDBRANCH  21  26
ENDBRANCH  10  20
TORSDOF 2
ENDMDL
