MODEL 1
REMARK VINA RESULT:      -8.5      0.000      0.000
REMARK  5 active torsions:
REMARK  status: ('A' for Active; 'I' for Inactive)
REMARK    1  A    between atoms: C_5  and  C_6 
REMARK    2  A    between atoms: C_9  and  O_10 
REMARK    3  A    between atoms: O_10  and  C_11 
REMARK    4  A    between atoms: C_11  and  C_12 
REMARK       I    between atoms: C_12  and  N_13 
REMARK    5  A    between atoms: N_13  and  C_14 
ROOT
HETATM    1  C   UNL     1      -7.563   0.693 -34.994  1.00  0.00     0.278 C 
ENDROOT
BRANCH   1   2
HETATM    2  O   UNL     1      -7.661   1.772 -34.068  1.00  0.00    -0.342 OA
BRANCH   2   3
HETATM    3  C   UNL     1      -6.480   2.303 -33.629  1.00  0.00     0.069 A 
HETATM    4  C   UNL     1      -6.165   3.564 -34.138  1.00  0.00     0.038 A 
HETATM    5  C   UNL     1      -5.002   4.221 -33.728  1.00  0.00     0.018 A 
HETATM    6  C   UNL     1      -4.147   3.636 -32.784  1.00  0.00     0.015 A 
HETATM    7  C   UNL     1      -4.485   2.377 -32.264  1.00  0.00     0.018 A 
HETATM    8  C   UNL     1      -5.646   1.714 -32.680  1.00  0.00     0.038 A 
BRANCH   6   9
HETATM    9  C   UNL     1      -2.943   4.330 -32.349  1.00  0.00     0.198 A 
HETATM   10  N   UNL     1      -2.052   3.787 -31.448  1.00  0.00    -0.136 NA
HETATM   11  N   UNL     1      -1.077   4.670 -31.289  1.00  0.00     0.024 NA
HETATM   12  N   UNL     1      -1.416   5.693 -32.086  1.00  0.00    -0.196 N 
HETATM   13  C   UNL     1      -0.586   6.858 -32.226  1.00  0.00     0.200 C 
HETATM   14  N   UNL     1      -2.563   5.550 -32.773  1.00  0.00    -0.137 NA
ENDBRANCH   6   9
ENDBRANCH   2   3
ENDBRANCH   1   2
BRANCH   1  15
HETATM   15  C   UNL     1      -7.230  -0.666 -34.366  1.00  0.00     0.246 C 
HETATM   16  N   UNL     1      -6.110  -1.258 -34.916  1.00  0.00    -0.324 N 
HETATM   17  H   UNL     1      -5.670  -0.742 -35.671  1.00  0.00     0.169 HD
HETATM   18  O   UNL     1      -7.942  -1.130 -33.478  1.00  0.00    -0.271 OA
BRANCH  16  19
HETATM   19  C   UNL     1      -5.523  -2.495 -34.586  1.00  0.00     0.047 A 
HETATM   20  C   UNL     1      -4.533  -2.520 -33.569  1.00  0.00     0.019 A 
HETATM   21  C   UNL     1      -3.943  -3.738 -33.223  1.00  0.00     0.044 A 
HETATM   22  C   UNL     1      -3.921  -1.525 -32.744  1.00  0.00     0.033 A 
HETATM   23  N   UNL     1      -3.022  -3.484 -32.231  1.00  0.00    -0.365 N 
HETATM   24  C   UNL     1      -4.288  -4.947 -33.834  1.00  0.00     0.030 A 
HETATM   25  H   UNL     1      -2.446  -4.190 -31.792  1.00  0.00     0.165 HD
HETATM   26  C   UNL     1      -2.998  -2.149 -31.936  1.00  0.00     0.089 A 
HETATM   27  C   UNL     1      -5.262  -4.908 -34.831  1.00  0.00     0.005 A 
HETATM   28  C   UNL     1      -5.867  -3.706 -35.204  1.00  0.00     0.030 A 
ENDBRANCH  16  19
ENDBRANCH   1  15
TORSDOF 5
ENDMDL
MODEL 2
REMARK VINA RESULT:      -8.3      4.485      8.347
REMARK  5 active torsions:
REMARK  status: ('A' for Active; 'I' for Inactive)
REMARK    1  A    between atoms: C_5  and  C_6 
REMARK    2  A    between atoms: C_9  and  O_10 
REMARK    3  A    between atoms: O_10  and  C_11 
REMARK    4  A    between atoms: C_11  and  C_12 
REMARK       I    between atoms: C_12  and  N_13 
REMARK    5  A    between atoms: N_13  and  C_14 
ROOT
HETATM    1  C   UNL     1      -8.128   3.257 -32.762  1.00  0.00     0.278 C 
ENDROOT
BRANCH   1   2
HETATM    2  O   UNL     1      -7.489   2.957 -33.999  1.00  0.00    -0.342 OA
BRANCH   2   3
HETATM    3  C   UNL     1      -7.062   1.669 -34.165  1.00  0.00     0.069 A 
HETATM    4  C   UNL     1      -6.020   1.270 -33.328  1.00  0.00     0.038 A 
HETATM    5  C   UNL     1      -5.530  -0.037 -33.382  1.00  0.00     0.018 A 
HETATM    6  C   UNL     1      -6.093  -0.973 -34.261  1.00  0.00     0.015 A 
HETATM    7  C   UNL     1      -7.154  -0.567 -35.083  1.00  0.00     0.018 A 
HETATM    8  C   UNL     1      -7.640   0.746 -35.036  1.00  0.00     0.038 A 
BRANCH   6   9
HETATM    9  C   UNL     1      -5.589  -2.339 -34.305  1.00  0.00     0.198 A 
HETATM   10  N   UNL     1      -6.307  -3.383 -34.850  1.00  0.00    -0.136 NA
HETATM   11  N   UNL     1      -5.554  -4.468 -34.737  1.00  0.00     0.024 NA
HETATM   12  N   UNL     1      -4.435  -4.042 -34.137  1.00  0.00    -0.196 N 
HETATM   13  C   UNL     1      -3.334  -4.924 -33.860  1.00  0.00     0.200 C 
HETATM   14  N   UNL     1      -4.388  -2.731 -33.840  1.00  0.00    -0.137 NA
ENDBRANCH   6   9
ENDBRANCH   2   3
ENDBRANCH   1   2
BRANCH   1  15
HETATM   15  C   UNL     1      -9.381   2.423 -32.466  1.00  0.00     0.246 C 
HETATM   16  N   UNL     1     -10.411   2.659 -33.354  1.00  0.00    -0.324 N 
HETATM   17  H   UNL     1     -10.224   3.360 -34.064  1.00  0.00     0.169 HD
HETATM   18  O   UNL     1      -9.402   1.656 -31.507  1.00  0.00    -0.271 OA
BRANCH  16  19
HETATM   19  C   UNL     1     -11.693   2.075 -33.382  1.00  0.00     0.047 A 
HETATM   20  C   UNL     1     -12.810   2.892 -33.065  1.00  0.00     0.019 A 
HETATM   21  C   UNL     1     -14.091   2.333 -33.092  1.00  0.00     0.044 A 
HETATM   22  C   UNL     1     -12.974   4.259 -32.678  1.00  0.00     0.033 A 
HETATM   23  N   UNL     1     -14.982   3.324 -32.742  1.00  0.00    -0.365 N 
HETATM   24  C   UNL     1     -14.327   0.996 -33.424  1.00  0.00     0.030 A 
HETATM   25  H   UNL     1     -15.982   3.196 -32.679  1.00  0.00     0.165 HD
HETATM   26  C   UNL     1     -14.316   4.491 -32.485  1.00  0.00     0.089 A 
HETATM   27  C   UNL     1     -13.220   0.206 -33.733  1.00  0.00     0.005 A 
HETATM   28  C   UNL     1     -11.927   0.732 -33.709  1.00  0.00     0.030 A 
ENDBRANCH  16  19
ENDBRANCH   1  15
TORSDOF 5
ENDMDL
MODEL 3
REMARK VINA RESULT:      -8.3      3.622      6.641
REMARK  5 active torsions:
REMARK  status: ('A' for Active; 'I' for Inactive)
REMARK    1  A    between atoms: C_5  and  C_6 
REMARK    2  A    between atoms: C_9  and  O_10 
REMARK    3  A    between atoms: O_10  and  C_11 
REMARK    4  A    between atoms: C_11  and  C_12 
REMARK       I    between atoms: C_12  and  N_13 
REMARK    5  A    between atoms: N_13  and  C_14 
ROOT
HETATM    1  C   UNL     1      -5.395   1.779 -32.240  1.00  0.00     0.278 C 
ENDROOT
BRANCH   1   2
HETATM    2  O   UNL     1      -5.839   2.124 -33.549  1.00  0.00    -0.342 OA
BRANCH   2   3
HETATM    3  C   UNL     1      -7.190   2.097 -33.757  1.00  0.00     0.069 A 
HETATM    4  C   UNL     1      -7.679   0.942 -34.370  1.00  0.00     0.038 A 
HETATM    5  C   UNL     1      -9.049   0.788 -34.597  1.00  0.00     0.018 A 
HETATM    6  C   UNL     1      -9.954   1.778 -34.193  1.00  0.00     0.015 A 
HETATM    7  C   UNL     1      -9.454   2.926 -33.559  1.00  0.00     0.018 A 
HETATM    8  C   UNL     1      -8.079   3.085 -33.339  1.00  0.00     0.038 A 
BRANCH   6   9
HETATM    9  C   UNL     1     -11.383   1.608 -34.419  1.00  0.00     0.198 A 
HETATM   10  N   UNL     1     -12.061   2.251 -35.433  1.00  0.00    -0.136 NA
HETATM   11  N   UNL     1     -13.326   1.863 -35.357  1.00  0.00     0.024 NA
HETATM   12  N   UNL     1     -13.359   1.019 -34.317  1.00  0.00    -0.196 N 
HETATM   13  C   UNL     1     -14.564   0.344 -33.919  1.00  0.00     0.200 C 
HETATM   14  N   UNL     1     -12.188   0.815 -33.687  1.00  0.00    -0.137 NA
ENDBRANCH   6   9
ENDBRANCH   2   3
ENDBRANCH   1   2
BRANCH   1  15
HETATM   15  C   UNL     1      -5.309   0.272 -31.965  1.00  0.00     0.246 C 
HETATM   16  N   UNL     1      -4.401  -0.377 -32.778  1.00  0.00    -0.324 N 
HETATM   17  H   UNL     1      -3.932   0.208 -33.462  1.00  0.00     0.169 HD
HETATM   18  O   UNL     1      -6.020  -0.242 -31.104  1.00  0.00    -0.271 OA
BRANCH  16  19
HETATM   19  C   UNL     1      -4.070  -1.745 -32.802  1.00  0.00     0.047 A 
HETATM   20  C   UNL     1      -4.714  -2.577 -33.755  1.00  0.00     0.019 A 
HETATM   21  C   UNL     1      -4.395  -3.937 -33.798  1.00  0.00     0.044 A 
HETATM   22  C   UNL     1      -5.705  -2.363 -34.764  1.00  0.00     0.033 A 
HETATM   23  N   UNL     1      -5.157  -4.509 -34.792  1.00  0.00    -0.365 N 
HETATM   24  C   UNL     1      -3.458  -4.522 -32.941  1.00  0.00     0.030 A 
HETATM   25  H   UNL     1      -5.129  -5.489 -35.041  1.00  0.00     0.165 HD
HETATM   26  C   UNL     1      -5.955  -3.567 -35.380  1.00  0.00     0.089 A 
HETATM   27  C   UNL     1      -2.833  -3.693 -32.010  1.00  0.00     0.005 A 
HETATM   28  C   UNL     1      -3.134  -2.331 -31.938  1.00  0.00     0.030 A 
ENDBRANCH  16  19
ENDBRANCH   1  15
TORSDOF 5
ENDMDL
MODEL 4
REMARK VINA RESULT:      -8.3      1.207      2.297
REMARK  5 active torsions:
REMARK  status: ('A' for Active; 'I' for Inactive)
REMARK    1  A    between atoms: C_5  and  C_6 
REMARK    2  A    between atoms: C_9  and  O_10 
REMARK    3  A    between atoms: O_10  and  C_11 
REMARK    4  A    between atoms: C_11  and  C_12 
REMARK       I    between atoms: C_12  and  N_13 
REMARK    5  A    between atoms: N_13  and  C_14 
ROOT
HETATM    1  C   UNL     1      -6.816   1.117 -34.510  1.00  0.00     0.278 C 
ENDROOT
BRANCH   1   2
HETATM    2  O   UNL     1      -6.961   2.284 -33.704  1.00  0.00    -0.342 OA
BRANCH   2   3
HETATM    3  C   UNL     1      -5.836   3.039 -33.521  1.00  0.00     0.069 A 
HETATM    4  C   UNL     1      -5.770   4.208 -34.279  1.00  0.00     0.038 A 
HETATM    5  C   UNL     1      -4.684   5.077 -34.145  1.00  0.00     0.018 A 
HETATM    6  C   UNL     1      -3.658   4.800 -33.232  1.00  0.00     0.015 A 
HETATM    7  C   UNL     1      -3.745   3.631 -32.460  1.00  0.00     0.018 A 
HETATM    8  C   UNL     1      -4.829   2.755 -32.600  1.00  0.00     0.038 A 
BRANCH   6   9
HETATM    9  C   UNL     1      -2.534   5.715 -33.084  1.00  0.00     0.198 A 
HETATM   10  N   UNL     1      -2.301   6.759 -33.954  1.00  0.00    -0.136 NA
HETATM   11  N   UNL     1      -1.218   7.387 -33.520  1.00  0.00     0.024 NA
HETATM   12  N   UNL     1      -0.849   6.708 -32.427  1.00  0.00    -0.196 N 
HETATM   13  C   UNL     1       0.283   7.098 -31.631  1.00  0.00     0.200 C 
HETATM   14  N   UNL     1      -1.620   5.657 -32.097  1.00  0.00    -0.137 NA
ENDBRANCH   6   9
ENDBRANCH   2   3
ENDBRANCH   1   2
BRANCH   1  15
HETATM   15  C   UNL     1      -6.460  -0.159 -33.737  1.00  0.00     0.246 C 
HETATM   16  N   UNL     1      -5.201  -0.641 -34.036  1.00  0.00    -0.324 N 
HETATM   17  H   UNL     1      -4.688  -0.116 -34.737  1.00  0.00     0.169 HD
HETATM   18  O   UNL     1      -7.269  -0.658 -32.958  1.00  0.00    -0.271 OA
BRANCH  16  19
HETATM   19  C   UNL     1      -4.556  -1.781 -33.520  1.00  0.00     0.047 A 
HETATM   20  C   UNL     1      -4.842  -3.041 -34.108  1.00  0.00     0.019 A 
HETATM   21  C   UNL     1      -4.207  -4.183 -33.613  1.00  0.00     0.044 A 
HETATM   22  C   UNL     1      -5.701  -3.481 -35.163  1.00  0.00     0.033 A 
HETATM   23  N   UNL     1      -4.662  -5.259 -34.344  1.00  0.00    -0.365 N 
HETATM   24  C   UNL     1      -3.290  -4.143 -32.559  1.00  0.00     0.030 A 
HETATM   25  H   UNL     1      -4.367  -6.214 -34.198  1.00  0.00     0.165 HD
HETATM   26  C   UNL     1      -5.569  -4.845 -35.281  1.00  0.00     0.089 A 
HETATM   27  C   UNL     1      -3.019  -2.899 -31.991  1.00  0.00     0.005 A 
HETATM   28  C   UNL     1      -3.641  -1.740 -32.458  1.00  0.00     0.030 A 
ENDBRANCH  16  19
ENDBRANCH   1  15
TORSDOF 5
ENDMDL
MODEL 5
REMARK VINA RESULT:      -8.2      2.253      8.260
REMARK  5 active torsions:
REMARK  status: ('A' for Active; 'I' for Inactive)
REMARK    1  A    between atoms: C_5  and  C_6 
REMARK    2  A    between atoms: C_9  and  O_10 
REMARK    3  A    between atoms: O_10  and  C_11 
REMARK    4  A    between atoms: C_11  and  C_12 
REMARK       I    between atoms: C_12  and  N_13 
REMARK    5  A    between atoms: N_13  and  C_14 
ROOT
HETATM    1  C   UNL     1      -5.642   3.595 -30.079  1.00  0.00     0.278 C 
ENDROOT
BRANCH   1   2
HETATM    2  O   UNL     1      -6.693   3.099 -30.903  1.00  0.00    -0.342 OA
BRANCH   2   3
HETATM    3  C   UNL     1      -6.400   2.004 -31.667  1.00  0.00     0.069 A 
HETATM    4  C   UNL     1      -6.353   0.790 -30.980  1.00  0.00     0.038 A 
HETATM    5  C   UNL     1      -6.101  -0.401 -31.666  1.00  0.00     0.018 A 
HETATM    6  C   UNL     1      -5.916  -0.398 -33.055  1.00  0.00     0.015 A 
HETATM    7  C   UNL     1      -5.987   0.826 -33.738  1.00  0.00     0.018 A 
HETATM    8  C   UNL     1      -6.230   2.021 -33.050  1.00  0.00     0.038 A 
BRANCH   6   9
HETATM    9  C   UNL     1      -5.668  -1.643 -33.769  1.00  0.00     0.198 A 
HETATM   10  N   UNL     1      -4.401  -2.145 -33.978  1.00  0.00    -0.136 NA
HETATM   11  N   UNL     1      -4.542  -3.284 -34.641  1.00  0.00     0.024 NA
HETATM   12  N   UNL     1      -5.865  -3.419 -34.802  1.00  0.00    -0.196 N 
HETATM   13  C   UNL     1      -6.441  -4.562 -35.455  1.00  0.00     0.200 C 
HETATM   14  N   UNL     1      -6.625  -2.437 -34.286  1.00  0.00    -0.137 NA
ENDBRANCH   6   9
ENDBRANCH   2   3
ENDBRANCH   1   2
BRANCH   1  15
HETATM   15  C   UNL     1      -4.866   4.779 -30.667  1.00  0.00     0.246 C 
HETATM   16  N   UNL     1      -3.511   4.539 -30.776  1.00  0.00    -0.324 N 
HETATM   17  H   UNL     1      -3.199   3.636 -30.436  1.00  0.00     0.169 HD
HETATM   18  O   UNL     1      -5.453   5.815 -30.972  1.00  0.00    -0.271 OA
BRANCH  16  19
HETATM   19  C   UNL     1      -2.507   5.397 -31.268  1.00  0.00     0.047 A 
HETATM   20  C   UNL     1      -2.211   5.358 -32.656  1.00  0.00     0.019 A 
HETATM   21  C   UNL     1      -1.223   6.206 -33.164  1.00  0.00     0.044 A 
HETATM   22  C   UNL     1      -2.699   4.597 -33.764  1.00  0.00     0.033 A 
HETATM   23  N   UNL     1      -1.128   5.965 -34.517  1.00  0.00    -0.365 N 
HETATM   24  C   UNL     1      -0.508   7.101 -32.364  1.00  0.00     0.030 A 
HETATM   25  H   UNL     1      -0.488   6.441 -35.139  1.00  0.00     0.165 HD
HETATM   26  C   UNL     1      -2.014   4.992 -34.889  1.00  0.00     0.089 A 
HETATM   27  C   UNL     1      -0.810   7.127 -31.003  1.00  0.00     0.005 A 
HETATM   28  C   UNL     1      -1.788   6.290 -30.463  1.00  0.00     0.030 A 
ENDBRANCH  16  19
ENDBRANCH   1  15
TORSDOF 5
ENDMDL
MODEL 6
REMARK VINA RESULT:      -8.0      4.419      8.540
REMARK  5 active torsions:
REMARK  status: ('A' for Active; 'I' for Inactive)
REMARK    1  A    between atoms: C_5  and  C_6 
REMARK    2  A    between atoms: C_9  and  O_10 
REMARK    3  A    between atoms: O_10  and  C_11 
REMARK    4  A    between atoms: C_11  and  C_12 
REMARK       I    between atoms: C_12  and  N_13 
REMARK    5  A    between atoms: N_13  and  C_14 
ROOT
HETATM    1  C   UNL     1      -7.709   3.330 -32.540  1.00  0.00     0.278 C 
ENDROOT
BRANCH   1   2
HETATM    2  O   UNL     1      -7.347   2.974 -33.871  1.00  0.00    -0.342 OA
BRANCH   2   3
HETATM    3  C   UNL     1      -6.957   1.678 -34.068  1.00  0.00     0.069 A 
HETATM    4  C   UNL     1      -5.869   1.258 -33.304  1.00  0.00     0.038 A 
HETATM    5  C   UNL     1      -5.408  -0.058 -33.393  1.00  0.00     0.018 A 
HETATM    6  C   UNL     1      -6.046  -0.981 -34.234  1.00  0.00     0.015 A 
HETATM    7  C   UNL     1      -7.153  -0.552 -34.982  1.00  0.00     0.018 A 
HETATM    8  C   UNL     1      -7.610   0.770 -34.899  1.00  0.00     0.038 A 
BRANCH   6   9
HETATM    9  C   UNL     1      -5.572  -2.356 -34.314  1.00  0.00     0.198 A 
HETATM   10  N   UNL     1      -6.320  -3.372 -34.870  1.00  0.00    -0.136 NA
HETATM   11  N   UNL     1      -5.589  -4.475 -34.792  1.00  0.00     0.024 NA
HETATM   12  N   UNL     1      -4.452  -4.086 -34.200  1.00  0.00    -0.196 N 
HETATM   13  C   UNL     1      -3.366  -4.996 -33.958  1.00  0.00     0.200 C 
HETATM   14  N   UNL     1      -4.373  -2.783 -33.876  1.00  0.00    -0.137 NA
ENDBRANCH   6   9
ENDBRANCH   2   3
ENDBRANCH   1   2
BRANCH   1  15
HETATM   15  C   UNL     1      -9.099   2.852 -32.101  1.00  0.00     0.246 C 
HETATM   16  N   UNL     1     -10.105   3.740 -32.427  1.00  0.00    -0.324 N 
HETATM   17  H   UNL     1      -9.803   4.594 -32.884  1.00  0.00     0.169 HD
HETATM   18  O   UNL     1      -9.228   1.784 -31.508  1.00  0.00    -0.271 OA
BRANCH  16  19
HETATM   19  C   UNL     1     -11.487   3.626 -32.178  1.00  0.00     0.047 A 
HETATM   20  C   UNL     1     -12.280   2.898 -33.105  1.00  0.00     0.019 A 
HETATM   21  C   UNL     1     -13.651   2.769 -32.872  1.00  0.00     0.044 A 
HETATM   22  C   UNL     1     -12.011   2.214 -34.331  1.00  0.00     0.033 A 
HETATM   23  N   UNL     1     -14.179   2.035 -33.911  1.00  0.00    -0.365 N 
HETATM   24  C   UNL     1     -14.286   3.323 -31.757  1.00  0.00     0.030 A 
HETATM   25  H   UNL     1     -15.156   1.790 -34.000  1.00  0.00     0.165 HD
HETATM   26  C   UNL     1     -13.196   1.698 -34.801  1.00  0.00     0.089 A 
HETATM   27  C   UNL     1     -13.495   4.035 -30.856  1.00  0.00     0.005 A 
HETATM   28  C   UNL     1     -12.123   4.187 -31.062  1.00  0.00     0.030 A 
ENDBRANCH  16  19
ENDBRANCH   1  15
TORSDOF 5
ENDMDL
MODEL 7
REMARK VINA RESULT:      -7.8      4.352      6.943
REMARK  5 active torsions:
REMARK  status: ('A' for Active; 'I' for Inactive)
REMARK    1  A    between atoms: C_5  and  C_6 
REMARK    2  A    between atoms: C_9  and  O_10 
REMARK    3  A    between atoms: O_10  and  C_11 
REMARK    4  A    between atoms: C_11  and  C_12 
REMARK       I    between atoms: C_12  and  N_13 
REMARK    5  A    between atoms: N_13  and  C_14 
ROOT
HETATM    1  C   UNL     1      -1.721   5.765 -34.511  1.00  0.00     0.278 C 
ENDROOT
BRANCH   1   2
HETATM    2  O   UNL     1      -1.484   7.075 -34.002  1.00  0.00    -0.342 OA
BRANCH   2   3
HETATM    3  C   UNL     1      -1.182   7.163 -32.672  1.00  0.00     0.069 A 
HETATM    4  C   UNL     1       0.014   6.556 -32.288  1.00  0.00     0.038 A 
HETATM    5  C   UNL     1       0.444   6.617 -30.960  1.00  0.00     0.018 A 
HETATM    6  C   UNL     1      -0.307   7.309 -29.999  1.00  0.00     0.015 A 
HETATM    7  C   UNL     1      -1.497   7.933 -30.401  1.00  0.00     0.018 A 
HETATM    8  C   UNL     1      -1.933   7.865 -31.731  1.00  0.00     0.038 A 
BRANCH   6   9
HETATM    9  C   UNL     1       0.151   7.383 -28.619  1.00  0.00     0.198 A 
HETATM   10  N   UNL     1      -0.418   6.646 -27.602  1.00  0.00    -0.136 NA
HETATM   11  N   UNL     1       0.244   6.945 -26.493  1.00  0.00     0.024 NA
HETATM   12  N   UNL     1       1.167   7.835 -26.879  1.00  0.00    -0.196 N 
HETATM   13  C   UNL     1       2.124   8.390 -25.962  1.00  0.00     0.200 C 
HETATM   14  N   UNL     1       1.167   8.154 -28.186  1.00  0.00    -0.137 NA
ENDBRANCH   6   9
ENDBRANCH   2   3
ENDBRANCH   1   2
BRANCH   1  15
HETATM   15  C   UNL     1      -2.925   5.043 -33.895  1.00  0.00     0.246 C 
HETATM   16  N   UNL     1      -2.569   4.125 -32.927  1.00  0.00    -0.324 N 
HETATM   17  H   UNL     1      -1.573   4.025 -32.765  1.00  0.00     0.169 HD
HETATM   18  O   UNL     1      -4.064   5.293 -34.284  1.00  0.00    -0.271 OA
BRANCH  16  19
HETATM   19  C   UNL     1      -3.408   3.290 -32.162  1.00  0.00     0.047 A 
HETATM   20  C   UNL     1      -4.185   3.881 -31.130  1.00  0.00     0.019 A 
HETATM   21  C   UNL     1      -5.027   3.071 -30.364  1.00  0.00     0.044 A 
HETATM   22  C   UNL     1      -4.328   5.209 -30.621  1.00  0.00     0.033 A 
HETATM   23  N   UNL     1      -5.651   3.881 -29.441  1.00  0.00    -0.365 N 
HETATM   24  C   UNL     1      -5.146   1.694 -30.570  1.00  0.00     0.030 A 
HETATM   25  H   UNL     1      -6.317   3.555 -28.754  1.00  0.00     0.165 HD
HETATM   26  C   UNL     1      -5.232   5.175 -29.585  1.00  0.00     0.089 A 
HETATM   27  C   UNL     1      -4.377   1.128 -31.586  1.00  0.00     0.005 A 
HETATM   28  C   UNL     1      -3.522   1.908 -32.366  1.00  0.00     0.030 A 
ENDBRANCH  16  19
ENDBRANCH   1  15
TORSDOF 5
ENDMDL
MODEL 8
REMARK VINA RESULT:      -7.7      4.788      8.507
REMARK  5 active torsions:
REMARK  status: ('A' for Active; 'I' for Inactive)
REMARK    1  A    between atoms: C_5  and  C_6 
REMARK    2  A    between atoms: C_9  and  O_10 
REMARK    3  A    between atoms: O_10  and  C_11 
REMARK    4  A    between atoms: C_11  and  C_12 
REMARK       I    between atoms: C_12  and  N_13 
REMARK    5  A    between atoms: N_13  and  C_14 
ROOT
HETATM    1  C   UNL     1      -9.360   4.191 -34.083  1.00  0.00     0.278 C 
ENDROOT
BRANCH   1   2
HETATM    2  O   UNL     1      -8.701   3.531 -33.006  1.00  0.00    -0.342 OA
BRANCH   2   3
HETATM    3  C   UNL     1      -8.207   2.283 -33.269  1.00  0.00     0.069 A 
HETATM    4  C   UNL     1      -7.117   2.241 -34.138  1.00  0.00     0.038 A 
HETATM    5  C   UNL     1      -6.506   1.024 -34.449  1.00  0.00     0.018 A 
HETATM    6  C   UNL     1      -6.964  -0.170 -33.874  1.00  0.00     0.015 A 
HETATM    7  C   UNL     1      -8.048  -0.113 -32.985  1.00  0.00     0.018 A 
HETATM    8  C   UNL     1      -8.667   1.106 -32.681  1.00  0.00     0.038 A 
BRANCH   6   9
HETATM    9  C   UNL     1      -6.316  -1.436 -34.188  1.00  0.00     0.198 A 
HETATM   10  N   UNL     1      -4.973  -1.663 -33.971  1.00  0.00    -0.136 NA
HETATM   11  N   UNL     1      -4.726  -2.908 -34.352  1.00  0.00     0.024 NA
HETATM   12  N   UNL     1      -5.908  -3.372 -34.778  1.00  0.00    -0.196 N 
HETATM   13  C   UNL     1      -6.075  -4.719 -35.251  1.00  0.00     0.200 C 
HETATM   14  N   UNL     1      -6.940  -2.511 -34.706  1.00  0.00    -0.137 NA
ENDBRANCH   6   9
ENDBRANCH   2   3
ENDBRANCH   1   2
BRANCH   1  15
HETATM   15  C   UNL     1     -10.824   3.782 -34.288  1.00  0.00     0.246 C 
HETATM   16  N   UNL     1     -11.462   3.441 -33.112  1.00  0.00    -0.324 N 
HETATM   17  H   UNL     1     -10.887   3.478 -32.277  1.00  0.00     0.169 HD
HETATM   18  O   UNL     1     -11.310   3.765 -35.417  1.00  0.00    -0.271 OA
BRANCH  16  19
HETATM   19  C   UNL     1     -12.794   3.021 -32.929  1.00  0.00     0.047 A 
HETATM   20  C   UNL     1     -13.117   1.667 -33.211  1.00  0.00     0.019 A 
HETATM   21  C   UNL     1     -14.431   1.230 -33.030  1.00  0.00     0.044 A 
HETATM   22  C   UNL     1     -12.377   0.540 -33.687  1.00  0.00     0.033 A 
HETATM   23  N   UNL     1     -14.475  -0.102 -33.377  1.00  0.00    -0.365 N 
HETATM   24  C   UNL     1     -15.454   2.069 -32.577  1.00  0.00     0.030 A 
HETATM   25  H   UNL     1     -15.307  -0.675 -33.343  1.00  0.00     0.165 HD
HETATM   26  C   UNL     1     -13.239  -0.528 -33.780  1.00  0.00     0.089 A 
HETATM   27  C   UNL     1     -15.121   3.396 -32.304  1.00  0.00     0.005 A 
HETATM   28  C   UNL     1     -13.819   3.866 -32.480  1.00  0.00     0.030 A 
ENDBRANCH  16  19
ENDBRANCH   1  15
TORSDOF 5
ENDMDL
MODEL 9
REMARK VINA RESULT:      -7.5      3.550      5.999
REMARK  5 active torsions:
REMARK  status: ('A' for Active; 'I' for Inactive)
REMARK    1  A    between atoms: C_5  and  C_6 
REMARK    2  A    between atoms: C_9  and  O_10 
REMARK    3  A    between atoms: O_10  and  C_11 
REMARK    4  A    between atoms: C_11  and  C_12 
REMARK       I    between atoms: C_12  and  N_13 
REMARK    5  A    between atoms: N_13  and  C_14 
ROOT
HETATM    1  C   UNL     1      -7.746   0.764 -31.809  1.00  0.00     0.278 C 
ENDROOT
BRANCH   1   2
HETATM    2  O   UNL     1      -6.899   0.775 -32.955  1.00  0.00    -0.342 OA
BRANCH   2   3
HETATM    3  C   UNL     1      -5.743   1.498 -32.848  1.00  0.00     0.069 A 
HETATM    4  C   UNL     1      -5.855   2.855 -33.156  1.00  0.00     0.038 A 
HETATM    5  C   UNL     1      -4.747   3.699 -33.044  1.00  0.00     0.018 A 
HETATM    6  C   UNL     1      -3.515   3.201 -32.599  1.00  0.00     0.015 A 
HETATM    7  C   UNL     1      -3.420   1.840 -32.272  1.00  0.00     0.018 A 
HETATM    8  C   UNL     1      -4.528   0.991 -32.393  1.00  0.00     0.038 A 
BRANCH   6   9
HETATM    9  C   UNL     1      -2.365   4.086 -32.469  1.00  0.00     0.198 A 
HETATM   10  N   UNL     1      -1.910   4.876 -33.504  1.00  0.00    -0.136 NA
HETATM   11  N   UNL     1      -0.870   5.555 -33.041  1.00  0.00     0.024 NA
HETATM   12  N   UNL     1      -0.742   5.153 -31.770  1.00  0.00    -0.196 N 
HETATM   13  C   UNL     1       0.267   5.688 -30.897  1.00  0.00     0.200 C 
HETATM   14  N   UNL     1      -1.637   4.241 -31.348  1.00  0.00    -0.137 NA
ENDBRANCH   6   9
ENDBRANCH   2   3
ENDBRANCH   1   2
BRANCH   1  15
HETATM   15  C   UNL     1      -9.171   1.276 -32.057  1.00  0.00     0.246 C 
HETATM   16  N   UNL     1      -9.815   0.610 -33.081  1.00  0.00    -0.324 N 
HETATM   17  H   UNL     1      -9.268  -0.103 -33.550  1.00  0.00     0.169 HD
HETATM   18  O   UNL     1      -9.623   2.200 -31.385  1.00  0.00    -0.271 OA
BRANCH  16  19
HETATM   19  C   UNL     1     -11.118   0.817 -33.574  1.00  0.00     0.047 A 
HETATM   20  C   UNL     1     -11.366   1.978 -34.353  1.00  0.00     0.019 A 
HETATM   21  C   UNL     1     -12.651   2.198 -34.856  1.00  0.00     0.044 A 
HETATM   22  C   UNL     1     -10.570   3.085 -34.781  1.00  0.00     0.033 A 
HETATM   23  N   UNL     1     -12.623   3.382 -35.560  1.00  0.00    -0.365 N 
HETATM   24  C   UNL     1     -13.714   1.318 -34.631  1.00  0.00     0.030 A 
HETATM   25  H   UNL     1     -13.420   3.785 -36.031  1.00  0.00     0.165 HD
HETATM   26  C   UNL     1     -11.370   3.928 -35.517  1.00  0.00     0.089 A 
HETATM   27  C   UNL     1     -13.455   0.182 -33.864  1.00  0.00     0.005 A 
HETATM   28  C   UNL     1     -12.184  -0.064 -33.342  1.00  0.00     0.030 A 
ENDBRANCH  16  19
ENDBRANCH   1  15
TORSDOF 5
ENDMDL
MODEL 10
REMARK VINA RESULT:      -7.5      3.690      7.476
REMARK  5 active torsions:
REMARK  status: ('A' for Active; 'I' for Inactive)
REMARK    1  A    between atoms: C_5  and  C_6 
REMARK    2  A    between atoms: C_9  and  O_10 
REMARK    3  A    between atoms: O_10  and  C_11 
REMARK    4  A    between atoms: C_11  and  C_12 
REMARK       I    between atoms: C_12  and  N_13 
REMARK    5  A    between atoms: N_13  and  C_14 
ROOT
HETATM    1  C   UNL     1      -6.063   4.089 -30.570  1.00  0.00     0.278 C 
ENDROOT
BRANCH   1   2
HETATM    2  O   UNL     1      -5.315   2.963 -30.117  1.00  0.00    -0.342 OA
BRANCH   2   3
HETATM    3  C   UNL     1      -5.408   1.829 -30.875  1.00  0.00     0.069 A 
HETATM    4  C   UNL     1      -4.862   1.918 -32.156  1.00  0.00     0.038 A 
HETATM    5  C   UNL     1      -4.865   0.809 -33.005  1.00  0.00     0.018 A 
HETATM    6  C   UNL     1      -5.394  -0.416 -32.575  1.00  0.00     0.015 A 
HETATM    7  C   UNL     1      -5.921  -0.500 -31.278  1.00  0.00     0.018 A 
HETATM    8  C   UNL     1      -5.927   0.615 -30.429  1.00  0.00     0.038 A 
BRANCH   6   9
HETATM    9  C   UNL     1      -5.382  -1.575 -33.457  1.00  0.00     0.198 A 
HETATM   10  N   UNL     1      -4.220  -2.114 -33.968  1.00  0.00    -0.136 NA
HETATM   11  N   UNL     1      -4.572  -3.154 -34.711  1.00  0.00     0.024 NA
HETATM   12  N   UNL     1      -5.907  -3.197 -34.621  1.00  0.00    -0.196 N 
HETATM   13  C   UNL     1      -6.684  -4.218 -35.269  1.00  0.00     0.200 C 
HETATM   14  N   UNL     1      -6.478  -2.246 -33.859  1.00  0.00    -0.137 NA
ENDBRANCH   6   9
ENDBRANCH   2   3
ENDBRANCH   1   2
BRANCH   1  15
HETATM   15  C   UNL     1      -7.569   3.844 -30.718  1.00  0.00     0.246 C 
HETATM   16  N   UNL     1      -7.977   3.756 -32.035  1.00  0.00    -0.324 N 
HETATM   17  H   UNL     1      -7.247   3.888 -32.727  1.00  0.00     0.169 HD
HETATM   18  O   UNL     1      -8.285   3.763 -29.723  1.00  0.00    -0.271 OA
BRANCH  16  19
HETATM   19  C   UNL     1      -9.275   3.539 -32.536  1.00  0.00     0.047 A 
HETATM   20  C   UNL     1      -9.724   2.200 -32.684  1.00  0.00     0.019 A 
HETATM   21  C   UNL     1     -11.012   1.965 -33.174  1.00  0.00     0.044 A 
HETATM   22  C   UNL     1      -9.139   0.917 -32.452  1.00  0.00     0.033 A 
HETATM   23  N   UNL     1     -11.190   0.600 -33.227  1.00  0.00    -0.365 N 
HETATM   24  C   UNL     1     -11.889   2.996 -33.525  1.00  0.00     0.030 A 
HETATM   25  H   UNL     1     -12.036   0.147 -33.547  1.00  0.00     0.165 HD
HETATM   26  C   UNL     1     -10.063  -0.043 -32.797  1.00  0.00     0.089 A 
HETATM   27  C   UNL     1     -11.434   4.305 -33.373  1.00  0.00     0.005 A 
HETATM   28  C   UNL     1     -10.152   4.574 -32.892  1.00  0.00     0.030 A 
ENDBRANCH  16  19
ENDBRANCH   1  15
TORSDOF 5
ENDMDL
