MODEL 1
REMARK VINA RESULT:      -9.3      0.000      0.000
REMARK  6 active torsions:
REMARK  status: ('A' for Active; 'I' for Inactive)
REMARK    1  A    between atoms: C_6  and  C_7 
REMARK    2  A    between atoms: N_8  and  N_9 
REMARK       I    between atoms: N_9  and  C_10 
REMARK    3  A    between atoms: C_10  and  C_11 
REMARK    4  A    between atoms: C_14  and  O_15 
REMARK    5  A    between atoms: O_15  and  C_16 
REMARK    6  A    between atoms: C_16  and  C_17 
ROOT
HETATM    1  C   UNL     1      -7.423  -0.172 -33.386  1.00  0.00     0.217 C 
HETATM    2  N   UNL     1      -6.112   0.466 -33.546  1.00  0.00    -0.247 N 
HETATM    3  C   UNL     1      -4.994  -0.378 -33.597  1.00  0.00     0.272 C 
HETATM    4  O   UNL     1      -3.826  -0.025 -33.485  1.00  0.00    -0.266 OA
HETATM    5  C   UNL     1      -5.277  -1.807 -33.882  1.00  0.00     0.054 A 
HETATM    6  C   UNL     1      -6.558  -2.135 -34.348  1.00  0.00     0.026 A 
HETATM    7  N   UNL     1      -7.562  -1.140 -34.483  1.00  0.00    -0.265 NA
HETATM    8  C   UNL     1      -4.271  -2.772 -33.806  1.00  0.00     0.019 A 
HETATM    9  C   UNL     1      -4.541  -4.077 -34.218  1.00  0.00     0.001 A 
HETATM   10  C   UNL     1      -5.800  -4.401 -34.727  1.00  0.00     0.002 A 
HETATM   11  C   UNL     1      -6.801  -3.429 -34.809  1.00  0.00     0.024 A 
HETATM   12  H   UNL     1      -7.381  -0.643 -35.356  1.00  0.00     0.130 HD
ENDROOT
BRANCH   2  13
HETATM   13  N   UNL     1      -6.081   1.677 -34.376  1.00  0.00    -0.163 NA
HETATM   14  C   UNL     1      -6.035   2.893 -33.708  1.00  0.00     0.249 C 
HETATM   15  O   UNL     1      -6.983   3.673 -33.743  1.00  0.00    -0.272 OA
HETATM   16  H   UNL     1      -6.906   1.709 -34.972  1.00  0.00     0.156 HD
BRANCH  14  17
HETATM   17  C   UNL     1      -4.773   3.304 -33.067  1.00  0.00     0.028 A 
HETATM   18  C   UNL     1      -3.923   4.211 -33.706  1.00  0.00     0.019 A 
HETATM   19  C   UNL     1      -2.742   4.608 -33.075  1.00  0.00     0.038 A 
HETATM   20  C   UNL     1      -2.401   4.100 -31.818  1.00  0.00     0.069 A 
HETATM   21  C   UNL     1      -3.272   3.218 -31.171  1.00  0.00     0.038 A 
HETATM   22  C   UNL     1      -4.466   2.830 -31.788  1.00  0.00     0.019 A 
BRANCH  20  23
HETATM   23  O   UNL     1      -1.210   4.556 -31.321  1.00  0.00    -0.348 OA
BRANCH  23  24
HETATM   24  C   UNL     1      -0.558   5.580 -32.069  1.00  0.00     0.202 C 
BRANCH  24  25
HETATM   25  C   UNL     1       0.384   6.286 -31.138  1.00  0.00    -0.011 C 
HETATM   26  C   UNL     1       0.027   6.863 -29.983  1.00  0.00     0.009 C 
ENDBRANCH  24  25
ENDBRANCH  23  24
ENDBRANCH  20  23
ENDBRANCH  14  17
ENDBRANCH   2  13
BRANCH   1  27
HETATM   27  C   UNL     1      -8.637   0.752 -33.268  1.00  0.00    -0.014 A 
HETATM   28  C   UNL     1      -8.887   1.499 -32.091  1.00  0.00    -0.052 A 
HETATM   29  C   UNL     1     -10.033   2.319 -32.017  1.00  0.00     0.014 A 
HETATM   30  C   UNL     1      -7.965   1.482 -30.900  1.00  0.00     0.049 C 
HETATM   31  C   UNL     1     -10.954   2.389 -33.066  1.00  0.00    -0.061 A 
HETATM   32  C   UNL     1     -12.205   3.205 -32.931  1.00  0.00     0.048 C 
HETATM   33  C   UNL     1     -10.729   1.626 -34.208  1.00  0.00     0.007 A 
HETATM   34  C   UNL     1      -9.587   0.828 -34.309  1.00  0.00     0.011 A 
ENDBRANCH   1  27
TORSDOF 6
ENDMDL
MODEL 2
REMARK VINA RESULT:      -8.8      2.638      4.078
REMARK  6 active torsions:
REMARK  status: ('A' for Active; 'I' for Inactive)
REMARK    1  A    between atoms: C_6  and  C_7 
REMARK    2  A    between atoms: N_8  and  N_9 
REMARK       I    between atoms: N_9  and  C_10 
REMARK    3  A    between atoms: C_10  and  C_11 
REMARK    4  A    between atoms: C_14  and  O_15 
REMARK    5  A    between atoms: O_15  and  C_16 
REMARK    6  A    between atoms: C_16  and  C_17 
ROOT
HETATM    1  C   UNL     1     -10.082   1.954 -34.163  1.00  0.00     0.217 C 
HETATM    2  N   UNL     1      -9.947   1.714 -32.721  1.00  0.00    -0.247 N 
HETATM    3  C   UNL     1      -9.223   0.582 -32.328  1.00  0.00     0.272 C 
HETATM    4  O   UNL     1      -9.209   0.096 -31.203  1.00  0.00    -0.266 OA
HETATM    5  C   UNL     1      -8.349  -0.018 -33.368  1.00  0.00     0.054 A 
HETATM    6  C   UNL     1      -8.104   0.736 -34.524  1.00  0.00     0.026 A 
HETATM    7  N   UNL     1      -8.721   2.001 -34.715  1.00  0.00    -0.265 NA
HETATM    8  C   UNL     1      -7.696  -1.233 -33.151  1.00  0.00     0.019 A 
HETATM    9  C   UNL     1      -6.774  -1.693 -34.091  1.00  0.00     0.001 A 
HETATM   10  C   UNL     1      -6.491  -0.926 -35.223  1.00  0.00     0.002 A 
HETATM   11  C   UNL     1      -7.140   0.294 -35.431  1.00  0.00     0.024 A 
HETATM   12  H   UNL     1      -8.192   2.681 -34.170  1.00  0.00     0.130 HD
ENDROOT
BRANCH   2  13
HETATM   13  N   UNL     1      -9.841   2.910 -31.876  1.00  0.00    -0.163 NA
HETATM   14  C   UNL     1      -8.596   3.179 -31.323  1.00  0.00     0.249 C 
HETATM   15  O   UNL     1      -8.407   3.097 -30.113  1.00  0.00    -0.272 OA
HETATM   16  H   UNL     1     -10.491   2.841 -31.095  1.00  0.00     0.156 HD
BRANCH  14  17
HETATM   17  C   UNL     1      -7.530   3.704 -32.195  1.00  0.00     0.028 A 
HETATM   18  C   UNL     1      -7.661   4.966 -32.783  1.00  0.00     0.019 A 
HETATM   19  C   UNL     1      -6.632   5.459 -33.588  1.00  0.00     0.038 A 
HETATM   20  C   UNL     1      -5.481   4.699 -33.818  1.00  0.00     0.069 A 
HETATM   21  C   UNL     1      -5.344   3.451 -33.201  1.00  0.00     0.038 A 
HETATM   22  C   UNL     1      -6.362   2.959 -32.378  1.00  0.00     0.019 A 
BRANCH  20  23
HETATM   23  O   UNL     1      -4.560   5.291 -34.639  1.00  0.00    -0.348 OA
BRANCH  23  24
HETATM   24  C   UNL     1      -3.400   5.833 -34.010  1.00  0.00     0.202 C 
BRANCH  24  25
HETATM   25  C   UNL     1      -2.227   5.003 -34.439  1.00  0.00    -0.011 C 
HETATM   26  C   UNL     1      -1.044   5.495 -34.830  1.00  0.00     0.009 C 
ENDBRANCH  24  25
ENDBRANCH  23  24
ENDBRANCH  20  23
ENDBRANCH  14  17
ENDBRANCH   2  13
BRANCH   1  27
HETATM   27  C   UNL     1     -10.927   3.155 -34.593  1.00  0.00    -0.014 A 
HETATM   28  C   UNL     1     -12.330   3.054 -34.755  1.00  0.00    -0.052 A 
HETATM   29  C   UNL     1     -13.065   4.182 -35.178  1.00  0.00     0.014 A 
HETATM   30  C   UNL     1     -13.097   1.789 -34.472  1.00  0.00     0.049 C 
HETATM   31  C   UNL     1     -12.440   5.395 -35.477  1.00  0.00    -0.061 A 
HETATM   32  C   UNL     1     -13.234   6.554 -36.003  1.00  0.00     0.048 C 
HETATM   33  C   UNL     1     -11.057   5.485 -35.355  1.00  0.00     0.007 A 
HETATM   34  C   UNL     1     -10.315   4.386 -34.914  1.00  0.00     0.011 A 
ENDBRANCH   1  27
TORSDOF 6
ENDMDL
MODEL 3
REMARK VINA RESULT:      -8.8      2.195      7.021
REMARK  6 active torsions:
REMARK  status: ('A' for Active; 'I' for Inactive)
REMARK    1  A    between atoms: C_6  and  C_7 
REMARK    2  A    between atoms: N_8  and  N_9 
REMARK       I    between atoms: N_9  and  C_10 
REMARK    3  A    between atoms: C_10  and  C_11 
REMARK    4  A    between atoms: C_14  and  O_15 
REMARK    5  A    between atoms: O_15  and  C_16 
REMARK    6  A    between atoms: C_16  and  C_17 
ROOT
HETATM    1  C   UNL     1      -6.140   3.771 -32.653  1.00  0.00     0.217 C 
HETATM    2  N   UNL     1      -6.494   3.359 -31.290  1.00  0.00    -0.247 N 
HETATM    3  C   UNL     1      -7.755   2.776 -31.107  1.00  0.00     0.272 C 
HETATM    4  O   UNL     1      -8.310   2.596 -30.029  1.00  0.00    -0.266 OA
HETATM    5  C   UNL     1      -8.420   2.280 -32.337  1.00  0.00     0.054 A 
HETATM    6  C   UNL     1      -7.642   2.172 -33.499  1.00  0.00     0.026 A 
HETATM    7  N   UNL     1      -6.283   2.583 -33.506  1.00  0.00    -0.265 NA
HETATM    8  C   UNL     1      -9.739   1.820 -32.311  1.00  0.00     0.019 A 
HETATM    9  C   UNL     1     -10.282   1.230 -33.452  1.00  0.00     0.001 A 
HETATM   10  C   UNL     1      -9.498   1.078 -34.598  1.00  0.00     0.002 A 
HETATM   11  C   UNL     1      -8.177   1.531 -34.616  1.00  0.00     0.024 A 
HETATM   12  H   UNL     1      -5.737   1.833 -33.082  1.00  0.00     0.130 HD
ENDROOT
BRANCH   2  13
HETATM   13  N   UNL     1      -5.392   2.856 -30.461  1.00  0.00    -0.163 NA
HETATM   14  C   UNL     1      -5.408   1.502 -30.150  1.00  0.00     0.249 C 
HETATM   15  O   UNL     1      -5.593   1.117 -28.999  1.00  0.00    -0.272 OA
HETATM   16  H   UNL     1      -5.371   3.353 -29.572  1.00  0.00     0.156 HD
BRANCH  14  17
HETATM   17  C   UNL     1      -5.060   0.528 -31.200  1.00  0.00     0.028 A 
HETATM   18  C   UNL     1      -6.009  -0.397 -31.644  1.00  0.00     0.019 A 
HETATM   19  C   UNL     1      -5.670  -1.298 -32.655  1.00  0.00     0.038 A 
HETATM   20  C   UNL     1      -4.391  -1.288 -33.218  1.00  0.00     0.069 A 
HETATM   21  C   UNL     1      -3.456  -0.339 -32.792  1.00  0.00     0.038 A 
HETATM   22  C   UNL     1      -3.795   0.580 -31.792  1.00  0.00     0.019 A 
BRANCH  20  23
HETATM   23  O   UNL     1      -4.184  -2.234 -34.186  1.00  0.00    -0.348 OA
BRANCH  23  24
HETATM   24  C   UNL     1      -5.292  -2.531 -35.034  1.00  0.00     0.202 C 
BRANCH  24  25
HETATM   25  C   UNL     1      -5.547  -4.006 -34.939  1.00  0.00    -0.011 C 
HETATM   26  C   UNL     1      -6.685  -4.611 -35.308  1.00  0.00     0.009 C 
ENDBRANCH  24  25
ENDBRANCH  23  24
ENDBRANCH  20  23
ENDBRANCH  14  17
ENDBRANCH   2  13
BRANCH   1  27
HETATM   27  C   UNL     1      -4.790   4.464 -32.842  1.00  0.00    -0.014 A 
HETATM   28  C   UNL     1      -4.648   5.865 -32.687  1.00  0.00    -0.052 A 
HETATM   29  C   UNL     1      -3.389   6.466 -32.896  1.00  0.00     0.014 A 
HETATM   30  C   UNL     1      -5.788   6.763 -32.281  1.00  0.00     0.049 C 
HETATM   31  C   UNL     1      -2.275   5.717 -33.288  1.00  0.00    -0.061 A 
HETATM   32  C   UNL     1      -0.968   6.390 -33.583  1.00  0.00     0.048 C 
HETATM   33  C   UNL     1      -2.422   4.346 -33.478  1.00  0.00     0.007 A 
HETATM   34  C   UNL     1      -3.655   3.731 -33.252  1.00  0.00     0.011 A 
ENDBRANCH   1  27
TORSDOF 6
ENDMDL
MODEL 4
REMARK VINA RESULT:      -8.7      3.003      6.407
REMARK  6 active torsions:
REMARK  status: ('A' for Active; 'I' for Inactive)
REMARK    1  A    between atoms: C_6  and  C_7 
REMARK    2  A    between atoms: N_8  and  N_9 
REMARK       I    between atoms: N_9  and  C_10 
REMARK    3  A    between atoms: C_10  and  C_11 
REMARK    4  A    between atoms: C_14  and  O_15 
REMARK    5  A    between atoms: O_15  and  C_16 
REMARK    6  A    between atoms: C_16  and  C_17 
ROOT
HETATM    1  C   UNL     1      -5.706   2.898 -31.091  1.00  0.00     0.217 C 
HETATM    2  N   UNL     1      -5.998   3.745 -32.252  1.00  0.00    -0.247 N 
HETATM    3  C   UNL     1      -6.653   4.959 -32.007  1.00  0.00     0.272 C 
HETATM    4  O   UNL     1      -7.184   5.668 -32.854  1.00  0.00    -0.266 OA
HETATM    5  C   UNL     1      -6.624   5.435 -30.602  1.00  0.00     0.054 A 
HETATM    6  C   UNL     1      -5.731   4.809 -29.722  1.00  0.00     0.026 A 
HETATM    7  N   UNL     1      -4.929   3.717 -30.151  1.00  0.00    -0.265 NA
HETATM    8  C   UNL     1      -7.368   6.547 -30.199  1.00  0.00     0.019 A 
HETATM    9  C   UNL     1      -7.205   7.050 -28.909  1.00  0.00     0.001 A 
HETATM   10  C   UNL     1      -6.284   6.459 -28.042  1.00  0.00     0.002 A 
HETATM   11  C   UNL     1      -5.535   5.353 -28.452  1.00  0.00     0.024 A 
HETATM   12  H   UNL     1      -4.138   4.106 -30.663  1.00  0.00     0.130 HD
ENDROOT
BRANCH   2  13
HETATM   13  N   UNL     1      -5.005   3.721 -33.334  1.00  0.00    -0.163 NA
HETATM   14  C   UNL     1      -4.290   4.890 -33.555  1.00  0.00     0.249 C 
HETATM   15  O   UNL     1      -4.443   5.544 -34.583  1.00  0.00    -0.272 OA
HETATM   16  H   UNL     1      -5.461   3.494 -34.217  1.00  0.00     0.156 HD
BRANCH  14  17
HETATM   17  C   UNL     1      -3.233   5.268 -32.599  1.00  0.00     0.028 A 
HETATM   18  C   UNL     1      -2.122   4.440 -32.417  1.00  0.00     0.019 A 
HETATM   19  C   UNL     1      -1.119   4.824 -31.524  1.00  0.00     0.038 A 
HETATM   20  C   UNL     1      -1.222   6.019 -30.807  1.00  0.00     0.069 A 
HETATM   21  C   UNL     1      -2.323   6.857 -31.017  1.00  0.00     0.038 A 
HETATM   22  C   UNL     1      -3.322   6.489 -31.924  1.00  0.00     0.019 A 
BRANCH  20  23
HETATM   23  O   UNL     1      -0.181   6.266 -29.953  1.00  0.00    -0.348 OA
BRANCH  23  24
HETATM   24  C   UNL     1      -0.505   6.914 -28.724  1.00  0.00     0.202 C 
BRANCH  24  25
HETATM   25  C   UNL     1       0.786   7.203 -28.016  1.00  0.00    -0.011 C 
HETATM   26  C   UNL     1       1.356   8.413 -27.929  1.00  0.00     0.009 C 
ENDBRANCH  24  25
ENDBRANCH  23  24
ENDBRANCH  20  23
ENDBRANCH  14  17
ENDBRANCH   2  13
BRANCH   1  27
HETATM   27  C   UNL     1      -5.047   1.544 -31.364  1.00  0.00    -0.014 A 
HETATM   28  C   UNL     1      -5.810   0.412 -31.741  1.00  0.00    -0.052 A 
HETATM   29  C   UNL     1      -5.162  -0.823 -31.959  1.00  0.00     0.014 A 
HETATM   30  C   UNL     1      -7.301   0.461 -31.947  1.00  0.00     0.049 C 
HETATM   31  C   UNL     1      -3.784  -0.970 -31.779  1.00  0.00    -0.061 A 
HETATM   32  C   UNL     1      -3.132  -2.312 -31.938  1.00  0.00     0.048 C 
HETATM   33  C   UNL     1      -3.039   0.132 -31.372  1.00  0.00     0.007 A 
HETATM   34  C   UNL     1      -3.659   1.368 -31.176  1.00  0.00     0.011 A 
ENDBRANCH   1  27
TORSDOF 6
ENDMDL
MODEL 5
REMARK VINA RESULT:      -8.6      2.413      7.177
REMARK  6 active torsions:
REMARK  status: ('A' for Active; 'I' for Inactive)
REMARK    1  A    between atoms: C_6  and  C_7 
REMARK    2  A    between atoms: N_8  and  N_9 
REMARK       I    between atoms: N_9  and  C_10 
REMARK    3  A    between atoms: C_10  and  C_11 
REMARK    4  A    between atoms: C_14  and  O_15 
REMARK    5  A    between atoms: O_15  and  C_16 
REMARK    6  A    between atoms: C_16  and  C_17 
ROOT
HETATM    1  C   UNL     1      -5.492   4.607 -31.652  1.00  0.00     0.217 C 
HETATM    2  N   UNL     1      -4.834   3.298 -31.726  1.00  0.00    -0.247 N 
HETATM    3  C   UNL     1      -3.463   3.289 -32.011  1.00  0.00     0.272 C 
HETATM    4  O   UNL     1      -2.808   2.308 -32.345  1.00  0.00    -0.266 OA
HETATM    5  C   UNL     1      -2.755   4.578 -31.814  1.00  0.00     0.054 A 
HETATM    6  C   UNL     1      -3.426   5.587 -31.108  1.00  0.00     0.026 A 
HETATM    7  N   UNL     1      -4.758   5.396 -30.654  1.00  0.00    -0.265 NA
HETATM    8  C   UNL     1      -1.425   4.740 -32.208  1.00  0.00     0.019 A 
HETATM    9  C   UNL     1      -0.751   5.916 -31.878  1.00  0.00     0.001 A 
HETATM   10  C   UNL     1      -1.399   6.906 -31.135  1.00  0.00     0.002 A 
HETATM   11  C   UNL     1      -2.726   6.735 -30.735  1.00  0.00     0.024 A 
HETATM   12  H   UNL     1      -4.710   4.842 -29.799  1.00  0.00     0.130 HD
ENDROOT
BRANCH   2  13
HETATM   13  N   UNL     1      -5.340   2.269 -30.808  1.00  0.00    -0.163 NA
HETATM   14  C   UNL     1      -6.259   1.365 -31.324  1.00  0.00     0.249 C 
HETATM   15  O   UNL     1      -7.427   1.360 -30.944  1.00  0.00    -0.272 OA
HETATM   16  H   UNL     1      -5.791   2.711 -30.008  1.00  0.00     0.156 HD
BRANCH  14  17
HETATM   17  C   UNL     1      -5.782   0.311 -32.237  1.00  0.00     0.028 A 
HETATM   18  C   UNL     1      -4.735  -0.531 -31.852  1.00  0.00     0.019 A 
HETATM   19  C   UNL     1      -4.311  -1.540 -32.720  1.00  0.00     0.038 A 
HETATM   20  C   UNL     1      -4.916  -1.706 -33.969  1.00  0.00     0.069 A 
HETATM   21  C   UNL     1      -5.984  -0.880 -34.334  1.00  0.00     0.038 A 
HETATM   22  C   UNL     1      -6.427   0.120 -33.462  1.00  0.00     0.019 A 
BRANCH  20  23
HETATM   23  O   UNL     1      -4.393  -2.719 -34.728  1.00  0.00    -0.348 OA
BRANCH  23  24
HETATM   24  C   UNL     1      -4.212  -3.975 -34.076  1.00  0.00     0.202 C 
BRANCH  24  25
HETATM   25  C   UNL     1      -5.318  -4.880 -34.532  1.00  0.00    -0.011 C 
HETATM   26  C   UNL     1      -6.269  -4.541 -35.413  1.00  0.00     0.009 C 
ENDBRANCH  24  25
ENDBRANCH  23  24
ENDBRANCH  20  23
ENDBRANCH  14  17
ENDBRANCH   2  13
BRANCH   1  27
HETATM   27  C   UNL     1      -7.002   4.615 -31.404  1.00  0.00    -0.014 A 
HETATM   28  C   UNL     1      -7.926   4.365 -32.448  1.00  0.00    -0.052 A 
HETATM   29  C   UNL     1      -9.310   4.407 -32.178  1.00  0.00     0.014 A 
HETATM   30  C   UNL     1      -7.500   4.028 -33.853  1.00  0.00     0.049 C 
HETATM   31  C   UNL     1      -9.801   4.724 -30.909  1.00  0.00    -0.061 A 
HETATM   32  C   UNL     1     -11.277   4.842 -30.668  1.00  0.00     0.048 C 
HETATM   33  C   UNL     1      -8.895   5.007 -29.891  1.00  0.00     0.007 A 
HETATM   34  C   UNL     1      -7.521   4.946 -30.133  1.00  0.00     0.011 A 
ENDBRANCH   1  27
TORSDOF 6
ENDMDL
MODEL 6
REMARK VINA RESULT:      -8.6      3.338      7.818
REMARK  6 active torsions:
REMARK  status: ('A' for Active; 'I' for Inactive)
REMARK    1  A    between atoms: C_6  and  C_7 
REMARK    2  A    between atoms: N_8  and  N_9 
REMARK       I    between atoms: N_9  and  C_10 
REMARK    3  A    between atoms: C_10  and  C_11 
REMARK    4  A    between atoms: C_14  and  O_15 
REMARK    5  A    between atoms: O_15  and  C_16 
REMARK    6  A    between atoms: C_16  and  C_17 
ROOT
HETATM    1  C   UNL     1      -4.560   5.878 -30.733  1.00  0.00     0.217 C 
HETATM    2  N   UNL     1      -4.256   4.454 -30.910  1.00  0.00    -0.247 N 
HETATM    3  C   UNL     1      -2.964   4.126 -31.341  1.00  0.00     0.272 C 
HETATM    4  O   UNL     1      -2.608   3.033 -31.767  1.00  0.00    -0.266 OA
HETATM    5  C   UNL     1      -1.944   5.193 -31.190  1.00  0.00     0.054 A 
HETATM    6  C   UNL     1      -2.272   6.297 -30.391  1.00  0.00     0.026 A 
HETATM    7  N   UNL     1      -3.558   6.414 -29.801  1.00  0.00    -0.265 NA
HETATM    8  C   UNL     1      -0.660   5.046 -31.721  1.00  0.00     0.019 A 
HETATM    9  C   UNL     1       0.313   6.004 -31.436  1.00  0.00     0.001 A 
HETATM   10  C   UNL     1       0.006   7.083 -30.604  1.00  0.00     0.002 A 
HETATM   11  C   UNL     1      -1.277   7.221 -30.069  1.00  0.00     0.024 A 
HETATM   12  H   UNL     1      -3.565   5.823 -28.970  1.00  0.00     0.130 HD
ENDROOT
BRANCH   2  13
HETATM   13  N   UNL     1      -4.907   3.534 -29.969  1.00  0.00    -0.163 NA
HETATM   14  C   UNL     1      -5.987   2.805 -30.449  1.00  0.00     0.249 C 
HETATM   15  O   UNL     1      -7.125   3.007 -30.036  1.00  0.00    -0.272 OA
HETATM   16  H   UNL     1      -5.249   4.052 -29.160  1.00  0.00     0.156 HD
BRANCH  14  17
HETATM   17  C   UNL     1      -5.731   1.679 -31.366  1.00  0.00     0.028 A 
HETATM   18  C   UNL     1      -5.097   0.523 -30.901  1.00  0.00     0.019 A 
HETATM   19  C   UNL     1      -4.883  -0.543 -31.776  1.00  0.00     0.038 A 
HETATM   20  C   UNL     1      -5.288  -0.459 -33.112  1.00  0.00     0.069 A 
HETATM   21  C   UNL     1      -5.949   0.688 -33.563  1.00  0.00     0.038 A 
HETATM   22  C   UNL     1      -6.184   1.752 -32.686  1.00  0.00     0.019 A 
BRANCH  20  23
HETATM   23  O   UNL     1      -5.002  -1.565 -33.867  1.00  0.00    -0.348 OA
BRANCH  23  24
HETATM   24  C   UNL     1      -6.041  -2.040 -34.721  1.00  0.00     0.202 C 
BRANCH  24  25
HETATM   25  C   UNL     1      -5.712  -3.459 -35.082  1.00  0.00    -0.011 C 
HETATM   26  C   UNL     1      -6.610  -4.447 -35.193  1.00  0.00     0.009 C 
ENDBRANCH  24  25
ENDBRANCH  23  24
ENDBRANCH  20  23
ENDBRANCH  14  17
ENDBRANCH   2  13
BRANCH   1  27
HETATM   27  C   UNL     1      -5.989   6.240 -30.324  1.00  0.00    -0.014 A 
HETATM   28  C   UNL     1      -7.039   6.296 -31.272  1.00  0.00    -0.052 A 
HETATM   29  C   UNL     1      -8.337   6.659 -30.854  1.00  0.00     0.014 A 
HETATM   30  C   UNL     1      -6.846   5.959 -32.728  1.00  0.00     0.049 C 
HETATM   31  C   UNL     1      -8.610   7.001 -29.527  1.00  0.00    -0.061 A 
HETATM   32  C   UNL     1      -9.980   7.462 -29.123  1.00  0.00     0.048 C 
HETATM   33  C   UNL     1      -7.571   6.984 -28.602  1.00  0.00     0.007 A 
HETATM   34  C   UNL     1      -6.286   6.603 -28.993  1.00  0.00     0.011 A 
ENDBRANCH   1  27
TORSDOF 6
ENDMDL
MODEL 7
REMARK VINA RESULT:      -8.6      2.633      5.751
REMARK  6 active torsions:
REMARK  status: ('A' for Active; 'I' for Inactive)
REMARK    1  A    between atoms: C_6  and  C_7 
REMARK    2  A    between atoms: N_8  and  N_9 
REMARK       I    between atoms: N_9  and  C_10 
REMARK    3  A    between atoms: C_10  and  C_11 
REMARK    4  A    between atoms: C_14  and  O_15 
REMARK    5  A    between atoms: O_15  and  C_16 
REMARK    6  A    between atoms: C_16  and  C_17 
ROOT
HETATM    1  C   UNL     1      -7.560   2.376 -31.547  1.00  0.00     0.217 C 
HETATM    2  N   UNL     1      -8.498   3.311 -32.177  1.00  0.00    -0.247 N 
HETATM    3  C   UNL     1      -8.958   4.379 -31.395  1.00  0.00     0.272 C 
HETATM    4  O   UNL     1      -9.908   5.105 -31.663  1.00  0.00    -0.266 OA
HETATM    5  C   UNL     1      -8.161   4.676 -30.179  1.00  0.00     0.054 A 
HETATM    6  C   UNL     1      -6.898   4.079 -30.067  1.00  0.00     0.026 A 
HETATM    7  N   UNL     1      -6.428   3.176 -31.057  1.00  0.00    -0.265 NA
HETATM    8  C   UNL     1      -8.599   5.611 -29.238  1.00  0.00     0.019 A 
HETATM    9  C   UNL     1      -7.759   5.968 -28.184  1.00  0.00     0.001 A 
HETATM   10  C   UNL     1      -6.481   5.412 -28.092  1.00  0.00     0.002 A 
HETATM   11  C   UNL     1      -6.044   4.484 -29.040  1.00  0.00     0.024 A 
HETATM   12  H   UNL     1      -6.085   3.734 -31.839  1.00  0.00     0.130 HD
ENDROOT
BRANCH   2  13
HETATM   13  N   UNL     1      -8.292   3.564 -33.609  1.00  0.00    -0.163 NA
HETATM   14  C   UNL     1      -7.811   4.817 -33.962  1.00  0.00     0.249 C 
HETATM   15  O   UNL     1      -8.510   5.615 -34.582  1.00  0.00    -0.272 OA
HETATM   16  H   UNL     1      -9.171   3.443 -34.112  1.00  0.00     0.156 HD
BRANCH  14  17
HETATM   17  C   UNL     1      -6.394   5.132 -33.706  1.00  0.00     0.028 A 
HETATM   18  C   UNL     1      -6.050   6.171 -32.837  1.00  0.00     0.019 A 
HETATM   19  C   UNL     1      -4.703   6.441 -32.587  1.00  0.00     0.038 A 
HETATM   20  C   UNL     1      -3.700   5.689 -33.206  1.00  0.00     0.069 A 
HETATM   21  C   UNL     1      -4.052   4.631 -34.051  1.00  0.00     0.038 A 
HETATM   22  C   UNL     1      -5.399   4.342 -34.290  1.00  0.00     0.019 A 
BRANCH  20  23
HETATM   23  O   UNL     1      -2.423   6.069 -32.891  1.00  0.00    -0.348 OA
BRANCH  23  24
HETATM   24  C   UNL     1      -1.703   5.211 -32.008  1.00  0.00     0.202 C 
BRANCH  24  25
HETATM   25  C   UNL     1      -0.292   5.718 -31.940  1.00  0.00    -0.011 C 
HETATM   26  C   UNL     1       0.083   6.855 -31.340  1.00  0.00     0.009 C 
ENDBRANCH  24  25
ENDBRANCH  23  24
ENDBRANCH  20  23
ENDBRANCH  14  17
ENDBRANCH   2  13
BRANCH   1  27
HETATM   27  C   UNL     1      -7.107   1.176 -32.380  1.00  0.00    -0.014 A 
HETATM   28  C   UNL     1      -8.013   0.156 -32.762  1.00  0.00    -0.052 A 
HETATM   29  C   UNL     1      -7.546  -0.946 -33.509  1.00  0.00     0.014 A 
HETATM   30  C   UNL     1      -9.481   0.197 -32.427  1.00  0.00     0.049 C 
HETATM   31  C   UNL     1      -6.198  -1.079 -33.856  1.00  0.00    -0.061 A 
HETATM   32  C   UNL     1      -5.713  -2.300 -34.580  1.00  0.00     0.048 C 
HETATM   33  C   UNL     1      -5.301  -0.097 -33.448  1.00  0.00     0.007 A 
HETATM   34  C   UNL     1      -5.749   1.013 -32.730  1.00  0.00     0.011 A 
ENDBRANCH   1  27
TORSDOF 6
ENDMDL
MODEL 8
REMARK VINA RESULT:      -8.4      2.128      7.077
REMARK  6 active torsions:
REMARK  status: ('A' for Active; 'I' for Inactive)
REMARK    1  A    between atoms: C_6  and  C_7 
REMARK    2  A    between atoms: N_8  and  N_9 
REMARK       I    between atoms: N_9  and  C_10 
REMARK    3  A    between atoms: C_10  and  C_11 
REMARK    4  A    between atoms: C_14  and  O_15 
REMARK    5  A    between atoms: O_15  and  C_16 
REMARK    6  A    between atoms: C_16  and  C_17 
ROOT
HETATM    1  C   UNL     1      -5.045   1.894 -33.085  1.00  0.00     0.217 C 
HETATM    2  N   UNL     1      -6.428   1.843 -32.596  1.00  0.00    -0.247 N 
HETATM    3  C   UNL     1      -7.215   0.765 -33.021  1.00  0.00     0.272 C 
HETATM    4  O   UNL     1      -8.433   0.684 -32.916  1.00  0.00    -0.266 OA
HETATM    5  C   UNL     1      -6.473  -0.395 -33.576  1.00  0.00     0.054 A 
HETATM    6  C   UNL     1      -5.087  -0.439 -33.371  1.00  0.00     0.026 A 
HETATM    7  N   UNL     1      -4.414   0.622 -32.709  1.00  0.00    -0.265 NA
HETATM    8  C   UNL     1      -7.145  -1.464 -34.172  1.00  0.00     0.019 A 
HETATM    9  C   UNL     1      -6.428  -2.598 -34.553  1.00  0.00     0.001 A 
HETATM   10  C   UNL     1      -5.054  -2.667 -34.311  1.00  0.00     0.002 A 
HETATM   11  C   UNL     1      -4.388  -1.599 -33.705  1.00  0.00     0.024 A 
HETATM   12  H   UNL     1      -4.557   0.493 -31.707  1.00  0.00     0.130 HD
ENDROOT
BRANCH   2  13
HETATM   13  N   UNL     1      -6.649   2.345 -31.235  1.00  0.00    -0.163 NA
HETATM   14  C   UNL     1      -7.175   3.625 -31.116  1.00  0.00     0.249 C 
HETATM   15  O   UNL     1      -6.507   4.546 -30.653  1.00  0.00    -0.272 OA
HETATM   16  H   UNL     1      -5.770   2.349 -30.719  1.00  0.00     0.156 HD
BRANCH  14  17
HETATM   17  C   UNL     1      -8.600   3.839 -31.423  1.00  0.00     0.028 A 
HETATM   18  C   UNL     1      -8.991   4.252 -32.700  1.00  0.00     0.019 A 
HETATM   19  C   UNL     1     -10.347   4.428 -32.980  1.00  0.00     0.038 A 
HETATM   20  C   UNL     1     -11.313   4.203 -31.995  1.00  0.00     0.069 A 
HETATM   21  C   UNL     1     -10.917   3.759 -30.729  1.00  0.00     0.038 A 
HETATM   22  C   UNL     1      -9.562   3.563 -30.446  1.00  0.00     0.019 A 
BRANCH  20  23
HETATM   23  O   UNL     1     -12.603   4.429 -32.396  1.00  0.00    -0.348 OA
BRANCH  23  24
HETATM   24  C   UNL     1     -13.511   3.337 -32.266  1.00  0.00     0.202 C 
BRANCH  24  25
HETATM   25  C   UNL     1     -13.448   2.548 -33.541  1.00  0.00    -0.011 C 
HETATM   26  C   UNL     1     -13.038   1.276 -33.633  1.00  0.00     0.009 C 
ENDBRANCH  24  25
ENDBRANCH  23  24
ENDBRANCH  20  23
ENDBRANCH  14  17
ENDBRANCH   2  13
BRANCH   1  27
HETATM   27  C   UNL     1      -4.205   3.105 -32.673  1.00  0.00    -0.014 A 
HETATM   28  C   UNL     1      -4.382   4.371 -33.283  1.00  0.00    -0.052 A 
HETATM   29  C   UNL     1      -3.567   5.454 -32.889  1.00  0.00     0.014 A 
HETATM   30  C   UNL     1      -5.428   4.634 -34.334  1.00  0.00     0.049 C 
HETATM   31  C   UNL     1      -2.560   5.303 -31.931  1.00  0.00    -0.061 A 
HETATM   32  C   UNL     1      -1.655   6.449 -31.589  1.00  0.00     0.048 C 
HETATM   33  C   UNL     1      -2.360   4.051 -31.359  1.00  0.00     0.007 A 
HETATM   34  C   UNL     1      -3.174   2.974 -31.718  1.00  0.00     0.011 A 
ENDBRANCH   1  27
TORSDOF 6
ENDMDL
MODEL 9
REMARK VINA RESULT:      -8.1      1.608      1.992
REMARK  6 active torsions:
REMARK  status: ('A' for Active; 'I' for Inactive)
REMARK    1  A    between atoms: C_6  and  C_7 
REMARK    2  A    between atoms: N_8  and  N_9 
REMARK       I    between atoms: N_9  and  C_10 
REMARK    3  A    between atoms: C_10  and  C_11 
REMARK    4  A    between atoms: C_14  and  O_15 
REMARK    5  A    between atoms: O_15  and  C_16 
REMARK    6  A    between atoms: C_16  and  C_17 
ROOT
HETATM    1  C   UNL     1      -7.949   1.200 -33.294  1.00  0.00     0.217 C 
HETATM    2  N   UNL     1      -6.728   2.010 -33.221  1.00  0.00    -0.247 N 
HETATM    3  C   UNL     1      -5.513   1.323 -33.103  1.00  0.00     0.272 C 
HETATM    4  O   UNL     1      -4.437   1.821 -32.792  1.00  0.00    -0.266 OA
HETATM    5  C   UNL     1      -5.549  -0.117 -33.460  1.00  0.00     0.054 A 
HETATM    6  C   UNL     1      -6.681  -0.590 -34.139  1.00  0.00     0.026 A 
HETATM    7  N   UNL     1      -7.776   0.270 -34.418  1.00  0.00    -0.265 NA
HETATM    8  C   UNL     1      -4.446  -0.945 -33.239  1.00  0.00     0.019 A 
HETATM    9  C   UNL     1      -4.466  -2.255 -33.717  1.00  0.00     0.001 A 
HETATM   10  C   UNL     1      -5.571  -2.719 -34.434  1.00  0.00     0.002 A 
HETATM   11  C   UNL     1      -6.668  -1.884 -34.661  1.00  0.00     0.024 A 
HETATM   12  H   UNL     1      -7.527   0.823 -35.238  1.00  0.00     0.130 HD
ENDROOT
BRANCH   2  13
HETATM   13  N   UNL     1      -6.729   3.249 -34.009  1.00  0.00    -0.163 NA
HETATM   14  C   UNL     1      -6.938   4.433 -33.314  1.00  0.00     0.249 C 
HETATM   15  O   UNL     1      -7.962   5.092 -33.476  1.00  0.00    -0.272 OA
HETATM   16  H   UNL     1      -7.454   3.205 -34.723  1.00  0.00     0.156 HD
BRANCH  14  17
HETATM   17  C   UNL     1      -5.848   4.969 -32.479  1.00  0.00     0.028 A 
HETATM   18  C   UNL     1      -5.930   4.898 -31.086  1.00  0.00     0.019 A 
HETATM   19  C   UNL     1      -4.879   5.389 -30.310  1.00  0.00     0.038 A 
HETATM   20  C   UNL     1      -3.753   5.958 -30.913  1.00  0.00     0.069 A 
HETATM   21  C   UNL     1      -3.665   5.997 -32.309  1.00  0.00     0.038 A 
HETATM   22  C   UNL     1      -4.705   5.490 -33.093  1.00  0.00     0.019 A 
BRANCH  20  23
HETATM   23  O   UNL     1      -2.805   6.417 -30.039  1.00  0.00    -0.348 OA
BRANCH  23  24
HETATM   24  C   UNL     1      -1.457   6.418 -30.504  1.00  0.00     0.202 C 
BRANCH  24  25
HETATM   25  C   UNL     1      -0.572   6.641 -29.313  1.00  0.00    -0.011 C 
HETATM   26  C   UNL     1       0.504   7.440 -29.298  1.00  0.00     0.009 C 
ENDBRANCH  24  25
ENDBRANCH  23  24
ENDBRANCH  20  23
ENDBRANCH  14  17
ENDBRANCH   2  13
BRANCH   1  27
HETATM   27  C   UNL     1      -9.280   1.951 -33.359  1.00  0.00    -0.014 A 
HETATM   28  C   UNL     1      -9.837   2.572 -32.214  1.00  0.00    -0.052 A 
HETATM   29  C   UNL     1     -11.080   3.233 -32.315  1.00  0.00     0.014 A 
HETATM   30  C   UNL     1      -9.149   2.586 -30.874  1.00  0.00     0.049 C 
HETATM   31  C   UNL     1     -11.800   3.262 -33.513  1.00  0.00    -0.061 A 
HETATM   32  C   UNL     1     -13.156   3.900 -33.574  1.00  0.00     0.048 C 
HETATM   33  C   UNL     1     -11.272   2.619 -34.628  1.00  0.00     0.007 A 
HETATM   34  C   UNL     1     -10.031   1.982 -34.554  1.00  0.00     0.011 A 
ENDBRANCH   1  27
TORSDOF 6
ENDMDL
MODEL 10
REMARK VINA RESULT:      -8.0      1.839      2.692
REMARK  6 active torsions:
REMARK  status: ('A' for Active; 'I' for Inactive)
REMARK    1  A    between atoms: C_6  and  C_7 
REMARK    2  A    between atoms: N_8  and  N_9 
REMARK       I    between atoms: N_9  and  C_10 
REMARK    3  A    between atoms: C_10  and  C_11 
REMARK    4  A    between atoms: C_14  and  O_15 
REMARK    5  A    between atoms: O_15  and  C_16 
REMARK    6  A    between atoms: C_16  and  C_17 
ROOT
HETATM    1  C   UNL     1      -6.795   1.275 -32.619  1.00  0.00     0.217 C 
HETATM    2  N   UNL     1      -5.781   2.287 -32.938  1.00  0.00    -0.247 N 
HETATM    3  C   UNL     1      -4.453   1.983 -32.613  1.00  0.00     0.272 C 
HETATM    4  O   UNL     1      -3.524   2.782 -32.582  1.00  0.00    -0.266 OA
HETATM    5  C   UNL     1      -4.163   0.550 -32.359  1.00  0.00     0.054 A 
HETATM    6  C   UNL     1      -5.136  -0.387 -32.734  1.00  0.00     0.026 A 
HETATM    7  N   UNL     1      -6.378   0.032 -33.281  1.00  0.00    -0.265 NA
HETATM    8  C   UNL     1      -2.918   0.138 -31.877  1.00  0.00     0.019 A 
HETATM    9  C   UNL     1      -2.634  -1.224 -31.786  1.00  0.00     0.001 A 
HETATM   10  C   UNL     1      -3.582  -2.162 -32.202  1.00  0.00     0.002 A 
HETATM   11  C   UNL     1      -4.822  -1.746 -32.691  1.00  0.00     0.024 A 
HETATM   12  H   UNL     1      -6.218   0.246 -34.265  1.00  0.00     0.130 HD
ENDROOT
BRANCH   2  13
HETATM   13  N   UNL     1      -6.015   3.071 -34.156  1.00  0.00    -0.163 NA
HETATM   14  C   UNL     1      -6.154   4.444 -34.001  1.00  0.00     0.249 C 
HETATM   15  O   UNL     1      -7.227   5.003 -34.210  1.00  0.00    -0.272 OA
HETATM   16  H   UNL     1      -6.865   2.750 -34.618  1.00  0.00     0.156 HD
BRANCH  14  17
HETATM   17  C   UNL     1      -4.954   5.251 -33.716  1.00  0.00     0.028 A 
HETATM   18  C   UNL     1      -4.844   5.947 -32.508  1.00  0.00     0.019 A 
HETATM   19  C   UNL     1      -3.691   6.688 -32.244  1.00  0.00     0.038 A 
HETATM   20  C   UNL     1      -2.653   6.747 -33.179  1.00  0.00     0.069 A 
HETATM   21  C   UNL     1      -2.756   6.023 -34.371  1.00  0.00     0.038 A 
HETATM   22  C   UNL     1      -3.900   5.263 -34.634  1.00  0.00     0.019 A 
BRANCH  20  23
HETATM   23  O   UNL     1      -1.589   7.523 -32.804  1.00  0.00    -0.348 OA
BRANCH  23  24
HETATM   24  C   UNL     1      -1.394   7.702 -31.402  1.00  0.00     0.202 C 
BRANCH  24  25
HETATM   25  C   UNL     1      -0.124   6.995 -31.031  1.00  0.00    -0.011 C 
HETATM   26  C   UNL     1       0.154   5.718 -31.325  1.00  0.00     0.009 C 
ENDBRANCH  24  25
ENDBRANCH  23  24
ENDBRANCH  20  23
ENDBRANCH  14  17
ENDBRANCH   2  13
BRANCH   1  27
HETATM   27  C   UNL     1      -8.253   1.632 -32.915  1.00  0.00    -0.014 A 
HETATM   28  C   UNL     1      -8.904   1.174 -34.087  1.00  0.00    -0.052 A 
HETATM   29  C   UNL     1     -10.242   1.548 -34.331  1.00  0.00     0.014 A 
HETATM   30  C   UNL     1      -8.239   0.271 -35.093  1.00  0.00     0.049 C 
HETATM   31  C   UNL     1     -10.938   2.394 -33.462  1.00  0.00    -0.061 A 
HETATM   32  C   UNL     1     -12.332   2.842 -33.787  1.00  0.00     0.048 C 
HETATM   33  C   UNL     1     -10.287   2.875 -32.331  1.00  0.00     0.007 A 
HETATM   34  C   UNL     1      -8.971   2.494 -32.059  1.00  0.00     0.011 A 
ENDBRANCH   1  27
TORSDOF 6
ENDMDL
