MODEL 1
REMARK VINA RESULT:      -8.8      0.000      0.000
REMARK  9 active torsions:
REMARK  status: ('A' for Active; 'I' for Inactive)
REMARK    1  A    between atoms: C_2  and  N_3 
REMARK       I    between atoms: N_3  and  C_4 
REMARK    2  A    between atoms: C_4  and  C_5 
REMARK    3  A    between atoms: N_6  and  C_8 
REMARK    4  A    between atoms: C_8  and  C_9 
REMARK    5  A    between atoms: C_12  and  O_13 
REMARK    6  A    between atoms: O_13  and  C_14 
REMARK    7  A    between atoms: C_14  and  C_15 
REMARK    8  A    between atoms: C_24  and  S_25 
REMARK    9  A    between atoms: S_25  and  C_26 
ROOT
HETATM    1  C   UNL     1      -5.138   6.499 -30.380  1.00  0.00     0.280 C 
HETATM    2  N   UNL     1      -5.344   5.066 -30.898  1.00  0.00    -0.053 N 
HETATM    3  H   UNL     1      -4.591   4.856 -31.567  1.00  0.00     0.281 HD
HETATM    4  C   UNL     1      -6.678   5.162 -31.611  1.00  0.00     0.252 C 
HETATM    5  C   UNL     1      -7.506   6.159 -30.782  1.00  0.00     0.083 C 
HETATM    6  C   UNL     1      -6.514   6.852 -29.838  1.00  0.00     0.060 C 
ENDROOT
BRANCH   2   7
HETATM    7  C   UNL     1      -5.275   3.971 -29.850  1.00  0.00     0.274 C 
BRANCH   7   8
HETATM    8  C   UNL     1      -4.889   2.631 -30.418  1.00  0.00    -0.032 A 
HETATM    9  C   UNL     1      -3.774   2.503 -31.262  1.00  0.00     0.011 A 
HETATM   10  C   UNL     1      -3.422   1.258 -31.796  1.00  0.00     0.037 A 
HETATM   11  C   UNL     1      -4.182   0.131 -31.492  1.00  0.00     0.069 A 
HETATM   12  C   UNL     1      -5.306   0.255 -30.677  1.00  0.00     0.037 A 
HETATM   13  C   UNL     1      -5.651   1.490 -30.129  1.00  0.00     0.011 A 
BRANCH  11  14
HETATM   14  O   UNL     1      -3.950  -1.128 -31.963  1.00  0.00    -0.347 OA
BRANCH  14  15
HETATM   15  C   UNL     1      -3.716  -1.239 -33.368  1.00  0.00     0.214 C 
BRANCH  15  16
HETATM   16  C   UNL     1      -4.763  -2.169 -33.924  1.00  0.00    -0.034 A 
HETATM   17  C   UNL     1      -6.092  -1.743 -34.060  1.00  0.00     0.009 A 
HETATM   18  C   UNL     1      -7.071  -2.616 -34.539  1.00  0.00     0.001 A 
HETATM   19  C   UNL     1      -6.732  -3.923 -34.883  1.00  0.00     0.000 A 
HETATM   20  C   UNL     1      -5.416  -4.361 -34.745  1.00  0.00     0.001 A 
HETATM   21  C   UNL     1      -4.436  -3.490 -34.265  1.00  0.00     0.009 A 
ENDBRANCH  15  16
ENDBRANCH  14  15
ENDBRANCH  11  14
ENDBRANCH   7   8
ENDBRANCH   2   7
BRANCH   1  22
HETATM   22  C   UNL     1      -3.942   6.660 -29.428  1.00  0.00     0.249 C 
HETATM   23  N   UNL     1      -2.692   6.668 -30.002  1.00  0.00    -0.355 N 
HETATM   24  H   UNL     1      -2.563   6.355 -30.957  1.00  0.00     0.162 HD
HETATM   25  O   UNL     1      -4.132   6.758 -28.217  1.00  0.00    -0.271 OA
BRANCH  23  26
HETATM   26  C   UNL     1      -1.476   6.756 -29.194  1.00  0.00     0.076 C 
HETATM   27  C   UNL     1      -1.004   8.205 -29.126  1.00  0.00     0.032 C 
HETATM   28  C   UNL     1      -0.386   5.855 -29.768  1.00  0.00     0.032 C 
ENDBRANCH  23  26
ENDBRANCH   1  22
BRANCH   5  29
HETATM   29  S   UNL     1      -8.840   5.377 -29.805  1.00  0.00    -0.085 SA
BRANCH  29  30
HETATM   30  C   UNL     1      -9.188   4.024 -30.813  1.00  0.00     0.168 A 
HETATM   31  N   UNL     1      -9.794   4.067 -31.973  1.00  0.00    -0.223 NA
HETATM   32  C   UNL     1      -9.816   2.754 -32.394  1.00  0.00     0.086 A 
HETATM   33  C   UNL     1      -9.203   1.920 -31.461  1.00  0.00     0.063 A 
HETATM   34  C   UNL     1     -10.343   2.196 -33.567  1.00  0.00     0.034 A 
HETATM   35  N   UNL     1      -8.809   2.765 -30.456  1.00  0.00    -0.333 N 
HETATM   36  C   UNL     1      -9.080   0.539 -31.629  1.00  0.00     0.032 A 
HETATM   37  H   UNL     1      -8.331   2.506 -29.606  1.00  0.00     0.168 HD
HETATM   38  C   UNL     1      -9.612   0.002 -32.807  1.00  0.00     0.002 A 
HETATM   39  C   UNL     1     -10.233   0.814 -33.760  1.00  0.00     0.002 A 
ENDBRANCH  29  30
ENDBRANCH   5  29
TORSDOF 9
ENDMDL
MODEL 2
REMARK VINA RESULT:      -8.8      2.963      7.820
REMARK  9 active torsions:
REMARK  status: ('A' for Active; 'I' for Inactive)
REMARK    1  A    between atoms: C_2  and  N_3 
REMARK       I    between atoms: N_3  and  C_4 
REMARK    2  A    between atoms: C_4  and  C_5 
REMARK    3  A    between atoms: N_6  and  C_8 
REMARK    4  A    between atoms: C_8  and  C_9 
REMARK    5  A    between atoms: C_12  and  O_13 
REMARK    6  A    between atoms: O_13  and  C_14 
REMARK    7  A    between atoms: C_14  and  C_15 
REMARK    8  A    between atoms: C_24  and  S_25 
REMARK    9  A    between atoms: S_25  and  C_26 
ROOT
HETATM    1  C   UNL     1      -7.720   0.245 -32.687  1.00  0.00     0.280 C 
HETATM    2  N   UNL     1      -6.809   1.444 -32.379  1.00  0.00    -0.053 N 
HETATM    3  H   UNL     1      -5.930   1.086 -31.981  1.00  0.00     0.281 HD
HETATM    4  C   UNL     1      -7.600   2.199 -31.331  1.00  0.00     0.252 C 
HETATM    5  C   UNL     1      -9.074   2.015 -31.729  1.00  0.00     0.083 C 
HETATM    6  C   UNL     1      -9.093   0.891 -32.775  1.00  0.00     0.060 C 
ENDROOT
BRANCH   2   7
HETATM    7  C   UNL     1      -6.400   2.284 -33.576  1.00  0.00     0.274 C 
BRANCH   7   8
HETATM    8  C   UNL     1      -5.225   3.183 -33.295  1.00  0.00    -0.032 A 
HETATM    9  C   UNL     1      -4.134   2.723 -32.538  1.00  0.00     0.011 A 
HETATM   10  C   UNL     1      -3.047   3.564 -32.271  1.00  0.00     0.037 A 
HETATM   11  C   UNL     1      -3.042   4.869 -32.756  1.00  0.00     0.069 A 
HETATM   12  C   UNL     1      -4.133   5.341 -33.484  1.00  0.00     0.037 A 
HETATM   13  C   UNL     1      -5.211   4.503 -33.767  1.00  0.00     0.011 A 
BRANCH  11  14
HETATM   14  O   UNL     1      -2.051   5.784 -32.547  1.00  0.00    -0.347 OA
BRANCH  14  15
HETATM   15  C   UNL     1      -0.755   5.253 -32.266  1.00  0.00     0.214 C 
BRANCH  15  16
HETATM   16  C   UNL     1      -0.328   5.800 -30.928  1.00  0.00    -0.034 A 
HETATM   17  C   UNL     1      -0.550   7.146 -30.607  1.00  0.00     0.009 A 
HETATM   18  C   UNL     1      -0.120   7.664 -29.384  1.00  0.00     0.001 A 
HETATM   19  C   UNL     1       0.539   6.842 -28.472  1.00  0.00     0.000 A 
HETATM   20  C   UNL     1       0.773   5.504 -28.782  1.00  0.00     0.001 A 
HETATM   21  C   UNL     1       0.345   4.985 -30.005  1.00  0.00     0.009 A 
ENDBRANCH  15  16
ENDBRANCH  14  15
ENDBRANCH  11  14
ENDBRANCH   7   8
ENDBRANCH   2   7
BRANCH   1  22
HETATM   22  C   UNL     1      -7.262  -0.605 -33.883  1.00  0.00     0.249 C 
HETATM   23  N   UNL     1      -6.363  -1.612 -33.618  1.00  0.00    -0.355 N 
HETATM   24  H   UNL     1      -5.864  -1.636 -32.737  1.00  0.00     0.162 HD
HETATM   25  O   UNL     1      -7.689  -0.357 -35.010  1.00  0.00    -0.271 OA
BRANCH  23  26
HETATM   26  C   UNL     1      -5.811  -2.449 -34.683  1.00  0.00     0.076 C 
HETATM   27  C   UNL     1      -6.674  -3.693 -34.864  1.00  0.00     0.032 C 
HETATM   28  C   UNL     1      -4.366  -2.830 -34.368  1.00  0.00     0.032 C 
ENDBRANCH  23  26
ENDBRANCH   1  22
BRANCH   5  29
HETATM   29  S   UNL     1      -9.842   3.520 -32.432  1.00  0.00    -0.085 SA
BRANCH  29  30
HETATM   30  C   UNL     1     -11.412   2.907 -32.791  1.00  0.00     0.168 A 
HETATM   31  N   UNL     1     -11.716   2.110 -33.783  1.00  0.00    -0.223 NA
HETATM   32  C   UNL     1     -13.069   1.887 -33.638  1.00  0.00     0.086 A 
HETATM   33  C   UNL     1     -13.571   2.566 -32.530  1.00  0.00     0.063 A 
HETATM   34  C   UNL     1     -13.940   1.111 -34.416  1.00  0.00     0.034 A 
HETATM   35  N   UNL     1     -12.482   3.214 -32.005  1.00  0.00    -0.333 N 
HETATM   36  C   UNL     1     -14.912   2.518 -32.142  1.00  0.00     0.032 A 
HETATM   37  H   UNL     1     -12.472   3.809 -31.191  1.00  0.00     0.168 HD
HETATM   38  C   UNL     1     -15.765   1.739 -32.932  1.00  0.00     0.002 A 
HETATM   39  C   UNL     1     -15.290   1.047 -34.050  1.00  0.00     0.002 A 
ENDBRANCH  29  30
ENDBRANCH   5  29
TORSDOF 9
ENDMDL
MODEL 3
REMARK VINA RESULT:      -8.7      3.001      7.583
REMARK  9 active torsions:
REMARK  status: ('A' for Active; 'I' for Inactive)
REMARK    1  A    between atoms: C_2  and  N_3 
REMARK       I    between atoms: N_3  and  C_4 
REMARK    2  A    between atoms: C_4  and  C_5 
REMARK    3  A    between atoms: N_6  and  C_8 
REMARK    4  A    between atoms: C_8  and  C_9 
REMARK    5  A    between atoms: C_12  and  O_13 
REMARK    6  A    between atoms: O_13  and  C_14 
REMARK    7  A    between atoms: C_14  and  C_15 
REMARK    8  A    between atoms: C_24  and  S_25 
REMARK    9  A    between atoms: S_25  and  C_26 
ROOT
HETATM    1  C   UNL     1      -7.300   1.576 -31.439  1.00  0.00     0.280 C 
HETATM    2  N   UNL     1      -6.547   2.848 -31.862  1.00  0.00    -0.053 N 
HETATM    3  H   UNL     1      -5.743   2.969 -31.232  1.00  0.00     0.281 HD
HETATM    4  C   UNL     1      -7.576   3.934 -31.629  1.00  0.00     0.252 C 
HETATM    5  C   UNL     1      -8.928   3.291 -31.982  1.00  0.00     0.083 C 
HETATM    6  C   UNL     1      -8.668   1.780 -32.071  1.00  0.00     0.060 C 
ENDROOT
BRANCH   2   7
HETATM    7  C   UNL     1      -5.964   2.831 -33.264  1.00  0.00     0.274 C 
BRANCH   7   8
HETATM    8  C   UNL     1      -4.709   3.653 -33.394  1.00  0.00    -0.032 A 
HETATM    9  C   UNL     1      -4.649   4.736 -34.286  1.00  0.00     0.011 A 
HETATM   10  C   UNL     1      -3.478   5.494 -34.411  1.00  0.00     0.037 A 
HETATM   11  C   UNL     1      -2.358   5.173 -33.648  1.00  0.00     0.069 A 
HETATM   12  C   UNL     1      -2.401   4.082 -32.781  1.00  0.00     0.037 A 
HETATM   13  C   UNL     1      -3.570   3.335 -32.640  1.00  0.00     0.011 A 
BRANCH  11  14
HETATM   14  O   UNL     1      -1.160   5.824 -33.694  1.00  0.00    -0.347 OA
BRANCH  14  15
HETATM   15  C   UNL     1      -1.198   7.229 -33.443  1.00  0.00     0.214 C 
BRANCH  15  16
HETATM   16  C   UNL     1      -0.942   7.428 -31.971  1.00  0.00    -0.034 A 
HETATM   17  C   UNL     1       0.170   6.835 -31.357  1.00  0.00     0.009 A 
HETATM   18  C   UNL     1       0.388   6.986 -29.986  1.00  0.00     0.001 A 
HETATM   19  C   UNL     1      -0.505   7.728 -29.216  1.00  0.00     0.000 A 
HETATM   20  C   UNL     1      -1.619   8.316 -29.812  1.00  0.00     0.001 A 
HETATM   21  C   UNL     1      -1.839   8.164 -31.183  1.00  0.00     0.009 A 
ENDBRANCH  15  16
ENDBRANCH  14  15
ENDBRANCH  11  14
ENDBRANCH   7   8
ENDBRANCH   2   7
BRANCH   1  22
HETATM   22  C   UNL     1      -6.562   0.268 -31.763  1.00  0.00     0.249 C 
HETATM   23  N   UNL     1      -6.763  -0.263 -33.015  1.00  0.00    -0.355 N 
HETATM   24  H   UNL     1      -7.527   0.065 -33.595  1.00  0.00     0.162 HD
HETATM   25  O   UNL     1      -5.847  -0.259 -30.911  1.00  0.00    -0.271 OA
BRANCH  23  26
HETATM   26  C   UNL     1      -6.162  -1.534 -33.419  1.00  0.00     0.076 C 
HETATM   27  C   UNL     1      -4.711  -1.310 -33.835  1.00  0.00     0.032 C 
HETATM   28  C   UNL     1      -6.963  -2.168 -34.553  1.00  0.00     0.032 C 
ENDBRANCH  23  26
ENDBRANCH   1  22
BRANCH   5  29
HETATM   29  S   UNL     1      -9.637   3.885 -33.561  1.00  0.00    -0.085 SA
BRANCH  29  30
HETATM   30  C   UNL     1     -11.214   3.201 -33.449  1.00  0.00     0.168 A 
HETATM   31  N   UNL     1     -12.164   3.589 -32.635  1.00  0.00    -0.223 NA
HETATM   32  C   UNL     1     -13.226   2.764 -32.935  1.00  0.00     0.086 A 
HETATM   33  C   UNL     1     -12.896   1.872 -33.954  1.00  0.00     0.063 A 
HETATM   34  C   UNL     1     -14.512   2.718 -32.378  1.00  0.00     0.034 A 
HETATM   35  N   UNL     1     -11.596   2.177 -34.264  1.00  0.00    -0.333 N 
HETATM   36  C   UNL     1     -13.784   0.922 -34.460  1.00  0.00     0.032 A 
HETATM   37  H   UNL     1     -11.023   1.728 -34.962  1.00  0.00     0.168 HD
HETATM   38  C   UNL     1     -15.062   0.892 -33.891  1.00  0.00     0.002 A 
HETATM   39  C   UNL     1     -15.422   1.773 -32.868  1.00  0.00     0.002 A 
ENDBRANCH  29  30
ENDBRANCH   5  29
TORSDOF 9
ENDMDL
MODEL 4
REMARK VINA RESULT:      -8.6      3.662      7.932
REMARK  9 active torsions:
REMARK  status: ('A' for Active; 'I' for Inactive)
REMARK    1  A    between atoms: C_2  and  N_3 
REMARK       I    between atoms: N_3  and  C_4 
REMARK    2  A    between atoms: C_4  and  C_5 
REMARK    3  A    between atoms: N_6  and  C_8 
REMARK    4  A    between atoms: C_8  and  C_9 
REMARK    5  A    between atoms: C_12  and  O_13 
REMARK    6  A    between atoms: O_13  and  C_14 
REMARK    7  A    between atoms: C_14  and  C_15 
REMARK    8  A    between atoms: C_24  and  S_25 
REMARK    9  A    between atoms: S_25  and  C_26 
ROOT
HETATM    1  C   UNL     1      -6.327   2.112 -30.480  1.00  0.00     0.280 C 
HETATM    2  N   UNL     1      -6.839   0.957 -31.356  1.00  0.00    -0.053 N 
HETATM    3  H   UNL     1      -7.760   0.668 -30.999  1.00  0.00     0.281 HD
HETATM    4  C   UNL     1      -5.809  -0.126 -31.110  1.00  0.00     0.252 C 
HETATM    5  C   UNL     1      -4.472   0.619 -30.948  1.00  0.00     0.083 C 
HETATM    6  C   UNL     1      -4.833   2.100 -30.763  1.00  0.00     0.060 C 
ENDROOT
BRANCH   2   7
HETATM    7  C   UNL     1      -7.057   1.289 -32.821  1.00  0.00     0.274 C 
BRANCH   7   8
HETATM    8  C   UNL     1      -8.511   1.328 -33.209  1.00  0.00    -0.032 A 
HETATM    9  C   UNL     1      -9.381   0.288 -32.840  1.00  0.00     0.011 A 
HETATM   10  C   UNL     1     -10.731   0.322 -33.210  1.00  0.00     0.037 A 
HETATM   11  C   UNL     1     -11.222   1.394 -33.952  1.00  0.00     0.069 A 
HETATM   12  C   UNL     1     -10.359   2.415 -34.345  1.00  0.00     0.037 A 
HETATM   13  C   UNL     1      -9.017   2.395 -33.965  1.00  0.00     0.011 A 
BRANCH  11  14
HETATM   14  O   UNL     1     -12.508   1.530 -34.384  1.00  0.00    -0.347 OA
BRANCH  14  15
HETATM   15  C   UNL     1     -13.511   0.913 -33.575  1.00  0.00     0.214 C 
BRANCH  15  16
HETATM   16  C   UNL     1     -14.343   2.017 -32.973  1.00  0.00    -0.034 A 
HETATM   17  C   UNL     1     -15.685   1.792 -32.636  1.00  0.00     0.009 A 
HETATM   18  C   UNL     1     -16.468   2.823 -32.115  1.00  0.00     0.001 A 
HETATM   19  C   UNL     1     -15.918   4.090 -31.929  1.00  0.00     0.000 A 
HETATM   20  C   UNL     1     -14.587   4.329 -32.267  1.00  0.00     0.001 A 
HETATM   21  C   UNL     1     -13.804   3.299 -32.790  1.00  0.00     0.009 A 
ENDBRANCH  15  16
ENDBRANCH  14  15
ENDBRANCH  11  14
ENDBRANCH   7   8
ENDBRANCH   2   7
BRANCH   1  22
HETATM   22  C   UNL     1      -7.073   3.439 -30.685  1.00  0.00     0.249 C 
HETATM   23  N   UNL     1      -8.400   3.465 -30.324  1.00  0.00    -0.355 N 
HETATM   24  H   UNL     1      -8.903   2.602 -30.155  1.00  0.00     0.162 HD
HETATM   25  O   UNL     1      -6.484   4.406 -31.167  1.00  0.00    -0.271 OA
BRANCH  23  26
HETATM   26  C   UNL     1      -9.230   4.653 -30.527  1.00  0.00     0.076 C 
HETATM   27  C   UNL     1      -8.995   5.647 -29.394  1.00  0.00     0.032 C 
HETATM   28  C   UNL     1     -10.704   4.267 -30.615  1.00  0.00     0.032 C 
ENDBRANCH  23  26
ENDBRANCH   1  22
BRANCH   5  29
HETATM   29  S   UNL     1      -3.347   0.435 -32.378  1.00  0.00    -0.085 SA
BRANCH  29  30
HETATM   30  C   UNL     1      -3.971  -1.021 -33.056  1.00  0.00     0.168 A 
HETATM   31  N   UNL     1      -4.973  -1.109 -33.895  1.00  0.00    -0.223 NA
HETATM   32  C   UNL     1      -5.075  -2.458 -34.161  1.00  0.00     0.086 A 
HETATM   33  C   UNL     1      -4.106  -3.180 -33.466  1.00  0.00     0.063 A 
HETATM   34  C   UNL     1      -5.973  -3.144 -34.990  1.00  0.00     0.034 A 
HETATM   35  N   UNL     1      -3.411  -2.228 -32.765  1.00  0.00    -0.333 N 
HETATM   36  C   UNL     1      -3.974  -4.567 -33.550  1.00  0.00     0.032 A 
HETATM   37  H   UNL     1      -2.632  -2.388 -32.144  1.00  0.00     0.168 HD
HETATM   38  C   UNL     1      -4.881  -5.233 -34.383  1.00  0.00     0.002 A 
HETATM   39  C   UNL     1      -5.864  -4.536 -35.091  1.00  0.00     0.002 A 
ENDBRANCH  29  30
ENDBRANCH   5  29
TORSDOF 9
ENDMDL
MODEL 5
REMARK VINA RESULT:      -8.5      3.012      6.289
REMARK  9 active torsions:
REMARK  status: ('A' for Active; 'I' for Inactive)
REMARK    1  A    between atoms: C_2  and  N_3 
REMARK       I    between atoms: N_3  and  C_4 
REMARK    2  A    between atoms: C_4  and  C_5 
REMARK    3  A    between atoms: N_6  and  C_8 
REMARK    4  A    between atoms: C_8  and  C_9 
REMARK    5  A    between atoms: C_12  and  O_13 
REMARK    6  A    between atoms: O_13  and  C_14 
REMARK    7  A    between atoms: C_14  and  C_15 
REMARK    8  A    between atoms: C_24  and  S_25 
REMARK    9  A    between atoms: S_25  and  C_26 
ROOT
HETATM    1  C   UNL     1      -3.413   3.120 -31.512  1.00  0.00     0.280 C 
HETATM    2  N   UNL     1      -4.836   3.646 -31.268  1.00  0.00    -0.053 N 
HETATM    3  H   UNL     1      -4.841   4.153 -30.373  1.00  0.00     0.281 HD
HETATM    4  C   UNL     1      -5.647   2.371 -31.164  1.00  0.00     0.252 C 
HETATM    5  C   UNL     1      -4.994   1.396 -32.158  1.00  0.00     0.083 C 
HETATM    6  C   UNL     1      -3.643   2.019 -32.537  1.00  0.00     0.060 C 
ENDROOT
BRANCH   2   7
HETATM    7  C   UNL     1      -5.358   4.634 -32.296  1.00  0.00     0.274 C 
BRANCH   7   8
HETATM    8  C   UNL     1      -6.851   4.570 -32.475  1.00  0.00    -0.032 A 
HETATM    9  C   UNL     1      -7.712   4.689 -31.372  1.00  0.00     0.011 A 
HETATM   10  C   UNL     1      -9.101   4.620 -31.540  1.00  0.00     0.037 A 
HETATM   11  C   UNL     1      -9.639   4.431 -32.810  1.00  0.00     0.069 A 
HETATM   12  C   UNL     1      -8.790   4.285 -33.906  1.00  0.00     0.037 A 
HETATM   13  C   UNL     1      -7.407   4.369 -33.747  1.00  0.00     0.011 A 
BRANCH  11  14
HETATM   14  O   UNL     1     -10.969   4.331 -33.096  1.00  0.00    -0.347 OA
BRANCH  14  15
HETATM   15  C   UNL     1     -11.296   3.847 -34.400  1.00  0.00     0.214 C 
BRANCH  15  16
HETATM   16  C   UNL     1     -11.968   2.508 -34.225  1.00  0.00    -0.034 A 
HETATM   17  C   UNL     1     -13.309   2.334 -34.594  1.00  0.00     0.009 A 
HETATM   18  C   UNL     1     -13.945   1.106 -34.398  1.00  0.00     0.001 A 
HETATM   19  C   UNL     1     -13.247   0.044 -33.827  1.00  0.00     0.000 A 
HETATM   20  C   UNL     1     -11.916   0.207 -33.449  1.00  0.00     0.001 A 
HETATM   21  C   UNL     1     -11.279   1.434 -33.643  1.00  0.00     0.009 A 
ENDBRANCH  15  16
ENDBRANCH  14  15
ENDBRANCH  11  14
ENDBRANCH   7   8
ENDBRANCH   2   7
BRANCH   1  22
HETATM   22  C   UNL     1      -2.388   4.209 -31.865  1.00  0.00     0.249 C 
HETATM   23  N   UNL     1      -1.974   5.024 -30.837  1.00  0.00    -0.355 N 
HETATM   24  H   UNL     1      -2.486   5.049 -29.964  1.00  0.00     0.162 HD
HETATM   25  O   UNL     1      -1.993   4.326 -33.024  1.00  0.00    -0.271 OA
BRANCH  23  26
HETATM   26  C   UNL     1      -1.046   6.132 -31.062  1.00  0.00     0.076 C 
HETATM   27  C   UNL     1       0.387   5.662 -30.836  1.00  0.00     0.032 C 
HETATM   28  C   UNL     1      -1.385   7.306 -30.145  1.00  0.00     0.032 C 
ENDBRANCH  23  26
ENDBRANCH   1  22
BRANCH   5  29
HETATM   29  S   UNL     1      -5.983   1.112 -33.671  1.00  0.00    -0.085 SA
BRANCH  29  30
HETATM   30  C   UNL     1      -5.671  -0.565 -33.915  1.00  0.00     0.168 A 
HETATM   31  N   UNL     1      -4.589  -1.205 -33.550  1.00  0.00    -0.223 NA
HETATM   32  C   UNL     1      -4.818  -2.508 -33.937  1.00  0.00     0.086 A 
HETATM   33  C   UNL     1      -6.069  -2.638 -34.539  1.00  0.00     0.063 A 
HETATM   34  C   UNL     1      -4.002  -3.641 -33.805  1.00  0.00     0.034 A 
HETATM   35  N   UNL     1      -6.593  -1.372 -34.510  1.00  0.00    -0.333 N 
HETATM   36  C   UNL     1      -6.564  -3.849 -35.026  1.00  0.00     0.032 A 
HETATM   37  H   UNL     1      -7.493  -1.086 -34.866  1.00  0.00     0.168 HD
HETATM   38  C   UNL     1      -5.735  -4.968 -34.885  1.00  0.00     0.002 A 
HETATM   39  C   UNL     1      -4.476  -4.868 -34.286  1.00  0.00     0.002 A 
ENDBRANCH  29  30
ENDBRANCH   5  29
TORSDOF 9
ENDMDL
MODEL 6
REMARK VINA RESULT:      -8.5      1.629      2.088
REMARK  9 active torsions:
REMARK  status: ('A' for Active; 'I' for Inactive)
REMARK    1  A    between atoms: C_2  and  N_3 
REMARK       I    between atoms: N_3  and  C_4 
REMARK    2  A    between atoms: C_4  and  C_5 
REMARK    3  A    between atoms: N_6  and  C_8 
REMARK    4  A    between atoms: C_8  and  C_9 
REMARK    5  A    between atoms: C_12  and  O_13 
REMARK    6  A    between atoms: O_13  and  C_14 
REMARK    7  A    between atoms: C_14  and  C_15 
REMARK    8  A    between atoms: C_24  and  S_25 
REMARK    9  A    between atoms: S_25  and  C_26 
ROOT
HETATM    1  C   UNL     1      -3.318   6.314 -31.336  1.00  0.00     0.280 C 
HETATM    2  N   UNL     1      -3.690   5.040 -32.112  1.00  0.00    -0.053 N 
HETATM    3  H   UNL     1      -3.333   5.134 -33.072  1.00  0.00     0.281 HD
HETATM    4  C   UNL     1      -5.204   5.076 -32.100  1.00  0.00     0.252 C 
HETATM    5  C   UNL     1      -5.582   5.679 -30.736  1.00  0.00     0.083 C 
HETATM    6  C   UNL     1      -4.289   6.279 -30.166  1.00  0.00     0.060 C 
ENDROOT
BRANCH   2   7
HETATM    7  C   UNL     1      -3.093   3.749 -31.581  1.00  0.00     0.274 C 
BRANCH   7   8
HETATM    8  C   UNL     1      -3.926   2.536 -31.899  1.00  0.00    -0.032 A 
HETATM    9  C   UNL     1      -4.694   2.481 -33.074  1.00  0.00     0.011 A 
HETATM   10  C   UNL     1      -5.475   1.356 -33.364  1.00  0.00     0.037 A 
HETATM   11  C   UNL     1      -5.495   0.278 -32.482  1.00  0.00     0.069 A 
HETATM   12  C   UNL     1      -4.757   0.337 -31.301  1.00  0.00     0.037 A 
HETATM   13  C   UNL     1      -3.964   1.448 -31.016  1.00  0.00     0.011 A 
BRANCH  11  14
HETATM   14  O   UNL     1      -6.227  -0.862 -32.647  1.00  0.00    -0.347 OA
BRANCH  14  15
HETATM   15  C   UNL     1      -6.587  -1.188 -33.990  1.00  0.00     0.214 C 
BRANCH  15  16
HETATM   16  C   UNL     1      -6.001  -2.543 -34.294  1.00  0.00    -0.034 A 
HETATM   17  C   UNL     1      -6.782  -3.534 -34.907  1.00  0.00     0.009 A 
HETATM   18  C   UNL     1      -6.253  -4.801 -35.155  1.00  0.00     0.001 A 
HETATM   19  C   UNL     1      -4.940  -5.092 -34.789  1.00  0.00     0.000 A 
HETATM   20  C   UNL     1      -4.156  -4.119 -34.173  1.00  0.00     0.001 A 
HETATM   21  C   UNL     1      -4.684  -2.851 -33.923  1.00  0.00     0.009 A 
ENDBRANCH  15  16
ENDBRANCH  14  15
ENDBRANCH  11  14
ENDBRANCH   7   8
ENDBRANCH   2   7
BRANCH   1  22
HETATM   22  C   UNL     1      -1.823   6.440 -31.008  1.00  0.00     0.249 C 
HETATM   23  N   UNL     1      -1.423   6.003 -29.767  1.00  0.00    -0.355 N 
HETATM   24  H   UNL     1      -2.106   5.829 -29.039  1.00  0.00     0.162 HD
HETATM   25  O   UNL     1      -1.053   6.929 -31.834  1.00  0.00    -0.271 OA
BRANCH  23  26
HETATM   26  C   UNL     1      -0.036   6.126 -29.318  1.00  0.00     0.076 C 
HETATM   27  C   UNL     1       0.735   4.857 -29.669  1.00  0.00     0.032 C 
HETATM   28  C   UNL     1       0.019   6.399 -27.817  1.00  0.00     0.032 C 
ENDBRANCH  23  26
ENDBRANCH   1  22
BRANCH   5  29
HETATM   29  S   UNL     1      -6.267   4.462 -29.555  1.00  0.00    -0.085 SA
BRANCH  29  30
HETATM   30  C   UNL     1      -7.325   3.598 -30.604  1.00  0.00     0.168 A 
HETATM   31  N   UNL     1      -7.890   4.073 -31.686  1.00  0.00    -0.223 NA
HETATM   32  C   UNL     1      -8.614   3.012 -32.185  1.00  0.00     0.086 A 
HETATM   33  C   UNL     1      -8.467   1.883 -31.381  1.00  0.00     0.063 A 
HETATM   34  C   UNL     1      -9.424   2.936 -33.328  1.00  0.00     0.034 A 
HETATM   35  N   UNL     1      -7.632   2.291 -30.373  1.00  0.00    -0.333 N 
HETATM   36  C   UNL     1      -9.087   0.662 -31.651  1.00  0.00     0.032 A 
HETATM   37  H   UNL     1      -7.306   1.731 -29.599  1.00  0.00     0.168 HD
HETATM   38  C   UNL     1      -9.890   0.606 -32.796  1.00  0.00     0.002 A 
HETATM   39  C   UNL     1     -10.058   1.722 -33.621  1.00  0.00     0.002 A 
ENDBRANCH  29  30
ENDBRANCH   5  29
TORSDOF 9
ENDMDL
MODEL 7
REMARK VINA RESULT:      -8.4      2.114      2.894
REMARK  9 active torsions:
REMARK  status: ('A' for Active; 'I' for Inactive)
REMARK    1  A    between atoms: C_2  and  N_3 
REMARK       I    between atoms: N_3  and  C_4 
REMARK    2  A    between atoms: C_4  and  C_5 
REMARK    3  A    between atoms: N_6  and  C_8 
REMARK    4  A    between atoms: C_8  and  C_9 
REMARK    5  A    between atoms: C_12  and  O_13 
REMARK    6  A    between atoms: O_13  and  C_14 
REMARK    7  A    between atoms: C_14  and  C_15 
REMARK    8  A    between atoms: C_24  and  S_25 
REMARK    9  A    between atoms: S_25  and  C_26 
ROOT
HETATM    1  C   UNL     1      -5.809   6.572 -32.504  1.00  0.00     0.280 C 
HETATM    2  N   UNL     1      -6.170   5.140 -32.929  1.00  0.00    -0.053 N 
HETATM    3  H   UNL     1      -5.557   4.873 -33.711  1.00  0.00     0.281 HD
HETATM    4  C   UNL     1      -7.602   5.287 -33.400  1.00  0.00     0.252 C 
HETATM    5  C   UNL     1      -8.224   6.347 -32.475  1.00  0.00     0.083 C 
HETATM    6  C   UNL     1      -7.050   7.011 -31.743  1.00  0.00     0.060 C 
ENDROOT
BRANCH   2   7
HETATM    7  C   UNL     1      -5.968   4.070 -31.872  1.00  0.00     0.274 C 
BRANCH   7   8
HETATM    8  C   UNL     1      -6.423   2.704 -32.316  1.00  0.00    -0.032 A 
HETATM    9  C   UNL     1      -7.044   1.826 -31.413  1.00  0.00     0.011 A 
HETATM   10  C   UNL     1      -7.458   0.554 -31.826  1.00  0.00     0.037 A 
HETATM   11  C   UNL     1      -7.254   0.150 -33.143  1.00  0.00     0.069 A 
HETATM   12  C   UNL     1      -6.614   1.006 -34.037  1.00  0.00     0.037 A 
HETATM   13  C   UNL     1      -6.214   2.280 -33.636  1.00  0.00     0.011 A 
BRANCH  11  14
HETATM   14  O   UNL     1      -7.597  -1.067 -33.657  1.00  0.00    -0.347 OA
BRANCH  14  15
HETATM   15  C   UNL     1      -6.994  -1.414 -34.904  1.00  0.00     0.214 C 
BRANCH  15  16
HETATM   16  C   UNL     1      -6.132  -2.627 -34.663  1.00  0.00    -0.034 A 
HETATM   17  C   UNL     1      -4.847  -2.488 -34.120  1.00  0.00     0.009 A 
HETATM   18  C   UNL     1      -4.032  -3.607 -33.931  1.00  0.00     0.001 A 
HETATM   19  C   UNL     1      -4.493  -4.873 -34.287  1.00  0.00     0.000 A 
HETATM   20  C   UNL     1      -5.766  -5.023 -34.835  1.00  0.00     0.001 A 
HETATM   21  C   UNL     1      -6.581  -3.905 -35.025  1.00  0.00     0.009 A 
ENDBRANCH  15  16
ENDBRANCH  14  15
ENDBRANCH  11  14
ENDBRANCH   7   8
ENDBRANCH   2   7
BRANCH   1  22
HETATM   22  C   UNL     1      -4.458   6.695 -31.782  1.00  0.00     0.249 C 
HETATM   23  N   UNL     1      -3.335   6.391 -32.516  1.00  0.00    -0.355 N 
HETATM   24  H   UNL     1      -3.415   5.898 -33.397  1.00  0.00     0.162 HD
HETATM   25  O   UNL     1      -4.424   7.036 -30.601  1.00  0.00    -0.271 OA
BRANCH  23  26
HETATM   26  C   UNL     1      -1.999   6.415 -31.921  1.00  0.00     0.076 C 
HETATM   27  C   UNL     1      -1.145   7.475 -32.609  1.00  0.00     0.032 C 
HETATM   28  C   UNL     1      -1.344   5.039 -32.022  1.00  0.00     0.032 C 
ENDBRANCH  23  26
ENDBRANCH   1  22
BRANCH   5  29
HETATM   29  S   UNL     1      -9.400   5.660 -31.253  1.00  0.00    -0.085 SA
BRANCH  29  30
HETATM   30  C   UNL     1     -10.227   4.523 -32.249  1.00  0.00     0.168 A 
HETATM   31  N   UNL     1     -10.120   3.220 -32.177  1.00  0.00    -0.223 NA
HETATM   32  C   UNL     1     -10.981   2.755 -33.148  1.00  0.00     0.086 A 
HETATM   33  C   UNL     1     -11.613   3.810 -33.804  1.00  0.00     0.063 A 
HETATM   34  C   UNL     1     -11.278   1.438 -33.529  1.00  0.00     0.034 A 
HETATM   35  N   UNL     1     -11.108   4.934 -33.203  1.00  0.00    -0.333 N 
HETATM   36  C   UNL     1     -12.540   3.631 -34.832  1.00  0.00     0.032 A 
HETATM   37  H   UNL     1     -11.340   5.890 -33.426  1.00  0.00     0.168 HD
HETATM   38  C   UNL     1     -12.822   2.309 -35.197  1.00  0.00     0.002 A 
HETATM   39  C   UNL     1     -12.204   1.231 -34.559  1.00  0.00     0.002 A 
ENDBRANCH  29  30
ENDBRANCH   5  29
TORSDOF 9
ENDMDL
MODEL 8
REMARK VINA RESULT:      -8.4      2.386      5.980
REMARK  9 active torsions:
REMARK  status: ('A' for Active; 'I' for Inactive)
REMARK    1  A    between atoms: C_2  and  N_3 
REMARK       I    between atoms: N_3  and  C_4 
REMARK    2  A    between atoms: C_4  and  C_5 
REMARK    3  A    between atoms: N_6  and  C_8 
REMARK    4  A    between atoms: C_8  and  C_9 
REMARK    5  A    between atoms: C_12  and  O_13 
REMARK    6  A    between atoms: O_13  and  C_14 
REMARK    7  A    between atoms: C_14  and  C_15 
REMARK    8  A    between atoms: C_24  and  S_25 
REMARK    9  A    between atoms: S_25  and  C_26 
ROOT
HETATM    1  C   UNL     1      -5.286   6.794 -31.166  1.00  0.00     0.280 C 
HETATM    2  N   UNL     1      -6.058   5.609 -30.562  1.00  0.00    -0.053 N 
HETATM    3  H   UNL     1      -6.691   5.239 -31.284  1.00  0.00     0.281 HD
HETATM    4  C   UNL     1      -6.846   6.263 -29.446  1.00  0.00     0.252 C 
HETATM    5  C   UNL     1      -5.927   7.367 -28.897  1.00  0.00     0.083 C 
HETATM    6  C   UNL     1      -4.801   7.533 -29.929  1.00  0.00     0.060 C 
ENDROOT
BRANCH   2   7
HETATM    7  C   UNL     1      -5.212   4.429 -30.120  1.00  0.00     0.274 C 
BRANCH   7   8
HETATM    8  C   UNL     1      -5.543   3.155 -30.852  1.00  0.00    -0.032 A 
HETATM    9  C   UNL     1      -4.722   2.693 -31.894  1.00  0.00     0.011 A 
HETATM   10  C   UNL     1      -5.037   1.513 -32.579  1.00  0.00     0.037 A 
HETATM   11  C   UNL     1      -6.172   0.787 -32.229  1.00  0.00     0.069 A 
HETATM   12  C   UNL     1      -7.006   1.255 -31.214  1.00  0.00     0.037 A 
HETATM   13  C   UNL     1      -6.689   2.420 -30.517  1.00  0.00     0.011 A 
BRANCH  11  14
HETATM   14  O   UNL     1      -6.590  -0.363 -32.831  1.00  0.00    -0.347 OA
BRANCH  14  15
HETATM   15  C   UNL     1      -6.161  -0.557 -34.180  1.00  0.00     0.214 C 
BRANCH  15  16
HETATM   16  C   UNL     1      -5.821  -2.017 -34.337  1.00  0.00    -0.034 A 
HETATM   17  C   UNL     1      -6.813  -2.944 -34.685  1.00  0.00     0.009 A 
HETATM   18  C   UNL     1      -6.509  -4.302 -34.794  1.00  0.00     0.001 A 
HETATM   19  C   UNL     1      -5.211  -4.747 -34.550  1.00  0.00     0.000 A 
HETATM   20  C   UNL     1      -4.217  -3.837 -34.195  1.00  0.00     0.001 A 
HETATM   21  C   UNL     1      -4.520  -2.479 -34.085  1.00  0.00     0.009 A 
ENDBRANCH  15  16
ENDBRANCH  14  15
ENDBRANCH  11  14
ENDBRANCH   7   8
ENDBRANCH   2   7
BRANCH   1  22
HETATM   22  C   UNL     1      -4.230   6.394 -32.208  1.00  0.00     0.249 C 
HETATM   23  N   UNL     1      -2.913   6.549 -31.844  1.00  0.00    -0.355 N 
HETATM   24  H   UNL     1      -2.666   7.107 -31.035  1.00  0.00     0.162 HD
HETATM   25  O   UNL     1      -4.583   5.974 -33.309  1.00  0.00    -0.271 OA
BRANCH  23  26
HETATM   26  C   UNL     1      -1.819   6.258 -32.771  1.00  0.00     0.076 C 
HETATM   27  C   UNL     1      -1.186   4.916 -32.419  1.00  0.00     0.032 C 
HETATM   28  C   UNL     1      -0.779   7.376 -32.739  1.00  0.00     0.032 C 
ENDBRANCH  23  26
ENDBRANCH   1  22
BRANCH   5  29
HETATM   29  S   UNL     1      -5.206   6.981 -27.261  1.00  0.00    -0.085 SA
BRANCH  29  30
HETATM   30  C   UNL     1      -3.559   7.383 -27.563  1.00  0.00     0.168 A 
HETATM   31  N   UNL     1      -2.930   8.439 -27.109  1.00  0.00    -0.223 NA
HETATM   32  C   UNL     1      -1.648   8.307 -27.596  1.00  0.00     0.086 A 
HETATM   33  C   UNL     1      -1.517   7.142 -28.351  1.00  0.00     0.063 A 
HETATM   34  C   UNL     1      -0.535   9.144 -27.434  1.00  0.00     0.034 A 
HETATM   35  N   UNL     1      -2.762   6.570 -28.311  1.00  0.00    -0.333 N 
HETATM   36  C   UNL     1      -0.324   6.753 -28.963  1.00  0.00     0.032 A 
HETATM   37  H   UNL     1      -3.042   5.708 -28.755  1.00  0.00     0.168 HD
HETATM   38  C   UNL     1       0.775   7.603 -28.789  1.00  0.00     0.002 A 
HETATM   39  C   UNL     1       0.674   8.777 -28.039  1.00  0.00     0.002 A 
ENDBRANCH  29  30
ENDBRANCH   5  29
TORSDOF 9
ENDMDL
MODEL 9
REMARK VINA RESULT:      -8.3      3.391      6.818
REMARK  9 active torsions:
REMARK  status: ('A' for Active; 'I' for Inactive)
REMARK    1  A    between atoms: C_2  and  N_3 
REMARK       I    between atoms: N_3  and  C_4 
REMARK    2  A    between atoms: C_4  and  C_5 
REMARK    3  A    between atoms: N_6  and  C_8 
REMARK    4  A    between atoms: C_8  and  C_9 
REMARK    5  A    between atoms: C_12  and  O_13 
REMARK    6  A    between atoms: O_13  and  C_14 
REMARK    7  A    between atoms: C_14  and  C_15 
REMARK    8  A    between atoms: C_24  and  S_25 
REMARK    9  A    between atoms: S_25  and  C_26 
ROOT
HETATM    1  C   UNL     1      -4.422   3.374 -31.281  1.00  0.00     0.280 C 
HETATM    2  N   UNL     1      -5.929   3.674 -31.256  1.00  0.00    -0.053 N 
HETATM    3  H   UNL     1      -6.153   4.112 -30.352  1.00  0.00     0.281 HD
HETATM    4  C   UNL     1      -6.543   2.292 -31.345  1.00  0.00     0.252 C 
HETATM    5  C   UNL     1      -5.599   1.490 -32.258  1.00  0.00     0.083 C 
HETATM    6  C   UNL     1      -4.316   2.324 -32.377  1.00  0.00     0.060 C 
ENDROOT
BRANCH   2   7
HETATM    7  C   UNL     1      -6.424   4.645 -32.312  1.00  0.00     0.274 C 
BRANCH   7   8
HETATM    8  C   UNL     1      -7.914   4.586 -32.520  1.00  0.00    -0.032 A 
HETATM    9  C   UNL     1      -8.451   4.269 -33.778  1.00  0.00     0.011 A 
HETATM   10  C   UNL     1      -9.837   4.223 -33.971  1.00  0.00     0.037 A 
HETATM   11  C   UNL     1     -10.697   4.494 -32.910  1.00  0.00     0.069 A 
HETATM   12  C   UNL     1     -10.171   4.836 -31.665  1.00  0.00     0.037 A 
HETATM   13  C   UNL     1      -8.792   4.867 -31.463  1.00  0.00     0.011 A 
BRANCH  11  14
HETATM   14  O   UNL     1     -12.059   4.497 -32.979  1.00  0.00    -0.347 OA
BRANCH  14  15
HETATM   15  C   UNL     1     -12.738   3.688 -32.017  1.00  0.00     0.214 C 
BRANCH  15  16
HETATM   16  C   UNL     1     -13.488   2.623 -32.777  1.00  0.00    -0.034 A 
HETATM   17  C   UNL     1     -12.823   1.814 -33.709  1.00  0.00     0.009 A 
HETATM   18  C   UNL     1     -13.523   0.854 -34.442  1.00  0.00     0.001 A 
HETATM   19  C   UNL     1     -14.894   0.696 -34.253  1.00  0.00     0.000 A 
HETATM   20  C   UNL     1     -15.568   1.499 -33.335  1.00  0.00     0.001 A 
HETATM   21  C   UNL     1     -14.870   2.461 -32.602  1.00  0.00     0.009 A 
ENDBRANCH  15  16
ENDBRANCH  14  15
ENDBRANCH  11  14
ENDBRANCH   7   8
ENDBRANCH   2   7
BRANCH   1  22
HETATM   22  C   UNL     1      -3.531   4.619 -31.409  1.00  0.00     0.249 C 
HETATM   23  N   UNL     1      -2.516   4.562 -32.335  1.00  0.00    -0.355 N 
HETATM   24  H   UNL     1      -2.236   3.674 -32.735  1.00  0.00     0.162 HD
HETATM   25  O   UNL     1      -3.737   5.596 -30.690  1.00  0.00    -0.271 OA
BRANCH  23  26
HETATM   26  C   UNL     1      -1.568   5.662 -32.507  1.00  0.00     0.076 C 
HETATM   27  C   UNL     1      -1.339   5.921 -33.993  1.00  0.00     0.032 C 
HETATM   28  C   UNL     1      -0.251   5.349 -31.800  1.00  0.00     0.032 C 
ENDBRANCH  23  26
ENDBRANCH   1  22
BRANCH   5  29
HETATM   29  S   UNL     1      -6.281   1.172 -33.925  1.00  0.00    -0.085 SA
BRANCH  29  30
HETATM   30  C   UNL     1      -5.891  -0.498 -34.088  1.00  0.00     0.168 A 
HETATM   31  N   UNL     1      -4.768  -1.063 -33.723  1.00  0.00    -0.223 NA
HETATM   32  C   UNL     1      -4.942  -2.395 -34.031  1.00  0.00     0.086 A 
HETATM   33  C   UNL     1      -6.201  -2.621 -34.585  1.00  0.00     0.063 A 
HETATM   34  C   UNL     1      -4.066  -3.478 -33.864  1.00  0.00     0.034 A 
HETATM   35  N   UNL     1      -6.788  -1.382 -34.609  1.00  0.00    -0.333 N 
HETATM   36  C   UNL     1      -6.648  -3.880 -34.990  1.00  0.00     0.032 A 
HETATM   37  H   UNL     1      -7.711  -1.161 -34.951  1.00  0.00     0.168 HD
HETATM   38  C   UNL     1      -5.759  -4.946 -34.814  1.00  0.00     0.002 A 
HETATM   39  C   UNL     1      -4.490  -4.751 -34.262  1.00  0.00     0.002 A 
ENDBRANCH  29  30
ENDBRANCH   5  29
TORSDOF 9
ENDMDL
MODEL 10
REMARK VINA RESULT:      -8.3      2.954      7.116
REMARK  9 active torsions:
REMARK  status: ('A' for Active; 'I' for Inactive)
REMARK    1  A    between atoms: C_2  and  N_3 
REMARK       I    between atoms: N_3  and  C_4 
REMARK    2  A    between atoms: C_4  and  C_5 
REMARK    3  A    between atoms: N_6  and  C_8 
REMARK    4  A    between atoms: C_8  and  C_9 
REMARK    5  A    between atoms: C_12  and  O_13 
REMARK    6  A    between atoms: O_13  and  C_14 
REMARK    7  A    between atoms: C_14  and  C_15 
REMARK    8  A    between atoms: C_24  and  S_25 
REMARK    9  A    between atoms: S_25  and  C_26 
ROOT
HETATM    1  C   UNL     1      -9.220   4.143 -32.184  1.00  0.00     0.280 C 
HETATM    2  N   UNL     1      -8.729   2.710 -32.442  1.00  0.00    -0.053 N 
HETATM    3  H   UNL     1      -9.189   2.086 -31.766  1.00  0.00     0.281 HD
HETATM    4  C   UNL     1      -7.246   2.812 -32.149  1.00  0.00     0.252 C 
HETATM    5  C   UNL     1      -6.836   4.215 -32.628  1.00  0.00     0.083 C 
HETATM    6  C   UNL     1      -8.146   4.984 -32.855  1.00  0.00     0.060 C 
ENDROOT
BRANCH   2   7
HETATM    7  C   UNL     1      -9.056   2.139 -33.810  1.00  0.00     0.274 C 
BRANCH   7   8
HETATM    8  C   UNL     1      -8.392   0.813 -34.073  1.00  0.00    -0.032 A 
HETATM    9  C   UNL     1      -8.616  -0.283 -33.225  1.00  0.00     0.011 A 
HETATM   10  C   UNL     1      -7.990  -1.512 -33.467  1.00  0.00     0.037 A 
HETATM   11  C   UNL     1      -7.135  -1.654 -34.556  1.00  0.00     0.069 A 
HETATM   12  C   UNL     1      -6.885  -0.562 -35.386  1.00  0.00     0.037 A 
HETATM   13  C   UNL     1      -7.519   0.659 -35.160  1.00  0.00     0.011 A 
BRANCH  11  14
HETATM   14  O   UNL     1      -6.457  -2.792 -34.883  1.00  0.00    -0.347 OA
BRANCH  14  15
HETATM   15  C   UNL     1      -5.074  -2.629 -35.202  1.00  0.00     0.214 C 
BRANCH  15  16
HETATM   16  C   UNL     1      -4.291  -2.877 -33.937  1.00  0.00    -0.034 A 
HETATM   17  C   UNL     1      -3.983  -1.816 -33.074  1.00  0.00     0.009 A 
HETATM   18  C   UNL     1      -3.225  -2.037 -31.922  1.00  0.00     0.001 A 
HETATM   19  C   UNL     1      -2.765  -3.319 -31.625  1.00  0.00     0.000 A 
HETATM   20  C   UNL     1      -3.058  -4.380 -32.480  1.00  0.00     0.001 A 
HETATM   21  C   UNL     1      -3.815  -4.160 -33.633  1.00  0.00     0.009 A 
ENDBRANCH  15  16
ENDBRANCH  14  15
ENDBRANCH  11  14
ENDBRANCH   7   8
ENDBRANCH   2   7
BRANCH   1  22
HETATM   22  C   UNL     1     -10.677   4.396 -32.601  1.00  0.00     0.249 C 
HETATM   23  N   UNL     1     -11.617   3.504 -32.140  1.00  0.00    -0.355 N 
HETATM   24  H   UNL     1     -11.331   2.615 -31.746  1.00  0.00     0.162 HD
HETATM   25  O   UNL     1     -10.949   5.351 -33.328  1.00  0.00    -0.271 OA
BRANCH  23  26
HETATM   26  C   UNL     1     -13.026   3.607 -32.518  1.00  0.00     0.076 C 
HETATM   27  C   UNL     1     -13.845   4.110 -31.333  1.00  0.00     0.032 C 
HETATM   28  C   UNL     1     -13.548   2.258 -33.007  1.00  0.00     0.032 C 
ENDBRANCH  23  26
ENDBRANCH   1  22
BRANCH   5  29
HETATM   29  S   UNL     1      -5.852   4.211 -34.170  1.00  0.00    -0.085 SA
BRANCH  29  30
HETATM   30  C   UNL     1      -4.406   4.951 -33.597  1.00  0.00     0.168 A 
HETATM   31  N   UNL     1      -3.954   6.128 -33.951  1.00  0.00    -0.223 NA
HETATM   32  C   UNL     1      -2.798   6.283 -33.216  1.00  0.00     0.086 A 
HETATM   33  C   UNL     1      -2.568   5.173 -32.405  1.00  0.00     0.063 A 
HETATM   34  C   UNL     1      -1.890   7.351 -33.185  1.00  0.00     0.034 A 
HETATM   35  N   UNL     1      -3.618   4.333 -32.673  1.00  0.00    -0.333 N 
HETATM   36  C   UNL     1      -1.469   5.059 -31.551  1.00  0.00     0.032 A 
HETATM   37  H   UNL     1      -3.780   3.424 -32.265  1.00  0.00     0.168 HD
HETATM   38  C   UNL     1      -0.575   6.136 -31.536  1.00  0.00     0.002 A 
HETATM   39  C   UNL     1      -0.779   7.262 -32.337  1.00  0.00     0.002 A 
ENDBRANCH  29  30
ENDBRANCH   5  29
TORSDOF 9
ENDMDL
