MODEL 1
REMARK VINA RESULT:      -8.4      0.000      0.000
REMARK  6 active torsions:
REMARK  status: ('A' for Active; 'I' for Inactive)
REMARK    1  A    between atoms: C_2  and  O_3 
REMARK    2  A    between atoms: O_3  and  C_4 
REMARK    3  A    between atoms: C_5  and  O_6 
REMARK    4  A    between atoms: C_10  and  C_11 
REMARK    5  A    between atoms: C_20  and  C_21 
REMARK       I    between atoms: C_21  and  N_22 
REMARK    6  A    between atoms: N_22  and  C_23 
ROOT
HETATM    1  C   UNL     1      -5.549   2.545 -33.136  1.00  0.00     0.202 A 
HETATM    2  N   UNL     1      -4.873   3.818 -32.858  1.00  0.00    -0.084 N 
HETATM    3  C   UNL     1      -3.727   3.932 -32.125  1.00  0.00     0.725 A 
HETATM    4  N   UNL     1      -3.337   5.180 -32.115  1.00  0.00    -0.054 NA
HETATM    5  C   UNL     1      -4.265   5.794 -32.916  1.00  0.00     0.275 A 
HETATM    6  N   UNL     1      -5.206   4.994 -33.433  1.00  0.00    -0.149 NA
HETATM    7  N   UNL     1      -3.178   2.827 -31.588  1.00  0.00    -0.192 N 
HETATM    8  C   UNL     1      -3.682   1.546 -31.782  1.00  0.00     0.037 A 
HETATM    9  C   UNL     1      -2.883   0.433 -31.147  1.00  0.00     0.070 C 
HETATM   10  C   UNL     1      -4.807   1.362 -32.521  1.00  0.00     0.062 A 
HETATM   11  H   UNL     1      -2.318   2.923 -31.054  1.00  0.00     0.184 HD
ENDROOT
BRANCH   1  12
HETATM   12  C   UNL     1      -7.023   2.639 -32.742  1.00  0.00    -0.024 A 
HETATM   13  C   UNL     1      -8.002   2.133 -33.618  1.00  0.00     0.031 A 
HETATM   14  C   UNL     1      -9.357   2.203 -33.290  1.00  0.00     0.047 A 
HETATM   15  C   UNL     1      -9.744   2.779 -32.082  1.00  0.00     0.116 A 
HETATM   16 BR   UNL     1     -10.624   1.502 -34.511  1.00  0.00    -0.048 Br
HETATM   17  C   UNL     1      -8.789   3.295 -31.196  1.00  0.00     0.103 A 
HETATM   18  C   UNL     1      -7.435   3.239 -31.536  1.00  0.00     0.049 A 
BRANCH  15  19
HETATM   19  O   UNL     1     -11.071   2.849 -31.738  1.00  0.00    -0.357 OA
HETATM   20  H   UNL     1     -11.122   3.539 -31.048  1.00  0.00     0.218 HD
ENDBRANCH  15  19
BRANCH  17  21
HETATM   21  O   UNL     1      -9.305   3.831 -30.043  1.00  0.00    -0.349 OA
BRANCH  21  22
HETATM   22  C   UNL     1      -8.924   5.170 -29.724  1.00  0.00     0.171 C 
HETATM   23  C   UNL     1      -9.931   6.106 -30.368  1.00  0.00     0.034 C 
ENDBRANCH  21  22
ENDBRANCH  17  21
ENDBRANCH   1  12
BRANCH  10  24
HETATM   24  C   UNL     1      -5.414  -0.000 -32.646  1.00  0.00     0.256 C 
HETATM   25  N   UNL     1      -4.999  -0.711 -33.752  1.00  0.00    -0.323 N 
HETATM   26  H   UNL     1      -4.362  -0.276 -34.402  1.00  0.00     0.169 HD
HETATM   27  O   UNL     1      -6.243  -0.361 -31.818  1.00  0.00    -0.267 OA
BRANCH  25  28
HETATM   28  C   UNL     1      -5.403  -2.014 -34.120  1.00  0.00     0.035 A 
HETATM   29  C   UNL     1      -6.703  -2.352 -34.503  1.00  0.00     0.029 A 
HETATM   30  C   UNL     1      -7.024  -3.672 -34.836  1.00  0.00     0.002 A 
HETATM   31  C   UNL     1      -6.047  -4.663 -34.798  1.00  0.00     0.000 A 
HETATM   32  C   UNL     1      -4.748  -4.338 -34.419  1.00  0.00     0.002 A 
HETATM   33  C   UNL     1      -4.429  -3.022 -34.074  1.00  0.00     0.029 A 
ENDBRANCH  25  28
ENDBRANCH  10  24
TORSDOF 6
ENDMDL
MODEL 2
REMARK VINA RESULT:      -8.4      1.453      2.433
REMARK  6 active torsions:
REMARK  status: ('A' for Active; 'I' for Inactive)
REMARK    1  A    between atoms: C_2  and  O_3 
REMARK    2  A    between atoms: O_3  and  C_4 
REMARK    3  A    between atoms: C_5  and  O_6 
REMARK    4  A    between atoms: C_10  and  C_11 
REMARK    5  A    between atoms: C_20  and  C_21 
REMARK       I    between atoms: C_21  and  N_22 
REMARK    6  A    between atoms: N_22  and  C_23 
ROOT
HETATM    1  C   UNL     1      -5.729   2.422 -33.431  1.00  0.00     0.202 A 
HETATM    2  N   UNL     1      -5.142   3.751 -33.217  1.00  0.00    -0.084 N 
HETATM    3  C   UNL     1      -4.035   3.985 -32.454  1.00  0.00     0.725 A 
HETATM    4  N   UNL     1      -3.723   5.253 -32.515  1.00  0.00    -0.054 NA
HETATM    5  C   UNL     1      -4.654   5.753 -33.388  1.00  0.00     0.275 A 
HETATM    6  N   UNL     1      -5.524   4.863 -33.882  1.00  0.00    -0.149 NA
HETATM    7  N   UNL     1      -3.441   2.955 -31.825  1.00  0.00    -0.192 N 
HETATM    8  C   UNL     1      -3.858   1.634 -31.949  1.00  0.00     0.037 A 
HETATM    9  C   UNL     1      -3.018   0.618 -31.213  1.00  0.00     0.070 C 
HETATM   10  C   UNL     1      -4.940   1.331 -32.713  1.00  0.00     0.062 A 
HETATM   11  H   UNL     1      -2.610   3.140 -31.268  1.00  0.00     0.184 HD
ENDROOT
BRANCH   1  12
HETATM   12  C   UNL     1      -7.219   2.448 -33.096  1.00  0.00    -0.024 A 
HETATM   13  C   UNL     1      -7.661   3.189 -31.984  1.00  0.00     0.031 A 
HETATM   14  C   UNL     1      -9.015   3.234 -31.650  1.00  0.00     0.047 A 
HETATM   15  C   UNL     1      -9.940   2.539 -32.426  1.00  0.00     0.116 A 
HETATM   16 BR   UNL     1      -9.544   4.251 -30.142  1.00  0.00    -0.048 Br
HETATM   17  C   UNL     1      -9.525   1.789 -33.534  1.00  0.00     0.103 A 
HETATM   18  C   UNL     1      -8.166   1.732 -33.856  1.00  0.00     0.049 A 
BRANCH  15  19
HETATM   19  O   UNL     1     -11.277   2.579 -32.118  1.00  0.00    -0.357 OA
HETATM   20  H   UNL     1     -11.577   3.470 -32.386  1.00  0.00     0.218 HD
ENDBRANCH  15  19
BRANCH  17  21
HETATM   21  O   UNL     1     -10.537   1.157 -34.212  1.00  0.00    -0.349 OA
BRANCH  21  22
HETATM   22  C   UNL     1     -11.322   1.958 -35.097  1.00  0.00     0.171 C 
HETATM   23  C   UNL     1     -12.745   1.431 -35.062  1.00  0.00     0.034 C 
ENDBRANCH  21  22
ENDBRANCH  17  21
ENDBRANCH   1  12
BRANCH  10  24
HETATM   24  C   UNL     1      -5.458  -0.072 -32.766  1.00  0.00     0.256 C 
HETATM   25  N   UNL     1      -5.070  -0.781 -33.883  1.00  0.00    -0.323 N 
HETATM   26  H   UNL     1      -4.510  -0.321 -34.584  1.00  0.00     0.169 HD
HETATM   27  O   UNL     1      -6.202  -0.466 -31.875  1.00  0.00    -0.267 OA
BRANCH  25  28
HETATM   28  C   UNL     1      -5.406  -2.118 -34.193  1.00  0.00     0.035 A 
HETATM   29  C   UNL     1      -6.675  -2.530 -34.606  1.00  0.00     0.029 A 
HETATM   30  C   UNL     1      -6.929  -3.879 -34.879  1.00  0.00     0.002 A 
HETATM   31  C   UNL     1      -5.915  -4.824 -34.749  1.00  0.00     0.000 A 
HETATM   32  C   UNL     1      -4.647  -4.425 -34.340  1.00  0.00     0.002 A 
HETATM   33  C   UNL     1      -4.396  -3.080 -34.055  1.00  0.00     0.029 A 
ENDBRANCH  25  28
ENDBRANCH  10  24
TORSDOF 6
ENDMDL
MODEL 3
REMARK VINA RESULT:      -7.5      3.469      5.671
REMARK  6 active torsions:
REMARK  status: ('A' for Active; 'I' for Inactive)
REMARK    1  A    between atoms: C_2  and  O_3 
REMARK    2  A    between atoms: O_3  and  C_4 
REMARK    3  A    between atoms: C_5  and  O_6 
REMARK    4  A    between atoms: C_10  and  C_11 
REMARK    5  A    between atoms: C_20  and  C_21 
REMARK       I    between atoms: C_21  and  N_22 
REMARK    6  A    between atoms: N_22  and  C_23 
ROOT
HETATM    1  C   UNL     1      -8.392   3.924 -32.492  1.00  0.00     0.202 A 
HETATM    2  N   UNL     1      -9.326   4.672 -33.342  1.00  0.00    -0.084 N 
HETATM    3  C   UNL     1      -9.967   4.144 -34.425  1.00  0.00     0.725 A 
HETATM    4  N   UNL     1     -10.779   5.036 -34.930  1.00  0.00    -0.054 NA
HETATM    5  C   UNL     1     -10.637   6.096 -34.072  1.00  0.00     0.275 A 
HETATM    6  N   UNL     1      -9.788   5.909 -33.054  1.00  0.00    -0.149 NA
HETATM    7  N   UNL     1      -9.723   2.868 -34.774  1.00  0.00    -0.192 N 
HETATM    8  C   UNL     1      -8.888   2.020 -34.056  1.00  0.00     0.037 A 
HETATM    9  C   UNL     1      -8.798   0.605 -34.576  1.00  0.00     0.070 C 
HETATM   10  C   UNL     1      -8.238   2.478 -32.954  1.00  0.00     0.062 A 
HETATM   11  H   UNL     1     -10.215   2.481 -35.576  1.00  0.00     0.184 HD
ENDROOT
BRANCH   1  12
HETATM   12  C   UNL     1      -7.076   4.689 -32.361  1.00  0.00    -0.024 A 
HETATM   13  C   UNL     1      -6.646   5.106 -31.087  1.00  0.00     0.031 A 
HETATM   14  C   UNL     1      -5.449   5.806 -30.933  1.00  0.00     0.047 A 
HETATM   15  C   UNL     1      -4.671   6.096 -32.051  1.00  0.00     0.116 A 
HETATM   16 BR   UNL     1      -4.926   6.336 -29.191  1.00  0.00    -0.048 Br
HETATM   17  C   UNL     1      -5.080   5.699 -33.331  1.00  0.00     0.103 A 
HETATM   18  C   UNL     1      -6.287   5.012 -33.484  1.00  0.00     0.049 A 
BRANCH  15  19
HETATM   19  O   UNL     1      -3.486   6.776 -31.918  1.00  0.00    -0.357 OA
HETATM   20  H   UNL     1      -3.630   7.634 -32.363  1.00  0.00     0.218 HD
ENDBRANCH  15  19
BRANCH  17  21
HETATM   21  O   UNL     1      -4.220   6.045 -34.343  1.00  0.00    -0.349 OA
BRANCH  21  22
HETATM   22  C   UNL     1      -3.586   4.976 -35.047  1.00  0.00     0.171 C 
HETATM   23  C   UNL     1      -2.086   5.123 -34.863  1.00  0.00     0.034 C 
ENDBRANCH  21  22
ENDBRANCH  17  21
ENDBRANCH   1  12
BRANCH  10  24
HETATM   24  C   UNL     1      -7.256   1.604 -32.239  1.00  0.00     0.256 C 
HETATM   25  N   UNL     1      -6.098   1.350 -32.944  1.00  0.00    -0.323 N 
HETATM   26  H   UNL     1      -6.000   1.727 -33.874  1.00  0.00     0.169 HD
HETATM   27  O   UNL     1      -7.553   1.150 -31.140  1.00  0.00    -0.267 OA
BRANCH  25  28
HETATM   28  C   UNL     1      -5.004   0.564 -32.517  1.00  0.00     0.035 A 
HETATM   29  C   UNL     1      -4.060   0.982 -31.577  1.00  0.00     0.029 A 
HETATM   30  C   UNL     1      -2.995   0.147 -31.222  1.00  0.00     0.002 A 
HETATM   31  C   UNL     1      -2.871  -1.115 -31.796  1.00  0.00     0.000 A 
HETATM   32  C   UNL     1      -3.807  -1.543 -32.732  1.00  0.00     0.002 A 
HETATM   33  C   UNL     1      -4.864  -0.705 -33.097  1.00  0.00     0.029 A 
ENDBRANCH  25  28
ENDBRANCH  10  24
TORSDOF 6
ENDMDL
MODEL 4
REMARK VINA RESULT:      -7.5      2.813      3.433
REMARK  6 active torsions:
REMARK  status: ('A' for Active; 'I' for Inactive)
REMARK    1  A    between atoms: C_2  and  O_3 
REMARK    2  A    between atoms: O_3  and  C_4 
REMARK    3  A    between atoms: C_5  and  O_6 
REMARK    4  A    between atoms: C_10  and  C_11 
REMARK    5  A    between atoms: C_20  and  C_21 
REMARK       I    between atoms: C_21  and  N_22 
REMARK    6  A    between atoms: N_22  and  C_23 
ROOT
HETATM    1  C   UNL     1      -7.200   3.750 -31.893  1.00  0.00     0.202 A 
HETATM    2  N   UNL     1      -7.647   4.525 -30.729  1.00  0.00    -0.084 N 
HETATM    3  C   UNL     1      -7.529   4.103 -29.436  1.00  0.00     0.725 A 
HETATM    4  N   UNL     1      -7.954   5.041 -28.630  1.00  0.00    -0.054 NA
HETATM    5  C   UNL     1      -8.277   6.057 -29.491  1.00  0.00     0.275 A 
HETATM    6  N   UNL     1      -8.068   5.808 -30.789  1.00  0.00    -0.149 NA
HETATM    7  N   UNL     1      -6.999   2.892 -29.187  1.00  0.00    -0.192 N 
HETATM    8  C   UNL     1      -6.503   2.051 -30.177  1.00  0.00     0.037 A 
HETATM    9  C   UNL     1      -5.890   0.762 -29.685  1.00  0.00     0.070 C 
HETATM   10  C   UNL     1      -6.570   2.423 -31.482  1.00  0.00     0.062 A 
HETATM   11  H   UNL     1      -6.905   2.593 -28.220  1.00  0.00     0.184 HD
ENDROOT
BRANCH   1  12
HETATM   12  C   UNL     1      -8.338   3.623 -32.905  1.00  0.00    -0.024 A 
HETATM   13  C   UNL     1      -9.185   2.500 -32.849  1.00  0.00     0.031 A 
HETATM   14  C   UNL     1     -10.234   2.352 -33.758  1.00  0.00     0.047 A 
HETATM   15  C   UNL     1     -10.445   3.326 -34.730  1.00  0.00     0.116 A 
HETATM   16 BR   UNL     1     -11.338   0.818 -33.627  1.00  0.00    -0.048 Br
HETATM   17  C   UNL     1      -9.612   4.450 -34.812  1.00  0.00     0.103 A 
HETATM   18  C   UNL     1      -8.552   4.586 -33.911  1.00  0.00     0.049 A 
BRANCH  15  19
HETATM   19  O   UNL     1     -11.476   3.203 -35.628  1.00  0.00    -0.357 OA
HETATM   20  H   UNL     1     -12.240   2.895 -35.102  1.00  0.00     0.218 HD
ENDBRANCH  15  19
BRANCH  17  21
HETATM   21  O   UNL     1      -9.932   5.332 -35.812  1.00  0.00    -0.349 OA
BRANCH  21  22
HETATM   22  C   UNL     1     -10.319   6.649 -35.416  1.00  0.00     0.171 C 
HETATM   23  C   UNL     1     -11.832   6.733 -35.498  1.00  0.00     0.034 C 
ENDBRANCH  21  22
ENDBRANCH  17  21
ENDBRANCH   1  12
BRANCH  10  24
HETATM   24  C   UNL     1      -6.136   1.479 -32.560  1.00  0.00     0.256 C 
HETATM   25  N   UNL     1      -6.503   0.166 -32.350  1.00  0.00    -0.323 N 
HETATM   26  H   UNL     1      -6.994  -0.075 -31.503  1.00  0.00     0.169 HD
HETATM   27  O   UNL     1      -5.468   1.908 -33.494  1.00  0.00    -0.267 OA
BRANCH  25  28
HETATM   28  C   UNL     1      -6.232  -0.932 -33.197  1.00  0.00     0.035 A 
HETATM   29  C   UNL     1      -7.189  -1.556 -34.000  1.00  0.00     0.029 A 
HETATM   30  C   UNL     1      -6.840  -2.651 -34.798  1.00  0.00     0.002 A 
HETATM   31  C   UNL     1      -5.531  -3.126 -34.806  1.00  0.00     0.000 A 
HETATM   32  C   UNL     1      -4.569  -2.510 -34.011  1.00  0.00     0.002 A 
HETATM   33  C   UNL     1      -4.919  -1.424 -33.204  1.00  0.00     0.029 A 
ENDBRANCH  25  28
ENDBRANCH  10  24
TORSDOF 6
ENDMDL
MODEL 5
REMARK VINA RESULT:      -7.3     15.765     17.612
REMARK  6 active torsions:
REMARK  status: ('A' for Active; 'I' for Inactive)
REMARK    1  A    between atoms: C_2  and  O_3 
REMARK    2  A    between atoms: O_3  and  C_4 
REMARK    3  A    between atoms: C_5  and  O_6 
REMARK    4  A    between atoms: C_10  and  C_11 
REMARK    5  A    between atoms: C_20  and  C_21 
REMARK       I    between atoms: C_21  and  N_22 
REMARK    6  A    between atoms: N_22  and  C_23 
ROOT
HETATM    1  C   UNL     1      -6.102 -13.225 -36.740  1.00  0.00     0.202 A 
HETATM    2  N   UNL     1      -6.264 -13.565 -35.322  1.00  0.00    -0.084 N 
HETATM    3  C   UNL     1      -5.297 -14.154 -34.559  1.00  0.00     0.725 A 
HETATM    4  N   UNL     1      -5.719 -14.264 -33.327  1.00  0.00    -0.054 NA
HETATM    5  C   UNL     1      -6.952 -13.667 -33.373  1.00  0.00     0.275 A 
HETATM    6  N   UNL     1      -7.317 -13.182 -34.567  1.00  0.00    -0.149 NA
HETATM    7  N   UNL     1      -4.122 -14.480 -35.127  1.00  0.00    -0.192 N 
HETATM    8  C   UNL     1      -3.803 -14.199 -36.451  1.00  0.00     0.037 A 
HETATM    9  C   UNL     1      -2.408 -14.589 -36.878  1.00  0.00     0.070 C 
HETATM   10  C   UNL     1      -4.714 -13.593 -37.256  1.00  0.00     0.062 A 
HETATM   11  H   UNL     1      -3.404 -14.908 -34.547  1.00  0.00     0.184 HD
ENDROOT
BRANCH   1  12
HETATM   12  C   UNL     1      -7.254 -13.812 -37.554  1.00  0.00    -0.024 A 
HETATM   13  C   UNL     1      -8.054 -12.953 -38.331  1.00  0.00     0.031 A 
HETATM   14  C   UNL     1      -9.115 -13.456 -39.087  1.00  0.00     0.047 A 
HETATM   15  C   UNL     1      -9.384 -14.822 -39.071  1.00  0.00     0.116 A 
HETATM   16 BR   UNL     1     -10.151 -12.247 -40.113  1.00  0.00    -0.048 Br
HETATM   17  C   UNL     1      -8.607 -15.697 -38.300  1.00  0.00     0.103 A 
HETATM   18  C   UNL     1      -7.557 -15.188 -37.532  1.00  0.00     0.049 A 
BRANCH  15  19
HETATM   19  O   UNL     1     -10.417 -15.337 -39.814  1.00  0.00    -0.357 OA
HETATM   20  H   UNL     1     -10.473 -16.279 -39.561  1.00  0.00     0.218 HD
ENDBRANCH  15  19
BRANCH  17  21
HETATM   21  O   UNL     1      -8.978 -17.016 -38.378  1.00  0.00    -0.349 OA
BRANCH  21  22
HETATM   22  C   UNL     1      -7.961 -17.955 -38.731  1.00  0.00     0.171 C 
HETATM   23  C   UNL     1      -7.937 -18.066 -40.245  1.00  0.00     0.034 C 
ENDBRANCH  21  22
ENDBRANCH  17  21
ENDBRANCH   1  12
BRANCH  10  24
HETATM   24  C   UNL     1      -4.417 -13.384 -38.708  1.00  0.00     0.256 C 
HETATM   25  N   UNL     1      -4.555 -14.513 -39.487  1.00  0.00    -0.323 N 
HETATM   26  H   UNL     1      -4.806 -15.384 -39.045  1.00  0.00     0.169 HD
HETATM   27  O   UNL     1      -4.039 -12.281 -39.086  1.00  0.00    -0.267 OA
BRANCH  25  28
HETATM   28  C   UNL     1      -4.343 -14.609 -40.881  1.00  0.00     0.035 A 
HETATM   29  C   UNL     1      -5.255 -14.171 -41.843  1.00  0.00     0.029 A 
HETATM   30  C   UNL     1      -4.975 -14.319 -43.206  1.00  0.00     0.002 A 
HETATM   31  C   UNL     1      -3.777 -14.898 -43.618  1.00  0.00     0.000 A 
HETATM   32  C   UNL     1      -2.860 -15.337 -42.667  1.00  0.00     0.002 A 
HETATM   33  C   UNL     1      -3.145 -15.201 -41.306  1.00  0.00     0.029 A 
ENDBRANCH  25  28
ENDBRANCH  10  24
TORSDOF 6
ENDMDL
MODEL 6
REMARK VINA RESULT:      -7.2      3.044      7.256
REMARK  6 active torsions:
REMARK  status: ('A' for Active; 'I' for Inactive)
REMARK    1  A    between atoms: C_2  and  O_3 
REMARK    2  A    between atoms: O_3  and  C_4 
REMARK    3  A    between atoms: C_5  and  O_6 
REMARK    4  A    between atoms: C_10  and  C_11 
REMARK    5  A    between atoms: C_20  and  C_21 
REMARK       I    between atoms: C_21  and  N_22 
REMARK    6  A    between atoms: N_22  and  C_23 
ROOT
HETATM    1  C   UNL     1      -8.018   2.649 -33.966  1.00  0.00     0.202 A 
HETATM    2  N   UNL     1      -9.422   2.308 -33.704  1.00  0.00    -0.084 N 
HETATM    3  C   UNL     1     -10.314   3.146 -33.101  1.00  0.00     0.725 A 
HETATM    4  N   UNL     1     -11.494   2.581 -33.073  1.00  0.00    -0.054 NA
HETATM    5  C   UNL     1     -11.280   1.399 -33.732  1.00  0.00     0.275 A 
HETATM    6  N   UNL     1     -10.033   1.200 -34.178  1.00  0.00    -0.149 NA
HETATM    7  N   UNL     1      -9.901   4.356 -32.685  1.00  0.00    -0.192 N 
HETATM    8  C   UNL     1      -8.612   4.839 -32.884  1.00  0.00     0.037 A 
HETATM    9  C   UNL     1      -8.366   6.248 -32.400  1.00  0.00     0.070 C 
HETATM   10  C   UNL     1      -7.682   4.063 -33.499  1.00  0.00     0.062 A 
HETATM   11  H   UNL     1     -10.577   4.977 -32.248  1.00  0.00     0.184 HD
ENDROOT
BRANCH   1  12
HETATM   12  C   UNL     1      -7.102   1.564 -33.403  1.00  0.00    -0.024 A 
HETATM   13  C   UNL     1      -6.857   1.522 -32.018  1.00  0.00     0.031 A 
HETATM   14  C   UNL     1      -6.025   0.543 -31.471  1.00  0.00     0.047 A 
HETATM   15  C   UNL     1      -5.431  -0.401 -32.305  1.00  0.00     0.116 A 
HETATM   16 BR   UNL     1      -5.738   0.540 -29.598  1.00  0.00    -0.048 Br
HETATM   17  C   UNL     1      -5.653  -0.376 -33.688  1.00  0.00     0.103 A 
HETATM   18  C   UNL     1      -6.473   0.615 -34.234  1.00  0.00     0.049 A 
BRANCH  15  19
HETATM   19  O   UNL     1      -4.617  -1.376 -31.784  1.00  0.00    -0.357 OA
HETATM   20  H   UNL     1      -4.991  -2.221 -32.102  1.00  0.00     0.218 HD
ENDBRANCH  15  19
BRANCH  17  21
HETATM   21  O   UNL     1      -5.012  -1.364 -34.391  1.00  0.00    -0.349 OA
BRANCH  21  22
HETATM   22  C   UNL     1      -5.818  -2.433 -34.889  1.00  0.00     0.171 C 
HETATM   23  C   UNL     1      -5.104  -3.736 -34.580  1.00  0.00     0.034 C 
ENDBRANCH  21  22
ENDBRANCH  17  21
ENDBRANCH   1  12
BRANCH  10  24
HETATM   24  C   UNL     1      -6.267   4.534 -33.621  1.00  0.00     0.256 C 
HETATM   25  N   UNL     1      -5.599   4.653 -32.421  1.00  0.00    -0.323 N 
HETATM   26  H   UNL     1      -6.093   4.454 -31.565  1.00  0.00     0.169 HD
HETATM   27  O   UNL     1      -5.828   4.818 -34.730  1.00  0.00    -0.267 OA
BRANCH  25  28
HETATM   28  C   UNL     1      -4.262   5.071 -32.236  1.00  0.00     0.035 A 
HETATM   29  C   UNL     1      -3.896   6.324 -31.741  1.00  0.00     0.029 A 
HETATM   30  C   UNL     1      -2.546   6.666 -31.603  1.00  0.00     0.002 A 
HETATM   31  C   UNL     1      -1.552   5.755 -31.951  1.00  0.00     0.000 A 
HETATM   32  C   UNL     1      -1.906   4.503 -32.444  1.00  0.00     0.002 A 
HETATM   33  C   UNL     1      -3.254   4.165 -32.594  1.00  0.00     0.029 A 
ENDBRANCH  25  28
ENDBRANCH  10  24
TORSDOF 6
ENDMDL
MODEL 7
REMARK VINA RESULT:      -7.2     16.184     17.550
REMARK  6 active torsions:
REMARK  status: ('A' for Active; 'I' for Inactive)
REMARK    1  A    between atoms: C_2  and  O_3 
REMARK    2  A    between atoms: O_3  and  C_4 
REMARK    3  A    between atoms: C_5  and  O_6 
REMARK    4  A    between atoms: C_10  and  C_11 
REMARK    5  A    between atoms: C_20  and  C_21 
REMARK       I    between atoms: C_21  and  N_22 
REMARK    6  A    between atoms: N_22  and  C_23 
ROOT
HETATM    1  C   UNL     1      -1.927 -14.166 -36.401  1.00  0.00     0.202 A 
HETATM    2  N   UNL     1      -0.785 -15.034 -36.090  1.00  0.00    -0.084 N 
HETATM    3  C   UNL     1       0.151 -15.425 -37.005  1.00  0.00     0.725 A 
HETATM    4  N   UNL     1       1.074 -16.134 -36.408  1.00  0.00    -0.054 NA
HETATM    5  C   UNL     1       0.681 -16.103 -35.096  1.00  0.00     0.275 A 
HETATM    6  N   UNL     1      -0.433 -15.404 -34.840  1.00  0.00    -0.149 NA
HETATM    7  N   UNL     1       0.026 -15.027 -38.283  1.00  0.00    -0.192 N 
HETATM    8  C   UNL     1      -0.983 -14.182 -38.731  1.00  0.00     0.037 A 
HETATM    9  C   UNL     1      -0.910 -13.802 -40.190  1.00  0.00     0.070 C 
HETATM   10  C   UNL     1      -1.933 -13.739 -37.866  1.00  0.00     0.062 A 
HETATM   11  H   UNL     1       0.735 -15.315 -38.953  1.00  0.00     0.184 HD
ENDROOT
BRANCH   1  12
HETATM   12  C   UNL     1      -3.225 -14.821 -35.930  1.00  0.00    -0.024 A 
HETATM   13  C   UNL     1      -3.577 -16.088 -36.432  1.00  0.00     0.031 A 
HETATM   14  C   UNL     1      -4.755 -16.714 -36.022  1.00  0.00     0.047 A 
HETATM   15  C   UNL     1      -5.590 -16.079 -35.107  1.00  0.00     0.116 A 
HETATM   16 BR   UNL     1      -5.171 -18.420 -36.734  1.00  0.00    -0.048 Br
HETATM   17  C   UNL     1      -5.266 -14.815 -34.597  1.00  0.00     0.103 A 
HETATM   18  C   UNL     1      -4.094 -14.183 -35.022  1.00  0.00     0.049 A 
BRANCH  15  19
HETATM   19  O   UNL     1      -6.749 -16.683 -34.685  1.00  0.00    -0.357 OA
HETATM   20  H   UNL     1      -7.472 -16.112 -35.013  1.00  0.00     0.218 HD
ENDBRANCH  15  19
BRANCH  17  21
HETATM   21  O   UNL     1      -6.172 -14.305 -33.702  1.00  0.00    -0.349 OA
BRANCH  21  22
HETATM   22  C   UNL     1      -5.650 -13.766 -32.487  1.00  0.00     0.171 C 
HETATM   23  C   UNL     1      -5.313 -14.927 -31.570  1.00  0.00     0.034 C 
ENDBRANCH  21  22
ENDBRANCH  17  21
ENDBRANCH   1  12
BRANCH  10  24
HETATM   24  C   UNL     1      -3.080 -12.916 -38.362  1.00  0.00     0.256 C 
HETATM   25  N   UNL     1      -4.158 -13.651 -38.809  1.00  0.00    -0.323 N 
HETATM   26  H   UNL     1      -4.098 -14.657 -38.805  1.00  0.00     0.169 HD
HETATM   27  O   UNL     1      -2.973 -11.695 -38.383  1.00  0.00    -0.267 OA
BRANCH  25  28
HETATM   28  C   UNL     1      -5.371 -13.143 -39.327  1.00  0.00     0.035 A 
HETATM   29  C   UNL     1      -5.529 -12.676 -40.634  1.00  0.00     0.029 A 
HETATM   30  C   UNL     1      -6.762 -12.173 -41.062  1.00  0.00     0.002 A 
HETATM   31  C   UNL     1      -7.848 -12.140 -40.191  1.00  0.00     0.000 A 
HETATM   32  C   UNL     1      -7.702 -12.603 -38.887  1.00  0.00     0.002 A 
HETATM   33  C   UNL     1      -6.467 -13.095 -38.455  1.00  0.00     0.029 A 
ENDBRANCH  25  28
ENDBRANCH  10  24
TORSDOF 6
ENDMDL
MODEL 8
REMARK VINA RESULT:      -7.1     15.677     17.555
REMARK  6 active torsions:
REMARK  status: ('A' for Active; 'I' for Inactive)
REMARK    1  A    between atoms: C_2  and  O_3 
REMARK    2  A    between atoms: O_3  and  C_4 
REMARK    3  A    between atoms: C_5  and  O_6 
REMARK    4  A    between atoms: C_10  and  C_11 
REMARK    5  A    between atoms: C_20  and  C_21 
REMARK       I    between atoms: C_21  and  N_22 
REMARK    6  A    between atoms: N_22  and  C_23 
ROOT
HETATM    1  C   UNL     1      -3.862 -13.521 -38.855  1.00  0.00     0.202 A 
HETATM    2  N   UNL     1      -2.550 -14.177 -38.902  1.00  0.00    -0.084 N 
HETATM    3  C   UNL     1      -1.997 -14.704 -40.034  1.00  0.00     0.725 A 
HETATM    4  N   UNL     1      -0.798 -15.154 -39.765  1.00  0.00    -0.054 NA
HETATM    5  C   UNL     1      -0.639 -14.825 -38.444  1.00  0.00     0.275 A 
HETATM    6  N   UNL     1      -1.670 -14.185 -37.877  1.00  0.00    -0.149 NA
HETATM    7  N   UNL     1      -2.689 -14.656 -41.186  1.00  0.00    -0.192 N 
HETATM    8  C   UNL     1      -3.931 -14.045 -41.313  1.00  0.00     0.037 A 
HETATM    9  C   UNL     1      -4.513 -14.043 -42.706  1.00  0.00     0.070 C 
HETATM   10  C   UNL     1      -4.526 -13.482 -40.229  1.00  0.00     0.062 A 
HETATM   11  H   UNL     1      -2.262 -15.041 -42.025  1.00  0.00     0.184 HD
ENDROOT
BRANCH   1  12
HETATM   12  C   UNL     1      -4.721 -14.147 -37.757  1.00  0.00    -0.024 A 
HETATM   13  C   UNL     1      -5.029 -15.519 -37.823  1.00  0.00     0.031 A 
HETATM   14  C   UNL     1      -5.810 -16.122 -36.836  1.00  0.00     0.047 A 
HETATM   15  C   UNL     1      -6.290 -15.358 -35.775  1.00  0.00     0.116 A 
HETATM   16 BR   UNL     1      -6.186 -17.973 -36.982  1.00  0.00    -0.048 Br
HETATM   17  C   UNL     1      -6.004 -13.989 -35.690  1.00  0.00     0.103 A 
HETATM   18  C   UNL     1      -5.235 -13.385 -36.689  1.00  0.00     0.049 A 
BRANCH  15  19
HETATM   19  O   UNL     1      -7.053 -15.935 -34.790  1.00  0.00    -0.357 OA
HETATM   20  H   UNL     1      -7.639 -16.565 -35.254  1.00  0.00     0.218 HD
ENDBRANCH  15  19
BRANCH  17  21
HETATM   21  O   UNL     1      -6.535 -13.357 -34.594  1.00  0.00    -0.349 OA
BRANCH  21  22
HETATM   22  C   UNL     1      -5.612 -12.845 -33.631  1.00  0.00     0.171 C 
HETATM   23  C   UNL     1      -5.597 -13.798 -32.450  1.00  0.00     0.034 C 
ENDBRANCH  21  22
ENDBRANCH  17  21
ENDBRANCH   1  12
BRANCH  10  24
HETATM   24  C   UNL     1      -5.908 -12.917 -40.334  1.00  0.00     0.256 C 
HETATM   25  N   UNL     1      -6.915 -13.856 -40.269  1.00  0.00    -0.323 N 
HETATM   26  H   UNL     1      -6.670 -14.831 -40.190  1.00  0.00     0.169 HD
HETATM   27  O   UNL     1      -6.046 -11.712 -40.513  1.00  0.00    -0.267 OA
BRANCH  25  28
HETATM   28  C   UNL     1      -8.305 -13.611 -40.340  1.00  0.00     0.035 A 
HETATM   29  C   UNL     1      -8.889 -12.357 -40.145  1.00  0.00     0.029 A 
HETATM   30  C   UNL     1     -10.278 -12.204 -40.216  1.00  0.00     0.002 A 
HETATM   31  C   UNL     1     -11.093 -13.299 -40.490  1.00  0.00     0.000 A 
HETATM   32  C   UNL     1     -10.521 -14.552 -40.687  1.00  0.00     0.002 A 
HETATM   33  C   UNL     1      -9.135 -14.709 -40.605  1.00  0.00     0.029 A 
ENDBRANCH  25  28
ENDBRANCH  10  24
TORSDOF 6
ENDMDL
MODEL 9
REMARK VINA RESULT:      -7.1      3.772      7.040
REMARK  6 active torsions:
REMARK  status: ('A' for Active; 'I' for Inactive)
REMARK    1  A    between atoms: C_2  and  O_3 
REMARK    2  A    between atoms: O_3  and  C_4 
REMARK    3  A    between atoms: C_5  and  O_6 
REMARK    4  A    between atoms: C_10  and  C_11 
REMARK    5  A    between atoms: C_20  and  C_21 
REMARK       I    between atoms: C_21  and  N_22 
REMARK    6  A    between atoms: N_22  and  C_23 
ROOT
HETATM    1  C   UNL     1      -5.495   3.698 -31.524  1.00  0.00     0.202 A 
HETATM    2  N   UNL     1      -6.419   2.748 -32.156  1.00  0.00    -0.084 N 
HETATM    3  C   UNL     1      -6.581   2.621 -33.506  1.00  0.00     0.725 A 
HETATM    4  N   UNL     1      -7.419   1.648 -33.755  1.00  0.00    -0.054 NA
HETATM    5  C   UNL     1      -7.705   1.166 -32.505  1.00  0.00     0.275 A 
HETATM    6  N   UNL     1      -7.083   1.779 -31.490  1.00  0.00    -0.149 NA
HETATM    7  N   UNL     1      -5.884   3.424 -34.329  1.00  0.00    -0.192 N 
HETATM    8  C   UNL     1      -4.950   4.354 -33.888  1.00  0.00     0.037 A 
HETATM    9  C   UNL     1      -4.227   5.113 -34.975  1.00  0.00     0.070 C 
HETATM   10  C   UNL     1      -4.725   4.514 -32.557  1.00  0.00     0.062 A 
HETATM   11  H   UNL     1      -6.004   3.313 -35.333  1.00  0.00     0.184 HD
ENDROOT
BRANCH   1  12
HETATM   12  C   UNL     1      -6.238   4.535 -30.484  1.00  0.00    -0.024 A 
HETATM   13  C   UNL     1      -7.516   5.040 -30.793  1.00  0.00     0.031 A 
HETATM   14  C   UNL     1      -8.222   5.809 -29.866  1.00  0.00     0.047 A 
HETATM   15  C   UNL     1      -7.656   6.079 -28.623  1.00  0.00     0.116 A 
HETATM   16 BR   UNL     1      -9.937   6.455 -30.343  1.00  0.00    -0.048 Br
HETATM   17  C   UNL     1      -6.384   5.595 -28.293  1.00  0.00     0.103 A 
HETATM   18  C   UNL     1      -5.672   4.840 -29.230  1.00  0.00     0.049 A 
BRANCH  15  19
HETATM   19  O   UNL     1      -8.339   6.826 -27.695  1.00  0.00    -0.357 OA
HETATM   20  H   UNL     1      -9.264   6.516 -27.744  1.00  0.00     0.218 HD
ENDBRANCH  15  19
BRANCH  17  21
HETATM   21  O   UNL     1      -5.947   5.932 -27.037  1.00  0.00    -0.349 OA
BRANCH  21  22
HETATM   22  C   UNL     1      -4.614   6.434 -26.927  1.00  0.00     0.171 C 
HETATM   23  C   UNL     1      -4.647   7.916 -27.252  1.00  0.00     0.034 C 
ENDBRANCH  21  22
ENDBRANCH  17  21
ENDBRANCH   1  12
BRANCH  10  24
HETATM   24  C   UNL     1      -3.800   5.585 -32.071  1.00  0.00     0.256 C 
HETATM   25  N   UNL     1      -2.678   5.119 -31.420  1.00  0.00    -0.323 N 
HETATM   26  H   UNL     1      -2.568   4.125 -31.288  1.00  0.00     0.169 HD
HETATM   27  O   UNL     1      -4.113   6.760 -32.233  1.00  0.00    -0.267 OA
BRANCH  25  28
HETATM   28  C   UNL     1      -1.640   5.898 -30.861  1.00  0.00     0.035 A 
HETATM   29  C   UNL     1      -1.776   6.667 -29.703  1.00  0.00     0.029 A 
HETATM   30  C   UNL     1      -0.701   7.424 -29.225  1.00  0.00     0.002 A 
HETATM   31  C   UNL     1       0.520   7.412 -29.895  1.00  0.00     0.000 A 
HETATM   32  C   UNL     1       0.666   6.648 -31.049  1.00  0.00     0.002 A 
HETATM   33  C   UNL     1      -0.411   5.901 -31.534  1.00  0.00     0.029 A 
ENDBRANCH  25  28
ENDBRANCH  10  24
TORSDOF 6
ENDMDL
MODEL 10
REMARK VINA RESULT:      -7.0     16.156     17.876
REMARK  6 active torsions:
REMARK  status: ('A' for Active; 'I' for Inactive)
REMARK    1  A    between atoms: C_2  and  O_3 
REMARK    2  A    between atoms: O_3  and  C_4 
REMARK    3  A    between atoms: C_5  and  O_6 
REMARK    4  A    between atoms: C_10  and  C_11 
REMARK    5  A    between atoms: C_20  and  C_21 
REMARK       I    between atoms: C_21  and  N_22 
REMARK    6  A    between atoms: N_22  and  C_23 
ROOT
HETATM    1  C   UNL     1      -3.664 -13.455 -38.778  1.00  0.00     0.202 A 
HETATM    2  N   UNL     1      -2.344 -14.092 -38.862  1.00  0.00    -0.084 N 
HETATM    3  C   UNL     1      -1.825 -14.629 -40.005  1.00  0.00     0.725 A 
HETATM    4  N   UNL     1      -0.611 -15.057 -39.774  1.00  0.00    -0.054 NA
HETATM    5  C   UNL     1      -0.408 -14.703 -38.465  1.00  0.00     0.275 A 
HETATM    6  N   UNL     1      -1.427 -14.068 -37.871  1.00  0.00    -0.149 NA
HETATM    7  N   UNL     1      -2.560 -14.612 -41.131  1.00  0.00    -0.192 N 
HETATM    8  C   UNL     1      -3.815 -14.022 -41.222  1.00  0.00     0.037 A 
HETATM    9  C   UNL     1      -4.449 -14.053 -42.592  1.00  0.00     0.070 C 
HETATM   10  C   UNL     1      -4.379 -13.449 -40.126  1.00  0.00     0.062 A 
HETATM   11  H   UNL     1      -2.159 -15.005 -41.979  1.00  0.00     0.184 HD
ENDROOT
BRANCH   1  12
HETATM   12  C   UNL     1      -4.471 -14.074 -37.638  1.00  0.00    -0.024 A 
HETATM   13  C   UNL     1      -4.643 -13.347 -36.445  1.00  0.00     0.031 A 
HETATM   14  C   UNL     1      -5.375 -13.883 -35.383  1.00  0.00     0.047 A 
HETATM   15  C   UNL     1      -5.941 -15.149 -35.507  1.00  0.00     0.116 A 
HETATM   16 BR   UNL     1      -5.572 -12.853 -33.806  1.00  0.00    -0.048 Br
HETATM   17  C   UNL     1      -5.779 -15.895 -36.681  1.00  0.00     0.103 A 
HETATM   18  C   UNL     1      -5.031 -15.363 -37.736  1.00  0.00     0.049 A 
BRANCH  15  19
HETATM   19  O   UNL     1      -6.672 -15.689 -34.478  1.00  0.00    -0.357 OA
HETATM   20  H   UNL     1      -7.091 -16.490 -34.851  1.00  0.00     0.218 HD
ENDBRANCH  15  19
BRANCH  17  21
HETATM   21  O   UNL     1      -6.389 -17.124 -36.672  1.00  0.00    -0.349 OA
BRANCH  21  22
HETATM   22  C   UNL     1      -7.082 -17.512 -37.860  1.00  0.00     0.171 C 
HETATM   23  C   UNL     1      -8.501 -16.982 -37.764  1.00  0.00     0.034 C 
ENDBRANCH  21  22
ENDBRANCH  17  21
ENDBRANCH   1  12
BRANCH  10  24
HETATM   24  C   UNL     1      -5.772 -12.907 -40.189  1.00  0.00     0.256 C 
HETATM   25  N   UNL     1      -6.760 -13.868 -40.178  1.00  0.00    -0.323 N 
HETATM   26  H   UNL     1      -6.495 -14.841 -40.159  1.00  0.00     0.169 HD
HETATM   27  O   UNL     1      -5.935 -11.696 -40.293  1.00  0.00    -0.267 OA
BRANCH  25  28
HETATM   28  C   UNL     1      -8.155 -13.647 -40.225  1.00  0.00     0.035 A 
HETATM   29  C   UNL     1      -8.775 -12.466 -39.812  1.00  0.00     0.029 A 
HETATM   30  C   UNL     1     -10.166 -12.335 -39.877  1.00  0.00     0.002 A 
HETATM   31  C   UNL     1     -10.948 -13.379 -40.364  1.00  0.00     0.000 A 
HETATM   32  C   UNL     1     -10.340 -14.560 -40.781  1.00  0.00     0.002 A 
HETATM   33  C   UNL     1      -8.952 -14.696 -40.704  1.00  0.00     0.029 A 
ENDBRANCH  25  28
ENDBRANCH  10  24
TORSDOF 6
ENDMDL
