MODEL 1
REMARK VINA RESULT:     -10.5      0.000      0.000
REMARK  7 active torsions:
REMARK  status: ('A' for Active; 'I' for Inactive)
REMARK    1  A    between atoms: C_4  and  N_5 
REMARK    2  A    between atoms: N_8  and  C_10 
REMARK    3  A    between atoms: C_10  and  C_11 
REMARK    4  A    between atoms: C_11  and  C_12 
REMARK    5  A    between atoms: C_12  and  N_13 
REMARK       I    between atoms: N_13  and  C_14 
REMARK    6  A    between atoms: C_14  and  C_15 
REMARK    7  A    between atoms: C_21  and  C_22 
ROOT
HETATM    1  N   UNL     1      -7.206   5.398 -33.044  1.00  0.00    -0.357 N 
HETATM    2  C   UNL     1      -5.891   5.254 -33.437  1.00  0.00     0.251 C 
HETATM    3  O   UNL     1      -5.605   4.907 -34.583  1.00  0.00    -0.268 OA
HETATM    4  H   UNL     1      -7.434   5.773 -32.131  1.00  0.00     0.162 HD
ENDROOT
BRANCH   2   5
HETATM    5  C   UNL     1      -4.835   5.667 -32.466  1.00  0.00     0.034 A 
HETATM    6  C   UNL     1      -3.553   5.104 -32.442  1.00  0.00     0.048 A 
HETATM    7  C   UNL     1      -2.635   5.465 -31.443  1.00  0.00     0.053 A 
HETATM    8  C   UNL     1      -2.982   6.400 -30.470  1.00  0.00     0.032 A 
HETATM    9  N   UNL     1      -1.385   4.844 -31.454  1.00  0.00    -0.321 N 
HETATM   10  S   UNL     1      -1.919   6.862 -29.139  1.00  0.00    -0.083 SA
HETATM   11  C   UNL     1      -4.252   6.989 -30.520  1.00  0.00     0.022 A 
HETATM   12  C   UNL     1      -0.419   6.113 -29.546  1.00  0.00     0.074 C 
HETATM   13  C   UNL     1       0.731   6.399 -28.903  1.00  0.00     0.036 C 
HETATM   14  C   UNL     1      -0.329   5.072 -30.621  1.00  0.00     0.263 C 
HETATM   15  O   UNL     1       0.692   4.407 -30.803  1.00  0.00    -0.267 OA
HETATM   16  C   UNL     1      -5.171   6.630 -31.509  1.00  0.00     0.018 A 
HETATM   17  H   UNL     1      -1.173   4.147 -32.157  1.00  0.00     0.169 HD
BRANCH  13  18
HETATM   18  C   UNL     1       0.893   7.380 -27.823  1.00  0.00    -0.035 A 
HETATM   19  C   UNL     1       0.529   7.048 -26.515  1.00  0.00     0.011 A 
HETATM   20  C   UNL     1       0.668   7.985 -25.489  1.00  0.00     0.001 A 
HETATM   21  C   UNL     1       1.173   9.255 -25.767  1.00  0.00     0.000 A 
HETATM   22  C   UNL     1       1.543   9.589 -27.069  1.00  0.00     0.001 A 
HETATM   23  C   UNL     1       1.405   8.654 -28.096  1.00  0.00     0.011 A 
ENDBRANCH  13  18
ENDBRANCH   2   5
BRANCH   1  24
HETATM   24  C   UNL     1      -8.309   5.117 -33.939  1.00  0.00     0.124 C 
BRANCH  24  25
HETATM   25  C   UNL     1      -9.405   4.280 -33.280  1.00  0.00     0.047 C 
BRANCH  25  26
HETATM   26  C   UNL     1      -9.032   3.576 -31.973  1.00  0.00     0.236 C 
BRANCH  26  27
HETATM   27  N   UNL     1      -8.824   2.088 -32.119  1.00  0.00    -0.068 N 
HETATM   28  C   UNL     1      -8.882   1.624 -33.574  1.00  0.00     0.254 C 
HETATM   29  C   UNL     1      -8.467   0.148 -33.755  1.00  0.00     0.150 C 
HETATM   30  N   UNL     1      -7.167  -0.073 -33.107  1.00  0.00    -0.377 N 
HETATM   31  C   UNL     1      -7.217   0.167 -31.654  1.00  0.00     0.150 C 
HETATM   32  C   UNL     1      -7.516   1.663 -31.427  1.00  0.00     0.254 C 
HETATM   33  H   UNL     1      -9.562   1.616 -31.558  1.00  0.00     0.280 HD
BRANCH  30  34
HETATM   34  C   UNL     1      -6.356  -1.129 -33.540  1.00  0.00     0.036 A 
HETATM   35  C   UNL     1      -6.898  -2.262 -34.178  1.00  0.00     0.036 A 
HETATM   36  C   UNL     1      -6.095  -3.309 -34.661  1.00  0.00    -0.060 A 
HETATM   37  C   UNL     1      -6.696  -4.466 -35.404  1.00  0.00     0.048 C 
HETATM   38  C   UNL     1      -4.714  -3.233 -34.497  1.00  0.00     0.007 A 
HETATM   39  C   UNL     1      -4.148  -2.128 -33.869  1.00  0.00     0.009 A 
HETATM   40  C   UNL     1      -4.947  -1.062 -33.415  1.00  0.00    -0.035 A 
HETATM   41  C   UNL     1      -4.225   0.124 -32.829  1.00  0.00     0.050 C 
ENDBRANCH  30  34
ENDBRANCH  26  27
ENDBRANCH  25  26
ENDBRANCH  24  25
ENDBRANCH   1  24
TORSDOF 7
ENDMDL
MODEL 2
REMARK VINA RESULT:     -10.4      1.868      2.694
REMARK  7 active torsions:
REMARK  status: ('A' for Active; 'I' for Inactive)
REMARK    1  A    between atoms: C_4  and  N_5 
REMARK    2  A    between atoms: N_8  and  C_10 
REMARK    3  A    between atoms: C_10  and  C_11 
REMARK    4  A    between atoms: C_11  and  C_12 
REMARK    5  A    between atoms: C_12  and  N_13 
REMARK       I    between atoms: N_13  and  C_14 
REMARK    6  A    between atoms: C_14  and  C_15 
REMARK    7  A    between atoms: C_21  and  C_22 
ROOT
HETATM    1  N   UNL     1      -9.730   4.815 -32.854  1.00  0.00    -0.357 N 
HETATM    2  C   UNL     1      -8.708   5.167 -33.713  1.00  0.00     0.251 C 
HETATM    3  O   UNL     1      -8.937   5.448 -34.890  1.00  0.00    -0.268 OA
HETATM    4  H   UNL     1      -9.550   4.677 -31.867  1.00  0.00     0.162 HD
ENDROOT
BRANCH   2   5
HETATM    5  C   UNL     1      -7.345   5.327 -33.129  1.00  0.00     0.034 A 
HETATM    6  C   UNL     1      -6.169   5.173 -33.873  1.00  0.00     0.048 A 
HETATM    7  C   UNL     1      -4.914   5.241 -33.246  1.00  0.00     0.053 A 
HETATM    8  C   UNL     1      -4.822   5.478 -31.876  1.00  0.00     0.032 A 
HETATM    9  N   UNL     1      -3.781   5.046 -34.036  1.00  0.00    -0.321 N 
HETATM   10  S   UNL     1      -3.294   5.512 -30.993  1.00  0.00    -0.083 SA
HETATM   11  C   UNL     1      -5.999   5.670 -31.141  1.00  0.00     0.022 A 
HETATM   12  C   UNL     1      -2.108   5.461 -32.244  1.00  0.00     0.074 C 
HETATM   13  C   UNL     1      -0.800   5.694 -32.011  1.00  0.00     0.036 C 
HETATM   14  C   UNL     1      -2.472   5.116 -33.656  1.00  0.00     0.263 C 
HETATM   15  O   UNL     1      -1.619   4.906 -34.520  1.00  0.00    -0.267 OA
HETATM   16  C   UNL     1      -7.251   5.599 -31.760  1.00  0.00     0.018 A 
HETATM   17  H   UNL     1      -3.881   4.847 -35.023  1.00  0.00     0.169 HD
BRANCH  13  18
HETATM   18  C   UNL     1      -0.205   6.051 -30.718  1.00  0.00    -0.035 A 
HETATM   19  C   UNL     1       0.296   5.051 -29.878  1.00  0.00     0.011 A 
HETATM   20  C   UNL     1       0.847   5.388 -28.640  1.00  0.00     0.001 A 
HETATM   21  C   UNL     1       0.902   6.722 -28.239  1.00  0.00     0.000 A 
HETATM   22  C   UNL     1       0.410   7.722 -29.076  1.00  0.00     0.001 A 
HETATM   23  C   UNL     1      -0.142   7.389 -30.314  1.00  0.00     0.011 A 
ENDBRANCH  13  18
ENDBRANCH   2   5
BRANCH   1  24
HETATM   24  C   UNL     1     -11.106   4.724 -33.296  1.00  0.00     0.124 C 
BRANCH  24  25
HETATM   25  C   UNL     1     -11.829   3.506 -32.722  1.00  0.00     0.047 C 
BRANCH  25  26
HETATM   26  C   UNL     1     -11.445   2.146 -33.307  1.00  0.00     0.236 C 
BRANCH  26  27
HETATM   27  N   UNL     1      -9.979   1.813 -33.167  1.00  0.00    -0.068 N 
HETATM   28  C   UNL     1      -9.724   0.675 -32.179  1.00  0.00     0.254 C 
HETATM   29  C   UNL     1      -8.259   0.188 -32.182  1.00  0.00     0.150 C 
HETATM   30  N   UNL     1      -7.851  -0.113 -33.561  1.00  0.00    -0.377 N 
HETATM   31  C   UNL     1      -7.893   1.076 -34.431  1.00  0.00     0.150 C 
HETATM   32  C   UNL     1      -9.363   1.530 -34.549  1.00  0.00     0.254 C 
HETATM   33  H   UNL     1      -9.494   2.679 -32.856  1.00  0.00     0.280 HD
BRANCH  30  34
HETATM   34  C   UNL     1      -6.804  -1.015 -33.785  1.00  0.00     0.036 A 
HETATM   35  C   UNL     1      -7.028  -2.274 -34.375  1.00  0.00     0.036 A 
HETATM   36  C   UNL     1      -5.985  -3.172 -34.651  1.00  0.00    -0.060 A 
HETATM   37  C   UNL     1      -6.247  -4.473 -35.351  1.00  0.00     0.048 C 
HETATM   38  C   UNL     1      -4.679  -2.814 -34.321  1.00  0.00     0.007 A 
HETATM   39  C   UNL     1      -4.425  -1.579 -33.735  1.00  0.00     0.009 A 
HETATM   40  C   UNL     1      -5.465  -0.663 -33.489  1.00  0.00    -0.035 A 
HETATM   41  C   UNL     1      -5.068   0.679 -32.932  1.00  0.00     0.050 C 
ENDBRANCH  30  34
ENDBRANCH  26  27
ENDBRANCH  25  26
ENDBRANCH  24  25
ENDBRANCH   1  24
TORSDOF 7
ENDMDL
MODEL 3
REMARK VINA RESULT:     -10.3      3.368      5.350
REMARK  7 active torsions:
REMARK  status: ('A' for Active; 'I' for Inactive)
REMARK    1  A    between atoms: C_4  and  N_5 
REMARK    2  A    between atoms: N_8  and  C_10 
REMARK    3  A    between atoms: C_10  and  C_11 
REMARK    4  A    between atoms: C_11  and  C_12 
REMARK    5  A    between atoms: C_12  and  N_13 
REMARK       I    between atoms: N_13  and  C_14 
REMARK    6  A    between atoms: C_14  and  C_15 
REMARK    7  A    between atoms: C_21  and  C_22 
ROOT
HETATM    1  N   UNL     1      -2.741   6.377 -29.923  1.00  0.00    -0.357 N 
HETATM    2  C   UNL     1      -1.839   7.413 -30.067  1.00  0.00     0.251 C 
HETATM    3  O   UNL     1      -1.819   8.098 -31.090  1.00  0.00    -0.268 OA
HETATM    4  H   UNL     1      -2.817   5.878 -29.046  1.00  0.00     0.162 HD
ENDROOT
BRANCH   2   5
HETATM    5  C   UNL     1      -0.991   7.753 -28.888  1.00  0.00     0.034 A 
HETATM    6  C   UNL     1      -1.489   8.391 -27.744  1.00  0.00     0.048 A 
HETATM    7  C   UNL     1      -0.622   8.772 -26.707  1.00  0.00     0.053 A 
HETATM    8  C   UNL     1       0.743   8.507 -26.795  1.00  0.00     0.032 A 
HETATM    9  N   UNL     1      -1.173   9.433 -25.609  1.00  0.00    -0.321 N 
HETATM   10  S   UNL     1       1.915   9.010 -25.574  1.00  0.00    -0.083 SA
HETATM   11  C   UNL     1       1.231   7.835 -27.923  1.00  0.00     0.022 A 
HETATM   12  C   UNL     1       0.925   9.586 -24.284  1.00  0.00     0.074 C 
HETATM   13  C   UNL     1       1.419   9.859 -23.059  1.00  0.00     0.036 C 
HETATM   14  C   UNL     1      -0.538   9.848 -24.475  1.00  0.00     0.263 C 
HETATM   15  O   UNL     1      -1.218  10.420 -23.622  1.00  0.00    -0.267 OA
HETATM   16  C   UNL     1       0.374   7.458 -28.960  1.00  0.00     0.018 A 
HETATM   17  H   UNL     1      -2.165   9.638 -25.588  1.00  0.00     0.169 HD
BRANCH  13  18
HETATM   18  C   UNL     1       2.812   9.681 -22.632  1.00  0.00    -0.035 A 
HETATM   19  C   UNL     1       3.715  10.744 -22.729  1.00  0.00     0.011 A 
HETATM   20  C   UNL     1       5.044  10.572 -22.338  1.00  0.00     0.001 A 
HETATM   21  C   UNL     1       5.475   9.340 -21.849  1.00  0.00     0.000 A 
HETATM   22  C   UNL     1       4.576   8.279 -21.744  1.00  0.00     0.001 A 
HETATM   23  C   UNL     1       3.247   8.448 -22.134  1.00  0.00     0.011 A 
ENDBRANCH  13  18
ENDBRANCH   2   5
BRANCH   1  24
HETATM   24  C   UNL     1      -3.677   6.024 -30.970  1.00  0.00     0.124 C 
BRANCH  24  25
HETATM   25  C   UNL     1      -3.600   4.547 -31.354  1.00  0.00     0.047 C 
BRANCH  25  26
HETATM   26  C   UNL     1      -4.745   3.655 -30.870  1.00  0.00     0.236 C 
BRANCH  26  27
HETATM   27  N   UNL     1      -4.479   2.178 -31.033  1.00  0.00    -0.068 N 
HETATM   28  C   UNL     1      -5.744   1.331 -30.892  1.00  0.00     0.254 C 
HETATM   29  C   UNL     1      -5.523  -0.152 -31.259  1.00  0.00     0.150 C 
HETATM   30  N   UNL     1      -4.892  -0.234 -32.583  1.00  0.00    -0.377 N 
HETATM   31  C   UNL     1      -3.563   0.400 -32.612  1.00  0.00     0.150 C 
HETATM   32  C   UNL     1      -3.749   1.911 -32.362  1.00  0.00     0.254 C 
HETATM   33  H   UNL     1      -3.779   1.909 -30.312  1.00  0.00     0.280 HD
BRANCH  30  34
HETATM   34  C   UNL     1      -5.046  -1.399 -33.344  1.00  0.00     0.036 A 
HETATM   35  C   UNL     1      -4.145  -2.476 -33.236  1.00  0.00     0.036 A 
HETATM   36  C   UNL     1      -4.310  -3.671 -33.956  1.00  0.00    -0.060 A 
HETATM   37  C   UNL     1      -3.376  -4.829 -33.760  1.00  0.00     0.048 C 
HETATM   38  C   UNL     1      -5.397  -3.796 -34.818  1.00  0.00     0.007 A 
HETATM   39  C   UNL     1      -6.304  -2.750 -34.949  1.00  0.00     0.009 A 
HETATM   40  C   UNL     1      -6.160  -1.565 -34.203  1.00  0.00    -0.035 A 
HETATM   41  C   UNL     1      -7.246  -0.532 -34.356  1.00  0.00     0.050 C 
ENDBRANCH  30  34
ENDBRANCH  26  27
ENDBRANCH  25  26
ENDBRANCH  24  25
ENDBRANCH   1  24
TORSDOF 7
ENDMDL
MODEL 4
REMARK VINA RESULT:     -10.1      2.805      4.340
REMARK  7 active torsions:
REMARK  status: ('A' for Active; 'I' for Inactive)
REMARK    1  A    between atoms: C_4  and  N_5 
REMARK    2  A    between atoms: N_8  and  C_10 
REMARK    3  A    between atoms: C_10  and  C_11 
REMARK    4  A    between atoms: C_11  and  C_12 
REMARK    5  A    between atoms: C_12  and  N_13 
REMARK       I    between atoms: N_13  and  C_14 
REMARK    6  A    between atoms: C_14  and  C_15 
REMARK    7  A    between atoms: C_21  and  C_22 
ROOT
HETATM    1  N   UNL     1      -2.853   5.247 -30.618  1.00  0.00    -0.357 N 
HETATM    2  C   UNL     1      -1.971   6.287 -30.834  1.00  0.00     0.251 C 
HETATM    3  O   UNL     1      -1.960   6.898 -31.903  1.00  0.00    -0.268 OA
HETATM    4  H   UNL     1      -2.922   4.810 -29.706  1.00  0.00     0.162 HD
ENDROOT
BRANCH   2   5
HETATM    5  C   UNL     1      -1.133   6.728 -29.680  1.00  0.00     0.034 A 
HETATM    6  C   UNL     1      -1.225   8.004 -29.110  1.00  0.00     0.048 A 
HETATM    7  C   UNL     1      -0.343   8.393 -28.088  1.00  0.00     0.053 A 
HETATM    8  C   UNL     1       0.625   7.508 -27.618  1.00  0.00     0.032 A 
HETATM    9  N   UNL     1      -0.462   9.688 -27.585  1.00  0.00    -0.321 N 
HETATM   10  S   UNL     1       1.818   7.933 -26.387  1.00  0.00    -0.083 SA
HETATM   11  C   UNL     1       0.688   6.220 -28.163  1.00  0.00     0.022 A 
HETATM   12  C   UNL     1       1.283   9.474 -25.827  1.00  0.00     0.074 C 
HETATM   13  C   UNL     1       1.789  10.058 -24.721  1.00  0.00     0.036 C 
HETATM   14  C   UNL     1       0.245  10.261 -26.569  1.00  0.00     0.263 C 
HETATM   15  O   UNL     1      -0.019  11.429 -26.281  1.00  0.00    -0.267 OA
HETATM   16  C   UNL     1      -0.184   5.829 -29.183  1.00  0.00     0.018 A 
HETATM   17  H   UNL     1      -1.156  10.317 -27.968  1.00  0.00     0.169 HD
BRANCH  13  18
HETATM   18  C   UNL     1       2.808   9.484 -23.834  1.00  0.00    -0.035 A 
HETATM   19  C   UNL     1       4.163   9.589 -24.163  1.00  0.00     0.011 A 
HETATM   20  C   UNL     1       5.132   9.031 -23.327  1.00  0.00     0.001 A 
HETATM   21  C   UNL     1       4.751   8.368 -22.161  1.00  0.00     0.000 A 
HETATM   22  C   UNL     1       3.402   8.267 -21.825  1.00  0.00     0.001 A 
HETATM   23  C   UNL     1       2.431   8.825 -22.659  1.00  0.00     0.011 A 
ENDBRANCH  13  18
ENDBRANCH   2   5
BRANCH   1  24
HETATM   24  C   UNL     1      -3.778   4.801 -31.638  1.00  0.00     0.124 C 
BRANCH  24  25
HETATM   25  C   UNL     1      -5.045   4.179 -31.053  1.00  0.00     0.047 C 
BRANCH  25  26
HETATM   26  C   UNL     1      -6.273   4.144 -31.965  1.00  0.00     0.236 C 
BRANCH  26  27
HETATM   27  N   UNL     1      -6.672   2.754 -32.399  1.00  0.00    -0.068 N 
HETATM   28  C   UNL     1      -6.218   2.427 -33.822  1.00  0.00     0.254 C 
HETATM   29  C   UNL     1      -6.436   0.947 -34.201  1.00  0.00     0.150 C 
HETATM   30  N   UNL     1      -5.836   0.089 -33.170  1.00  0.00    -0.377 N 
HETATM   31  C   UNL     1      -6.466   0.275 -31.850  1.00  0.00     0.150 C 
HETATM   32  C   UNL     1      -6.174   1.714 -31.379  1.00  0.00     0.254 C 
HETATM   33  H   UNL     1      -7.708   2.692 -32.325  1.00  0.00     0.280 HD
BRANCH  30  34
HETATM   34  C   UNL     1      -5.451  -1.215 -33.502  1.00  0.00     0.036 A 
HETATM   35  C   UNL     1      -6.296  -2.070 -34.237  1.00  0.00     0.036 A 
HETATM   36  C   UNL     1      -5.907  -3.364 -34.619  1.00  0.00    -0.060 A 
HETATM   37  C   UNL     1      -6.800  -4.222 -35.468  1.00  0.00     0.048 C 
HETATM   38  C   UNL     1      -4.646  -3.828 -34.253  1.00  0.00     0.007 A 
HETATM   39  C   UNL     1      -3.789  -3.009 -33.525  1.00  0.00     0.009 A 
HETATM   40  C   UNL     1      -4.163  -1.699 -33.170  1.00  0.00    -0.035 A 
HETATM   41  C   UNL     1      -3.126  -0.869 -32.459  1.00  0.00     0.050 C 
ENDBRANCH  30  34
ENDBRANCH  26  27
ENDBRANCH  25  26
ENDBRANCH  24  25
ENDBRANCH   1  24
TORSDOF 7
ENDMDL
MODEL 5
REMARK VINA RESULT:     -10.0      3.320      8.723
REMARK  7 active torsions:
REMARK  status: ('A' for Active; 'I' for Inactive)
REMARK    1  A    between atoms: C_4  and  N_5 
REMARK    2  A    between atoms: N_8  and  C_10 
REMARK    3  A    between atoms: C_10  and  C_11 
REMARK    4  A    between atoms: C_11  and  C_12 
REMARK    5  A    between atoms: C_12  and  N_13 
REMARK       I    between atoms: N_13  and  C_14 
REMARK    6  A    between atoms: C_14  and  C_15 
REMARK    7  A    between atoms: C_21  and  C_22 
ROOT
HETATM    1  N   UNL     1      -4.028   5.833 -29.923  1.00  0.00    -0.357 N 
HETATM    2  C   UNL     1      -3.668   5.551 -31.226  1.00  0.00     0.251 C 
HETATM    3  O   UNL     1      -3.028   6.361 -31.896  1.00  0.00    -0.268 OA
HETATM    4  H   UNL     1      -4.471   5.128 -29.346  1.00  0.00     0.162 HD
ENDROOT
BRANCH   2   5
HETATM    5  C   UNL     1      -3.962   4.180 -31.738  1.00  0.00     0.034 A 
HETATM    6  C   UNL     1      -4.977   3.911 -32.665  1.00  0.00     0.048 A 
HETATM    7  C   UNL     1      -5.270   2.588 -33.037  1.00  0.00     0.053 A 
HETATM    8  C   UNL     1      -4.544   1.527 -32.499  1.00  0.00     0.032 A 
HETATM    9  N   UNL     1      -6.313   2.382 -33.939  1.00  0.00    -0.321 N 
HETATM   10  S   UNL     1      -4.886  -0.167 -32.854  1.00  0.00    -0.083 SA
HETATM   11  C   UNL     1      -3.505   1.804 -31.601  1.00  0.00     0.022 A 
HETATM   12  C   UNL     1      -6.046  -0.082 -34.129  1.00  0.00     0.074 C 
HETATM   13  C   UNL     1      -6.410  -1.163 -34.850  1.00  0.00     0.036 C 
HETATM   14  C   UNL     1      -6.738   1.201 -34.474  1.00  0.00     0.263 C 
HETATM   15  O   UNL     1      -7.688   1.242 -35.258  1.00  0.00    -0.267 OA
HETATM   16  C   UNL     1      -3.212   3.117 -31.225  1.00  0.00     0.018 A 
HETATM   17  H   UNL     1      -6.841   3.172 -34.290  1.00  0.00     0.169 HD
BRANCH  13  18
HETATM   18  C   UNL     1      -5.873  -2.520 -34.698  1.00  0.00    -0.035 A 
HETATM   19  C   UNL     1      -6.681  -3.628 -34.972  1.00  0.00     0.011 A 
HETATM   20  C   UNL     1      -6.176  -4.920 -34.813  1.00  0.00     0.001 A 
HETATM   21  C   UNL     1      -4.864  -5.109 -34.384  1.00  0.00     0.000 A 
HETATM   22  C   UNL     1      -4.052  -4.008 -34.116  1.00  0.00     0.001 A 
HETATM   23  C   UNL     1      -4.554  -2.716 -34.274  1.00  0.00     0.011 A 
ENDBRANCH  13  18
ENDBRANCH   2   5
BRANCH   1  24
HETATM   24  C   UNL     1      -3.706   7.097 -29.295  1.00  0.00     0.124 C 
BRANCH  24  25
HETATM   25  C   UNL     1      -4.947   7.852 -28.822  1.00  0.00     0.047 C 
BRANCH  25  26
HETATM   26  C   UNL     1      -5.741   8.600 -29.894  1.00  0.00     0.236 C 
BRANCH  26  27
HETATM   27  N   UNL     1      -6.925   7.829 -30.427  1.00  0.00    -0.068 N 
HETATM   28  C   UNL     1      -6.667   7.231 -31.809  1.00  0.00     0.254 C 
HETATM   29  C   UNL     1      -7.785   6.273 -32.273  1.00  0.00     0.150 C 
HETATM   30  N   UNL     1      -8.032   5.273 -31.225  1.00  0.00    -0.377 N 
HETATM   31  C   UNL     1      -8.504   5.882 -29.969  1.00  0.00     0.150 C 
HETATM   32  C   UNL     1      -7.368   6.763 -29.408  1.00  0.00     0.254 C 
HETATM   33  H   UNL     1      -7.732   8.485 -30.459  1.00  0.00     0.280 HD
BRANCH  30  34
HETATM   34  C   UNL     1      -8.596   4.040 -31.573  1.00  0.00     0.036 A 
HETATM   35  C   UNL     1      -9.543   3.928 -32.609  1.00  0.00     0.036 A 
HETATM   36  C   UNL     1     -10.084   2.693 -33.003  1.00  0.00    -0.060 A 
HETATM   37  C   UNL     1     -11.033   2.597 -34.162  1.00  0.00     0.048 C 
HETATM   38  C   UNL     1      -9.679   1.535 -32.342  1.00  0.00     0.007 A 
HETATM   39  C   UNL     1      -8.746   1.612 -31.314  1.00  0.00     0.009 A 
HETATM   40  C   UNL     1      -8.177   2.845 -30.939  1.00  0.00    -0.035 A 
HETATM   41  C   UNL     1      -7.114   2.804 -29.873  1.00  0.00     0.050 C 
ENDBRANCH  30  34
ENDBRANCH  26  27
ENDBRANCH  25  26
ENDBRANCH  24  25
ENDBRANCH   1  24
TORSDOF 7
ENDMDL
MODEL 6
REMARK VINA RESULT:     -10.0      2.051      3.334
REMARK  7 active torsions:
REMARK  status: ('A' for Active; 'I' for Inactive)
REMARK    1  A    between atoms: C_4  and  N_5 
REMARK    2  A    between atoms: N_8  and  C_10 
REMARK    3  A    between atoms: C_10  and  C_11 
REMARK    4  A    between atoms: C_11  and  C_12 
REMARK    5  A    between atoms: C_12  and  N_13 
REMARK       I    between atoms: N_13  and  C_14 
REMARK    6  A    between atoms: C_14  and  C_15 
REMARK    7  A    between atoms: C_21  and  C_22 
ROOT
HETATM    1  N   UNL     1      -9.788   4.568 -32.965  1.00  0.00    -0.357 N 
HETATM    2  C   UNL     1      -8.795   5.045 -33.797  1.00  0.00     0.251 C 
HETATM    3  O   UNL     1      -9.053   5.419 -34.941  1.00  0.00    -0.268 OA
HETATM    4  H   UNL     1      -9.588   4.350 -31.995  1.00  0.00     0.162 HD
ENDROOT
BRANCH   2   5
HETATM    5  C   UNL     1      -7.434   5.219 -33.212  1.00  0.00     0.034 A 
HETATM    6  C   UNL     1      -6.256   5.074 -33.956  1.00  0.00     0.048 A 
HETATM    7  C   UNL     1      -5.002   5.155 -33.328  1.00  0.00     0.053 A 
HETATM    8  C   UNL     1      -4.913   5.395 -31.959  1.00  0.00     0.032 A 
HETATM    9  N   UNL     1      -3.866   4.969 -34.118  1.00  0.00    -0.321 N 
HETATM   10  S   UNL     1      -3.386   5.444 -31.075  1.00  0.00    -0.083 SA
HETATM   11  C   UNL     1      -6.092   5.577 -31.225  1.00  0.00     0.022 A 
HETATM   12  C   UNL     1      -2.198   5.402 -32.326  1.00  0.00     0.074 C 
HETATM   13  C   UNL     1      -0.892   5.648 -32.093  1.00  0.00     0.036 C 
HETATM   14  C   UNL     1      -2.559   5.051 -33.738  1.00  0.00     0.263 C 
HETATM   15  O   UNL     1      -1.703   4.848 -34.601  1.00  0.00    -0.267 OA
HETATM   16  C   UNL     1      -7.342   5.494 -31.844  1.00  0.00     0.018 A 
HETATM   17  H   UNL     1      -3.965   4.767 -35.105  1.00  0.00     0.169 HD
BRANCH  13  18
HETATM   18  C   UNL     1      -0.302   6.012 -30.800  1.00  0.00    -0.035 A 
HETATM   19  C   UNL     1       0.282   5.028 -29.995  1.00  0.00     0.011 A 
HETATM   20  C   UNL     1       0.831   5.371 -28.758  1.00  0.00     0.001 A 
HETATM   21  C   UNL     1       0.800   6.695 -28.322  1.00  0.00     0.000 A 
HETATM   22  C   UNL     1       0.225   7.680 -29.124  1.00  0.00     0.001 A 
HETATM   23  C   UNL     1      -0.324   7.340 -30.362  1.00  0.00     0.011 A 
ENDBRANCH  13  18
ENDBRANCH   2   5
BRANCH   1  24
HETATM   24  C   UNL     1     -11.163   4.449 -33.400  1.00  0.00     0.124 C 
BRANCH  24  25
HETATM   25  C   UNL     1     -11.412   3.191 -34.231  1.00  0.00     0.047 C 
BRANCH  25  26
HETATM   26  C   UNL     1     -11.598   1.886 -33.455  1.00  0.00     0.236 C 
BRANCH  26  27
HETATM   27  N   UNL     1     -10.422   0.944 -33.553  1.00  0.00    -0.068 N 
HETATM   28  C   UNL     1      -9.468   1.307 -34.690  1.00  0.00     0.254 C 
HETATM   29  C   UNL     1      -8.163   0.483 -34.672  1.00  0.00     0.150 C 
HETATM   30  N   UNL     1      -7.558   0.563 -33.335  1.00  0.00    -0.377 N 
HETATM   31  C   UNL     1      -8.425  -0.013 -32.292  1.00  0.00     0.150 C 
HETATM   32  C   UNL     1      -9.698   0.853 -32.197  1.00  0.00     0.254 C 
HETATM   33  H   UNL     1     -10.803  -0.014 -33.690  1.00  0.00     0.280 HD
BRANCH  30  34
HETATM   34  C   UNL     1      -6.182   0.352 -33.192  1.00  0.00     0.036 A 
HETATM   35  C   UNL     1      -5.369   1.247 -32.468  1.00  0.00     0.036 A 
HETATM   36  C   UNL     1      -3.996   1.027 -32.273  1.00  0.00    -0.060 A 
HETATM   37  C   UNL     1      -3.173   1.959 -31.433  1.00  0.00     0.048 C 
HETATM   38  C   UNL     1      -3.409  -0.112 -32.822  1.00  0.00     0.007 A 
HETATM   39  C   UNL     1      -4.183  -1.014 -33.543  1.00  0.00     0.009 A 
HETATM   40  C   UNL     1      -5.566  -0.813 -33.711  1.00  0.00    -0.035 A 
HETATM   41  C   UNL     1      -6.325  -1.895 -34.434  1.00  0.00     0.050 C 
ENDBRANCH  30  34
ENDBRANCH  26  27
ENDBRANCH  25  26
ENDBRANCH  24  25
ENDBRANCH   1  24
TORSDOF 7
ENDMDL
MODEL 7
REMARK VINA RESULT:      -9.7      3.226      9.500
REMARK  7 active torsions:
REMARK  status: ('A' for Active; 'I' for Inactive)
REMARK    1  A    between atoms: C_4  and  N_5 
REMARK    2  A    between atoms: N_8  and  C_10 
REMARK    3  A    between atoms: C_10  and  C_11 
REMARK    4  A    between atoms: C_11  and  C_12 
REMARK    5  A    between atoms: C_12  and  N_13 
REMARK       I    between atoms: N_13  and  C_14 
REMARK    6  A    between atoms: C_14  and  C_15 
REMARK    7  A    between atoms: C_21  and  C_22 
ROOT
HETATM    1  N   UNL     1      -5.424   5.318 -27.813  1.00  0.00    -0.357 N 
HETATM    2  C   UNL     1      -6.349   5.239 -28.834  1.00  0.00     0.251 C 
HETATM    3  O   UNL     1      -7.083   6.192 -29.101  1.00  0.00    -0.268 OA
HETATM    4  H   UNL     1      -4.760   4.569 -27.658  1.00  0.00     0.162 HD
ENDROOT
BRANCH   2   5
HETATM    5  C   UNL     1      -6.329   4.014 -29.686  1.00  0.00     0.034 A 
HETATM    6  C   UNL     1      -7.436   3.574 -30.423  1.00  0.00     0.048 A 
HETATM    7  C   UNL     1      -7.385   2.361 -31.129  1.00  0.00     0.053 A 
HETATM    8  C   UNL     1      -6.228   1.586 -31.117  1.00  0.00     0.032 A 
HETATM    9  N   UNL     1      -8.531   1.961 -31.817  1.00  0.00    -0.321 N 
HETATM   10  S   UNL     1      -6.097   0.018 -31.917  1.00  0.00    -0.083 SA
HETATM   11  C   UNL     1      -5.110   2.047 -30.410  1.00  0.00     0.022 A 
HETATM   12  C   UNL     1      -7.555  -0.087 -32.833  1.00  0.00     0.074 C 
HETATM   13  C   UNL     1      -7.755  -1.036 -33.771  1.00  0.00     0.036 C 
HETATM   14  C   UNL     1      -8.695   0.858 -32.602  1.00  0.00     0.263 C 
HETATM   15  O   UNL     1      -9.800   0.689 -33.120  1.00  0.00    -0.267 OA
HETATM   16  C   UNL     1      -5.156   3.252 -29.702  1.00  0.00     0.018 A 
HETATM   17  H   UNL     1      -9.367   2.532 -31.782  1.00  0.00     0.169 HD
BRANCH  13  18
HETATM   18  C   UNL     1      -6.789  -2.066 -34.173  1.00  0.00    -0.035 A 
HETATM   19  C   UNL     1      -7.231  -3.356 -34.484  1.00  0.00     0.011 A 
HETATM   20  C   UNL     1      -6.312  -4.340 -34.852  1.00  0.00     0.001 A 
HETATM   21  C   UNL     1      -4.952  -4.040 -34.912  1.00  0.00     0.000 A 
HETATM   22  C   UNL     1      -4.508  -2.754 -34.609  1.00  0.00     0.001 A 
HETATM   23  C   UNL     1      -5.424  -1.767 -34.241  1.00  0.00     0.011 A 
ENDBRANCH  13  18
ENDBRANCH   2   5
BRANCH   1  24
HETATM   24  C   UNL     1      -5.293   6.500 -26.986  1.00  0.00     0.124 C 
BRANCH  24  25
HETATM   25  C   UNL     1      -3.838   6.935 -26.807  1.00  0.00     0.047 C 
BRANCH  25  26
HETATM   26  C   UNL     1      -3.430   8.245 -27.482  1.00  0.00     0.236 C 
BRANCH  26  27
HETATM   27  N   UNL     1      -3.067   8.094 -28.940  1.00  0.00    -0.068 N 
HETATM   28  C   UNL     1      -2.357   6.774 -29.238  1.00  0.00     0.254 C 
HETATM   29  C   UNL     1      -2.167   6.516 -30.748  1.00  0.00     0.150 C 
HETATM   30  N   UNL     1      -3.459   6.668 -31.431  1.00  0.00    -0.377 N 
HETATM   31  C   UNL     1      -4.000   8.034 -31.311  1.00  0.00     0.150 C 
HETATM   32  C   UNL     1      -4.313   8.293 -29.822  1.00  0.00     0.254 C 
HETATM   33  H   UNL     1      -2.458   8.899 -29.193  1.00  0.00     0.280 HD
BRANCH  30  34
HETATM   34  C   UNL     1      -3.669   6.018 -32.653  1.00  0.00     0.036 A 
HETATM   35  C   UNL     1      -4.745   5.129 -32.841  1.00  0.00     0.036 A 
HETATM   36  C   UNL     1      -4.999   4.504 -34.073  1.00  0.00    -0.060 A 
HETATM   37  C   UNL     1      -6.199   3.623 -34.262  1.00  0.00     0.048 C 
HETATM   38  C   UNL     1      -4.153   4.763 -35.149  1.00  0.00     0.007 A 
HETATM   39  C   UNL     1      -3.080   5.634 -34.996  1.00  0.00     0.009 A 
HETATM   40  C   UNL     1      -2.844   6.287 -33.772  1.00  0.00    -0.035 A 
HETATM   41  C   UNL     1      -1.707   7.276 -33.741  1.00  0.00     0.050 C 
ENDBRANCH  30  34
ENDBRANCH  26  27
ENDBRANCH  25  26
ENDBRANCH  24  25
ENDBRANCH   1  24
TORSDOF 7
ENDMDL
MODEL 8
REMARK VINA RESULT:      -9.5      3.143     12.707
REMARK  7 active torsions:
REMARK  status: ('A' for Active; 'I' for Inactive)
REMARK    1  A    between atoms: C_4  and  N_5 
REMARK    2  A    between atoms: N_8  and  C_10 
REMARK    3  A    between atoms: C_10  and  C_11 
REMARK    4  A    between atoms: C_11  and  C_12 
REMARK    5  A    between atoms: C_12  and  N_13 
REMARK       I    between atoms: N_13  and  C_14 
REMARK    6  A    between atoms: C_14  and  C_15 
REMARK    7  A    between atoms: C_21  and  C_22 
ROOT
HETATM    1  N   UNL     1      -2.705   5.860 -30.341  1.00  0.00    -0.357 N 
HETATM    2  C   UNL     1      -3.630   5.738 -31.359  1.00  0.00     0.251 C 
HETATM    3  O   UNL     1      -4.085   6.733 -31.924  1.00  0.00    -0.268 OA
HETATM    4  H   UNL     1      -2.265   5.039 -29.943  1.00  0.00     0.162 HD
ENDROOT
BRANCH   2   5
HETATM    5  C   UNL     1      -3.947   4.361 -31.837  1.00  0.00     0.034 A 
HETATM    6  C   UNL     1      -5.069   4.061 -32.621  1.00  0.00     0.048 A 
HETATM    7  C   UNL     1      -5.367   2.731 -32.959  1.00  0.00     0.053 A 
HETATM    8  C   UNL     1      -4.542   1.693 -32.531  1.00  0.00     0.032 A 
HETATM    9  N   UNL     1      -6.516   2.494 -33.713  1.00  0.00    -0.321 N 
HETATM   10  S   UNL     1      -4.875  -0.011 -32.849  1.00  0.00    -0.083 SA
HETATM   11  C   UNL     1      -3.400   2.000 -31.780  1.00  0.00     0.022 A 
HETATM   12  C   UNL     1      -6.199   0.040 -33.955  1.00  0.00     0.074 C 
HETATM   13  C   UNL     1      -6.622  -1.050 -34.628  1.00  0.00     0.036 C 
HETATM   14  C   UNL     1      -6.971   1.301 -34.195  1.00  0.00     0.263 C 
HETATM   15  O   UNL     1      -8.019   1.314 -34.842  1.00  0.00    -0.267 OA
HETATM   16  C   UNL     1      -3.101   3.321 -31.437  1.00  0.00     0.018 A 
HETATM   17  H   UNL     1      -7.111   3.267 -33.984  1.00  0.00     0.169 HD
BRANCH  13  18
HETATM   18  C   UNL     1      -6.027  -2.390 -34.560  1.00  0.00    -0.035 A 
HETATM   19  C   UNL     1      -4.682  -2.541 -34.208  1.00  0.00     0.011 A 
HETATM   20  C   UNL     1      -4.110  -3.814 -34.158  1.00  0.00     0.001 A 
HETATM   21  C   UNL     1      -4.879  -4.938 -34.457  1.00  0.00     0.000 A 
HETATM   22  C   UNL     1      -6.222  -4.792 -34.802  1.00  0.00     0.001 A 
HETATM   23  C   UNL     1      -6.796  -3.521 -34.853  1.00  0.00     0.011 A 
ENDBRANCH  13  18
ENDBRANCH   2   5
BRANCH   1  24
HETATM   24  C   UNL     1      -2.254   7.151 -29.865  1.00  0.00     0.124 C 
BRANCH  24  25
HETATM   25  C   UNL     1      -2.757   7.468 -28.457  1.00  0.00     0.047 C 
BRANCH  25  26
HETATM   26  C   UNL     1      -2.350   8.823 -27.875  1.00  0.00     0.236 C 
BRANCH  26  27
HETATM   27  N   UNL     1      -0.890   8.913 -27.500  1.00  0.00    -0.068 N 
HETATM   28  C   UNL     1      -0.481  10.315 -27.050  1.00  0.00     0.254 C 
HETATM   29  C   UNL     1       0.948  10.371 -26.470  1.00  0.00     0.150 C 
HETATM   30  N   UNL     1       1.090   9.344 -25.430  1.00  0.00    -0.377 N 
HETATM   31  C   UNL     1       0.913   7.980 -25.960  1.00  0.00     0.150 C 
HETATM   32  C   UNL     1      -0.544   7.843 -26.448  1.00  0.00     0.254 C 
HETATM   33  H   UNL     1      -0.338   8.623 -28.333  1.00  0.00     0.280 HD
BRANCH  30  34
HETATM   34  C   UNL     1       2.059   9.507 -24.433  1.00  0.00     0.036 A 
HETATM   35  C   UNL     1       3.432   9.356 -24.707  1.00  0.00     0.036 A 
HETATM   36  C   UNL     1       4.421   9.562 -23.731  1.00  0.00    -0.060 A 
HETATM   37  C   UNL     1       5.879   9.469 -24.074  1.00  0.00     0.048 C 
HETATM   38  C   UNL     1       4.034   9.918 -22.441  1.00  0.00     0.007 A 
HETATM   39  C   UNL     1       2.686  10.073 -22.137  1.00  0.00     0.009 A 
HETATM   40  C   UNL     1       1.695   9.901 -23.122  1.00  0.00    -0.035 A 
HETATM   41  C   UNL     1       0.273  10.178 -22.708  1.00  0.00     0.050 C 
ENDBRANCH  30  34
ENDBRANCH  26  27
ENDBRANCH  25  26
ENDBRANCH  24  25
ENDBRANCH   1  24
TORSDOF 7
ENDMDL
MODEL 9
REMARK VINA RESULT:      -9.5      1.911      2.290
REMARK  7 active torsions:
REMARK  status: ('A' for Active; 'I' for Inactive)
REMARK    1  A    between atoms: C_4  and  N_5 
REMARK    2  A    between atoms: N_8  and  C_10 
REMARK    3  A    between atoms: C_10  and  C_11 
REMARK    4  A    between atoms: C_11  and  C_12 
REMARK    5  A    between atoms: C_12  and  N_13 
REMARK       I    between atoms: N_13  and  C_14 
REMARK    6  A    between atoms: C_14  and  C_15 
REMARK    7  A    between atoms: C_21  and  C_22 
ROOT
HETATM    1  N   UNL     1      -7.575   6.528 -31.214  1.00  0.00    -0.357 N 
HETATM    2  C   UNL     1      -7.351   6.376 -29.860  1.00  0.00     0.251 C 
HETATM    3  O   UNL     1      -8.188   5.836 -29.136  1.00  0.00    -0.268 OA
HETATM    4  H   UNL     1      -6.847   6.887 -31.820  1.00  0.00     0.162 HD
ENDROOT
BRANCH   2   5
HETATM    5  C   UNL     1      -6.008   6.762 -29.339  1.00  0.00     0.034 A 
HETATM    6  C   UNL     1      -4.841   6.706 -30.111  1.00  0.00     0.048 A 
HETATM    7  C   UNL     1      -3.591   6.991 -29.536  1.00  0.00     0.053 A 
HETATM    8  C   UNL     1      -3.498   7.346 -28.192  1.00  0.00     0.032 A 
HETATM    9  N   UNL     1      -2.462   6.886 -30.349  1.00  0.00    -0.321 N 
HETATM   10  S   UNL     1      -1.967   7.653 -27.369  1.00  0.00    -0.083 SA
HETATM   11  C   UNL     1      -4.671   7.438 -27.433  1.00  0.00     0.022 A 
HETATM   12  C   UNL     1      -0.816   7.661 -28.655  1.00  0.00     0.074 C 
HETATM   13  C   UNL     1       0.454   8.085 -28.488  1.00  0.00     0.036 C 
HETATM   14  C   UNL     1      -1.167   7.160 -30.023  1.00  0.00     0.263 C 
HETATM   15  O   UNL     1      -0.315   6.997 -30.898  1.00  0.00    -0.267 OA
HETATM   16  C   UNL     1      -5.917   7.152 -27.999  1.00  0.00     0.018 A 
HETATM   17  H   UNL     1      -2.560   6.597 -31.315  1.00  0.00     0.169 HD
BRANCH  13  18
HETATM   18  C   UNL     1       1.027   8.619 -27.247  1.00  0.00    -0.035 A 
HETATM   19  C   UNL     1       0.879   9.974 -26.935  1.00  0.00     0.011 A 
HETATM   20  C   UNL     1       1.436  10.488 -25.762  1.00  0.00     0.001 A 
HETATM   21  C   UNL     1       2.141   9.650 -24.898  1.00  0.00     0.000 A 
HETATM   22  C   UNL     1       2.285   8.297 -25.203  1.00  0.00     0.001 A 
HETATM   23  C   UNL     1       1.729   7.781 -26.374  1.00  0.00     0.011 A 
ENDBRANCH  13  18
ENDBRANCH   2   5
BRANCH   1  24
HETATM   24  C   UNL     1      -8.807   6.098 -31.841  1.00  0.00     0.124 C 
BRANCH  24  25
HETATM   25  C   UNL     1      -8.638   4.815 -32.654  1.00  0.00     0.047 C 
BRANCH  25  26
HETATM   26  C   UNL     1      -7.748   3.732 -32.041  1.00  0.00     0.236 C 
BRANCH  26  27
HETATM   27  N   UNL     1      -7.802   2.412 -32.771  1.00  0.00    -0.068 N 
HETATM   28  C   UNL     1      -6.776   2.319 -33.900  1.00  0.00     0.254 C 
HETATM   29  C   UNL     1      -6.680   0.907 -34.517  1.00  0.00     0.150 C 
HETATM   30  N   UNL     1      -6.480  -0.077 -33.445  1.00  0.00    -0.377 N 
HETATM   31  C   UNL     1      -7.611  -0.114 -32.500  1.00  0.00     0.150 C 
HETATM   32  C   UNL     1      -7.673   1.246 -31.775  1.00  0.00     0.254 C 
HETATM   33  H   UNL     1      -8.766   2.306 -33.148  1.00  0.00     0.280 HD
BRANCH  30  34
HETATM   34  C   UNL     1      -5.873  -1.302 -33.743  1.00  0.00     0.036 A 
HETATM   35  C   UNL     1      -6.565  -2.321 -34.427  1.00  0.00     0.036 A 
HETATM   36  C   UNL     1      -5.958  -3.539 -34.777  1.00  0.00    -0.060 A 
HETATM   37  C   UNL     1      -6.699  -4.573 -35.573  1.00  0.00     0.048 C 
HETATM   38  C   UNL     1      -4.627  -3.755 -34.428  1.00  0.00     0.007 A 
HETATM   39  C   UNL     1      -3.916  -2.770 -33.751  1.00  0.00     0.009 A 
HETATM   40  C   UNL     1      -4.512  -1.536 -33.429  1.00  0.00    -0.035 A 
HETATM   41  C   UNL     1      -3.628  -0.507 -32.774  1.00  0.00     0.050 C 
ENDBRANCH  30  34
ENDBRANCH  26  27
ENDBRANCH  25  26
ENDBRANCH  24  25
ENDBRANCH   1  24
TORSDOF 7
ENDMDL
MODEL 10
REMARK VINA RESULT:      -9.5      2.953     11.454
REMARK  7 active torsions:
REMARK  status: ('A' for Active; 'I' for Inactive)
REMARK    1  A    between atoms: C_4  and  N_5 
REMARK    2  A    between atoms: N_8  and  C_10 
REMARK    3  A    between atoms: C_10  and  C_11 
REMARK    4  A    between atoms: C_11  and  C_12 
REMARK    5  A    between atoms: C_12  and  N_13 
REMARK       I    between atoms: N_13  and  C_14 
REMARK    6  A    between atoms: C_14  and  C_15 
REMARK    7  A    between atoms: C_21  and  C_22 
ROOT
HETATM    1  N   UNL     1      -4.320   6.802 -31.821  1.00  0.00    -0.357 N 
HETATM    2  C   UNL     1      -3.558   5.758 -31.336  1.00  0.00     0.251 C 
HETATM    3  O   UNL     1      -2.718   5.943 -30.455  1.00  0.00    -0.268 OA
HETATM    4  H   UNL     1      -5.073   6.631 -32.477  1.00  0.00     0.162 HD
ENDROOT
BRANCH   2   5
HETATM    5  C   UNL     1      -3.889   4.385 -31.818  1.00  0.00     0.034 A 
HETATM    6  C   UNL     1      -5.024   4.095 -32.585  1.00  0.00     0.048 A 
HETATM    7  C   UNL     1      -5.332   2.768 -32.928  1.00  0.00     0.053 A 
HETATM    8  C   UNL     1      -4.504   1.724 -32.520  1.00  0.00     0.032 A 
HETATM    9  N   UNL     1      -6.494   2.540 -33.665  1.00  0.00    -0.321 N 
HETATM   10  S   UNL     1      -4.849   0.024 -32.845  1.00  0.00    -0.083 SA
HETATM   11  C   UNL     1      -3.350   2.022 -31.786  1.00  0.00     0.022 A 
HETATM   12  C   UNL     1      -6.190   0.087 -33.929  1.00  0.00     0.074 C 
HETATM   13  C   UNL     1      -6.628  -0.996 -34.603  1.00  0.00     0.036 C 
HETATM   14  C   UNL     1      -6.961   1.353 -34.148  1.00  0.00     0.263 C 
HETATM   15  O   UNL     1      -8.020   1.374 -34.779  1.00  0.00    -0.267 OA
HETATM   16  C   UNL     1      -3.040   3.340 -31.439  1.00  0.00     0.018 A 
HETATM   17  H   UNL     1      -7.091   3.317 -33.921  1.00  0.00     0.169 HD
BRANCH  13  18
HETATM   18  C   UNL     1      -6.036  -2.339 -34.554  1.00  0.00    -0.035 A 
HETATM   19  C   UNL     1      -6.800  -3.454 -34.913  1.00  0.00     0.011 A 
HETATM   20  C   UNL     1      -6.244  -4.733 -34.852  1.00  0.00     0.001 A 
HETATM   21  C   UNL     1      -4.924  -4.902 -34.435  1.00  0.00     0.000 A 
HETATM   22  C   UNL     1      -4.157  -3.792 -34.082  1.00  0.00     0.001 A 
HETATM   23  C   UNL     1      -4.711  -2.512 -34.142  1.00  0.00     0.011 A 
ENDBRANCH  13  18
ENDBRANCH   2   5
BRANCH   1  24
HETATM   24  C   UNL     1      -4.148   8.161 -31.351  1.00  0.00     0.124 C 
BRANCH  24  25
HETATM   25  C   UNL     1      -5.112   8.519 -30.220  1.00  0.00     0.047 C 
BRANCH  25  26
HETATM   26  C   UNL     1      -5.070   9.963 -29.718  1.00  0.00     0.236 C 
BRANCH  26  27
HETATM   27  N   UNL     1      -4.107  10.185 -28.577  1.00  0.00    -0.068 N 
HETATM   28  C   UNL     1      -3.911   8.936 -27.719  1.00  0.00     0.254 C 
HETATM   29  C   UNL     1      -2.779   9.088 -26.680  1.00  0.00     0.150 C 
HETATM   30  N   UNL     1      -1.559   9.547 -27.356  1.00  0.00    -0.377 N 
HETATM   31  C   UNL     1      -1.728  10.872 -27.979  1.00  0.00     0.150 C 
HETATM   32  C   UNL     1      -2.772  10.740 -29.106  1.00  0.00     0.254 C 
HETATM   33  H   UNL     1      -4.485  10.966 -28.001  1.00  0.00     0.280 HD
BRANCH  30  34
HETATM   34  C   UNL     1      -0.313   9.283 -26.776  1.00  0.00     0.036 A 
HETATM   35  C   UNL     1       0.012   9.739 -25.483  1.00  0.00     0.036 A 
HETATM   36  C   UNL     1       1.239   9.443 -24.867  1.00  0.00    -0.060 A 
HETATM   37  C   UNL     1       1.524   9.879 -23.459  1.00  0.00     0.048 C 
HETATM   38  C   UNL     1       2.176   8.679 -25.559  1.00  0.00     0.007 A 
HETATM   39  C   UNL     1       1.887   8.215 -26.837  1.00  0.00     0.009 A 
HETATM   40  C   UNL     1       0.645   8.482 -27.444  1.00  0.00    -0.035 A 
HETATM   41  C   UNL     1       0.403   7.858 -28.794  1.00  0.00     0.050 C 
ENDBRANCH  30  34
ENDBRANCH  26  27
ENDBRANCH  25  26
ENDBRANCH  24  25
ENDBRANCH   1  24
TORSDOF 7
ENDMDL
