MODEL 1
REMARK VINA RESULT:      -8.0      0.000      0.000
REMARK  6 active torsions:
REMARK  status: ('A' for Active; 'I' for Inactive)
REMARK    1  A    between atoms: C_3  and  N_4 
REMARK    2  A    between atoms: N_4  and  C_5 
REMARK    3  A    between atoms: C_5  and  C_6 
REMARK    4  A    between atoms: N_8  and  C_10 
REMARK    5  A    between atoms: C_10  and  C_11 
REMARK    6  A    between atoms: C_16  and  O_17 
ROOT
HETATM    1  C   UNL     1      -9.576   1.044 -32.668  1.00  0.00     0.031 C 
HETATM    2  C   UNL     1      -8.998  -0.281 -33.172  1.00  0.00     0.241 C 
HETATM    3  N   UNL     1      -7.503  -0.187 -32.950  1.00  0.00    -0.067 N 
HETATM    4  H   UNL     1      -7.245  -0.964 -32.321  1.00  0.00     0.280 HD
HETATM    5  C   UNL     1      -7.213   1.092 -32.202  1.00  0.00     0.235 C 
HETATM    6  C   UNL     1      -8.559   1.470 -31.609  1.00  0.00     0.035 C 
ENDROOT
BRANCH   3   7
HETATM    7  C   UNL     1      -6.672  -0.406 -34.192  1.00  0.00     0.274 C 
BRANCH   7   8
HETATM    8  C   UNL     1      -6.003  -1.751 -34.241  1.00  0.00    -0.013 A 
HETATM    9  C   UNL     1      -4.704  -1.977 -33.758  1.00  0.00     0.019 A 
HETATM   10 BR   UNL     1      -3.658  -0.576 -33.017  1.00  0.00    -0.051 Br
HETATM   11  C   UNL     1      -4.127  -3.250 -33.825  1.00  0.00     0.022 A 
HETATM   12  C   UNL     1      -4.835  -4.314 -34.385  1.00  0.00     0.038 A 
HETATM   13  C   UNL     1      -6.115  -4.093 -34.873  1.00  0.00     0.066 A 
HETATM   14  C   UNL     1      -6.701  -2.833 -34.803  1.00  0.00     0.046 A 
BRANCH  13  15
HETATM   15  O   UNL     1      -6.851  -5.087 -35.441  1.00  0.00    -0.361 OA
HETATM   16  H   UNL     1      -7.775  -5.018 -35.140  1.00  0.00     0.217 HD
ENDBRANCH  13  15
ENDBRANCH   7   8
ENDBRANCH   3   7
BRANCH   1  17
HETATM   17  C   UNL     1      -9.753   2.099 -33.779  1.00  0.00     0.127 C 
BRANCH  17  18
HETATM   18  N   UNL     1     -10.951   1.805 -34.556  1.00  0.00    -0.376 N 
HETATM   19  H   UNL     1     -10.948   2.255 -35.478  1.00  0.00     0.161 HD
BRANCH  18  20
HETATM   20  C   UNL     1     -12.257   1.772 -34.072  1.00  0.00     0.100 A 
HETATM   21  C   UNL     1     -13.159   0.853 -34.636  1.00  0.00     0.048 A 
HETATM   22  C   UNL     1     -14.466   0.763 -34.163  1.00  0.00     0.005 A 
HETATM   23  C   UNL     1     -14.871   1.582 -33.121  1.00  0.00     0.017 A 
HETATM   24  C   UNL     1     -13.953   2.460 -32.570  1.00  0.00     0.089 A 
HETATM   25  N   UNL     1     -12.695   2.519 -33.045  1.00  0.00    -0.353 N 
HETATM   26  H   UNL     1     -12.065   3.176 -32.601  1.00  0.00     0.166 HD
ENDBRANCH  18  20
ENDBRANCH  17  18
ENDBRANCH   1  17
TORSDOF 6
ENDMDL
MODEL 2
REMARK VINA RESULT:      -7.8      2.082      3.186
REMARK  6 active torsions:
REMARK  status: ('A' for Active; 'I' for Inactive)
REMARK    1  A    between atoms: C_3  and  N_4 
REMARK    2  A    between atoms: N_4  and  C_5 
REMARK    3  A    between atoms: C_5  and  C_6 
REMARK    4  A    between atoms: N_8  and  C_10 
REMARK    5  A    between atoms: C_10  and  C_11 
REMARK    6  A    between atoms: C_16  and  O_17 
ROOT
HETATM    1  C   UNL     1      -6.045   0.467 -30.813  1.00  0.00     0.031 C 
HETATM    2  C   UNL     1      -5.677  -0.838 -31.523  1.00  0.00     0.241 C 
HETATM    3  N   UNL     1      -4.313  -0.601 -32.137  1.00  0.00    -0.067 N 
HETATM    4  H   UNL     1      -3.675  -1.304 -31.729  1.00  0.00     0.280 HD
HETATM    5  C   UNL     1      -3.817   0.750 -31.683  1.00  0.00     0.235 C 
HETATM    6  C   UNL     1      -4.677   1.057 -30.470  1.00  0.00     0.035 C 
ENDROOT
BRANCH   3   7
HETATM    7  C   UNL     1      -4.247  -0.842 -33.626  1.00  0.00     0.274 C 
BRANCH   7   8
HETATM    8  C   UNL     1      -4.870  -2.141 -34.055  1.00  0.00    -0.013 A 
HETATM    9  C   UNL     1      -6.137  -2.220 -34.658  1.00  0.00     0.019 A 
HETATM   10 BR   UNL     1      -7.195  -0.671 -34.960  1.00  0.00    -0.051 Br
HETATM   11  C   UNL     1      -6.671  -3.454 -35.041  1.00  0.00     0.022 A 
HETATM   12  C   UNL     1      -5.953  -4.630 -34.819  1.00  0.00     0.038 A 
HETATM   13  C   UNL     1      -4.707  -4.559 -34.215  1.00  0.00     0.066 A 
HETATM   14  C   UNL     1      -4.163  -3.335 -33.837  1.00  0.00     0.046 A 
BRANCH  13  15
HETATM   15  O   UNL     1      -3.964  -5.670 -33.960  1.00  0.00    -0.361 OA
HETATM   16  H   UNL     1      -4.425  -6.455 -34.308  1.00  0.00     0.217 HD
ENDBRANCH  13  15
ENDBRANCH   7   8
ENDBRANCH   3   7
BRANCH   1  17
HETATM   17  C   UNL     1      -6.901   1.415 -31.676  1.00  0.00     0.127 C 
BRANCH  17  18
HETATM   18  N   UNL     1      -8.281   1.406 -31.206  1.00  0.00    -0.376 N 
HETATM   19  H   UNL     1      -8.455   0.682 -30.500  1.00  0.00     0.161 HD
BRANCH  18  20
HETATM   20  C   UNL     1      -9.420   1.555 -31.994  1.00  0.00     0.100 A 
HETATM   21  C   UNL     1      -9.887   0.443 -32.716  1.00  0.00     0.048 A 
HETATM   22  C   UNL     1     -11.039   0.537 -33.493  1.00  0.00     0.005 A 
HETATM   23  C   UNL     1     -11.730   1.738 -33.543  1.00  0.00     0.017 A 
HETATM   24  C   UNL     1     -11.257   2.809 -32.804  1.00  0.00     0.089 A 
HETATM   25  N   UNL     1     -10.145   2.684 -32.057  1.00  0.00    -0.353 N 
HETATM   26  H   UNL     1      -9.848   3.497 -31.532  1.00  0.00     0.166 HD
ENDBRANCH  18  20
ENDBRANCH  17  18
ENDBRANCH   1  17
TORSDOF 6
ENDMDL
MODEL 3
REMARK VINA RESULT:      -7.8      5.120      7.772
REMARK  6 active torsions:
REMARK  status: ('A' for Active; 'I' for Inactive)
REMARK    1  A    between atoms: C_3  and  N_4 
REMARK    2  A    between atoms: N_4  and  C_5 
REMARK    3  A    between atoms: C_5  and  C_6 
REMARK    4  A    between atoms: N_8  and  C_10 
REMARK    5  A    between atoms: C_10  and  C_11 
REMARK    6  A    between atoms: C_16  and  O_17 
ROOT
HETATM    1  C   UNL     1      -4.694   1.981 -31.576  1.00  0.00     0.031 C 
HETATM    2  C   UNL     1      -5.431   1.052 -32.544  1.00  0.00     0.241 C 
HETATM    3  N   UNL     1      -4.758  -0.298 -32.408  1.00  0.00    -0.067 N 
HETATM    4  H   UNL     1      -5.486  -0.966 -32.104  1.00  0.00     0.280 HD
HETATM    5  C   UNL     1      -3.750  -0.216 -31.288  1.00  0.00     0.235 C 
HETATM    6  C   UNL     1      -4.183   1.013 -30.509  1.00  0.00     0.035 C 
ENDROOT
BRANCH   3   7
HETATM    7  C   UNL     1      -4.233  -0.867 -33.704  1.00  0.00     0.274 C 
BRANCH   7   8
HETATM    8  C   UNL     1      -4.877  -2.167 -34.098  1.00  0.00    -0.013 A 
HETATM    9  C   UNL     1      -6.158  -2.244 -34.670  1.00  0.00     0.019 A 
HETATM   10 BR   UNL     1      -7.208  -0.691 -34.974  1.00  0.00    -0.051 Br
HETATM   11  C   UNL     1      -6.711  -3.480 -35.021  1.00  0.00     0.022 A 
HETATM   12  C   UNL     1      -5.999  -4.659 -34.796  1.00  0.00     0.038 A 
HETATM   13  C   UNL     1      -4.739  -4.589 -34.221  1.00  0.00     0.066 A 
HETATM   14  C   UNL     1      -4.176  -3.364 -33.876  1.00  0.00     0.046 A 
BRANCH  13  15
HETATM   15  O   UNL     1      -4.001  -5.703 -33.965  1.00  0.00    -0.361 OA
HETATM   16  H   UNL     1      -4.561  -6.494 -34.067  1.00  0.00     0.217 HD
ENDBRANCH  13  15
ENDBRANCH   7   8
ENDBRANCH   3   7
BRANCH   1  17
HETATM   17  C   UNL     1      -3.559   2.785 -32.241  1.00  0.00     0.127 C 
BRANCH  17  18
HETATM   18  N   UNL     1      -2.804   3.510 -31.226  1.00  0.00    -0.376 N 
HETATM   19  H   UNL     1      -3.347   3.682 -30.373  1.00  0.00     0.161 HD
BRANCH  18  20
HETATM   20  C   UNL     1      -1.954   4.591 -31.449  1.00  0.00     0.100 A 
HETATM   21  C   UNL     1      -1.868   5.121 -32.747  1.00  0.00     0.048 A 
HETATM   22  C   UNL     1      -1.055   6.221 -33.011  1.00  0.00     0.005 A 
HETATM   23  C   UNL     1      -0.334   6.797 -31.977  1.00  0.00     0.017 A 
HETATM   24  C   UNL     1      -0.457   6.267 -30.704  1.00  0.00     0.089 A 
HETATM   25  N   UNL     1      -1.256   5.208 -30.480  1.00  0.00    -0.353 N 
HETATM   26  H   UNL     1      -1.312   4.864 -29.529  1.00  0.00     0.166 HD
ENDBRANCH  18  20
ENDBRANCH  17  18
ENDBRANCH   1  17
TORSDOF 6
ENDMDL
MODEL 4
REMARK VINA RESULT:      -7.7      5.402      8.061
REMARK  6 active torsions:
REMARK  status: ('A' for Active; 'I' for Inactive)
REMARK    1  A    between atoms: C_3  and  N_4 
REMARK    2  A    between atoms: N_4  and  C_5 
REMARK    3  A    between atoms: C_5  and  C_6 
REMARK    4  A    between atoms: N_8  and  C_10 
REMARK    5  A    between atoms: C_10  and  C_11 
REMARK    6  A    between atoms: C_16  and  O_17 
ROOT
HETATM    1  C   UNL     1      -5.258  -0.163 -31.975  1.00  0.00     0.031 C 
HETATM    2  C   UNL     1      -4.067   0.713 -32.371  1.00  0.00     0.241 C 
HETATM    3  N   UNL     1      -4.298   2.049 -31.694  1.00  0.00    -0.067 N 
HETATM    4  H   UNL     1      -3.489   2.213 -31.073  1.00  0.00     0.280 HD
HETATM    5  C   UNL     1      -5.510   1.926 -30.803  1.00  0.00     0.235 C 
HETATM    6  C   UNL     1      -5.673   0.427 -30.627  1.00  0.00     0.035 C 
ENDROOT
BRANCH   3   7
HETATM    7  C   UNL     1      -4.308   3.231 -32.633  1.00  0.00     0.274 C 
BRANCH   7   8
HETATM    8  C   UNL     1      -3.087   4.100 -32.522  1.00  0.00    -0.013 A 
HETATM    9  C   UNL     1      -2.704   5.012 -33.520  1.00  0.00     0.019 A 
HETATM   10 BR   UNL     1      -3.696   5.204 -35.128  1.00  0.00    -0.051 Br
HETATM   11  C   UNL     1      -1.558   5.800 -33.367  1.00  0.00     0.022 A 
HETATM   12  C   UNL     1      -0.772   5.683 -32.220  1.00  0.00     0.038 A 
HETATM   13  C   UNL     1      -1.140   4.777 -31.237  1.00  0.00     0.066 A 
HETATM   14  C   UNL     1      -2.283   3.994 -31.376  1.00  0.00     0.046 A 
BRANCH  13  15
HETATM   15  O   UNL     1      -0.409   4.607 -30.102  1.00  0.00    -0.361 OA
HETATM   16  H   UNL     1      -0.601   5.333 -29.481  1.00  0.00     0.217 HD
ENDBRANCH  13  15
ENDBRANCH   7   8
ENDBRANCH   3   7
BRANCH   1  17
HETATM   17  C   UNL     1      -6.403  -0.146 -33.008  1.00  0.00     0.127 C 
BRANCH  17  18
HETATM   18  N   UNL     1      -5.990  -0.847 -34.218  1.00  0.00    -0.376 N 
HETATM   19  H   UNL     1      -6.495  -0.529 -35.053  1.00  0.00     0.161 HD
BRANCH  18  20
HETATM   20  C   UNL     1      -5.736  -2.212 -34.332  1.00  0.00     0.100 A 
HETATM   21  C   UNL     1      -6.788  -3.061 -34.716  1.00  0.00     0.048 A 
HETATM   22  C   UNL     1      -6.573  -4.428 -34.872  1.00  0.00     0.005 A 
HETATM   23  C   UNL     1      -5.307  -4.947 -34.654  1.00  0.00     0.017 A 
HETATM   24  C   UNL     1      -4.285  -4.082 -34.299  1.00  0.00     0.089 A 
HETATM   25  N   UNL     1      -4.524  -2.765 -34.163  1.00  0.00    -0.353 N 
HETATM   26  H   UNL     1      -3.739  -2.178 -33.907  1.00  0.00     0.166 HD
ENDBRANCH  18  20
ENDBRANCH  17  18
ENDBRANCH   1  17
TORSDOF 6
ENDMDL
MODEL 5
REMARK VINA RESULT:      -7.6      4.105      6.753
REMARK  6 active torsions:
REMARK  status: ('A' for Active; 'I' for Inactive)
REMARK    1  A    between atoms: C_3  and  N_4 
REMARK    2  A    between atoms: N_4  and  C_5 
REMARK    3  A    between atoms: C_5  and  C_6 
REMARK    4  A    between atoms: N_8  and  C_10 
REMARK    5  A    between atoms: C_10  and  C_11 
REMARK    6  A    between atoms: C_16  and  O_17 
ROOT
HETATM    1  C   UNL     1      -6.066   1.786 -30.880  1.00  0.00     0.031 C 
HETATM    2  C   UNL     1      -6.672   1.816 -32.286  1.00  0.00     0.241 C 
HETATM    3  N   UNL     1      -6.783   0.369 -32.716  1.00  0.00    -0.067 N 
HETATM    4  H   UNL     1      -7.784   0.188 -32.902  1.00  0.00     0.280 HD
HETATM    5  C   UNL     1      -6.395  -0.505 -31.548  1.00  0.00     0.235 C 
HETATM    6  C   UNL     1      -6.516   0.424 -30.353  1.00  0.00     0.035 C 
ENDROOT
BRANCH   3   7
HETATM    7  C   UNL     1      -6.087   0.048 -34.017  1.00  0.00     0.274 C 
BRANCH   7   8
HETATM    8  C   UNL     1      -5.665  -1.389 -34.138  1.00  0.00    -0.013 A 
HETATM    9  C   UNL     1      -4.397  -1.850 -33.746  1.00  0.00     0.019 A 
HETATM   10 BR   UNL     1      -3.081  -0.672 -33.046  1.00  0.00    -0.051 Br
HETATM   11  C   UNL     1      -4.055  -3.200 -33.877  1.00  0.00     0.022 A 
HETATM   12  C   UNL     1      -4.969  -4.109 -34.412  1.00  0.00     0.038 A 
HETATM   13  C   UNL     1      -6.218  -3.657 -34.810  1.00  0.00     0.066 A 
HETATM   14  C   UNL     1      -6.572  -2.317 -34.676  1.00  0.00     0.046 A 
BRANCH  13  15
HETATM   15  O   UNL     1      -7.149  -4.490 -35.349  1.00  0.00    -0.361 OA
HETATM   16  H   UNL     1      -6.820  -5.407 -35.317  1.00  0.00     0.217 HD
ENDBRANCH  13  15
ENDBRANCH   7   8
ENDBRANCH   3   7
BRANCH   1  17
HETATM   17  C   UNL     1      -4.533   1.949 -30.869  1.00  0.00     0.127 C 
BRANCH  17  18
HETATM   18  N   UNL     1      -4.185   3.365 -30.838  1.00  0.00    -0.376 N 
HETATM   19  H   UNL     1      -5.007   3.977 -30.857  1.00  0.00     0.161 HD
BRANCH  18  20
HETATM   20  C   UNL     1      -3.149   3.973 -31.544  1.00  0.00     0.100 A 
HETATM   21  C   UNL     1      -3.194   3.956 -32.949  1.00  0.00     0.048 A 
HETATM   22  C   UNL     1      -2.196   4.578 -33.696  1.00  0.00     0.005 A 
HETATM   23  C   UNL     1      -1.159   5.224 -33.042  1.00  0.00     0.017 A 
HETATM   24  C   UNL     1      -1.155   5.243 -31.658  1.00  0.00     0.089 A 
HETATM   25  N   UNL     1      -2.137   4.640 -30.964  1.00  0.00    -0.353 N 
HETATM   26  H   UNL     1      -2.086   4.689 -29.954  1.00  0.00     0.166 HD
ENDBRANCH  18  20
ENDBRANCH  17  18
ENDBRANCH   1  17
TORSDOF 6
ENDMDL
MODEL 6
REMARK VINA RESULT:      -7.5      3.106      5.524
REMARK  6 active torsions:
REMARK  status: ('A' for Active; 'I' for Inactive)
REMARK    1  A    between atoms: C_3  and  N_4 
REMARK    2  A    between atoms: N_4  and  C_5 
REMARK    3  A    between atoms: C_5  and  C_6 
REMARK    4  A    between atoms: N_8  and  C_10 
REMARK    5  A    between atoms: C_10  and  C_11 
REMARK    6  A    between atoms: C_16  and  O_17 
ROOT
HETATM    1  C   UNL     1      -8.426   2.075 -32.636  1.00  0.00     0.031 C 
HETATM    2  C   UNL     1      -8.264   1.352 -33.975  1.00  0.00     0.241 C 
HETATM    3  N   UNL     1      -7.554   0.052 -33.655  1.00  0.00    -0.067 N 
HETATM    4  H   UNL     1      -8.178  -0.712 -33.962  1.00  0.00     0.280 HD
HETATM    5  C   UNL     1      -7.431  -0.065 -32.156  1.00  0.00     0.235 C 
HETATM    6  C   UNL     1      -8.462   0.921 -31.636  1.00  0.00     0.035 C 
ENDROOT
BRANCH   3   7
HETATM    7  C   UNL     1      -6.274  -0.166 -34.424  1.00  0.00     0.274 C 
BRANCH   7   8
HETATM    8  C   UNL     1      -5.757  -1.575 -34.348  1.00  0.00    -0.013 A 
HETATM    9  C   UNL     1      -4.525  -1.908 -33.759  1.00  0.00     0.019 A 
HETATM   10 BR   UNL     1      -3.382  -0.582 -33.023  1.00  0.00    -0.051 Br
HETATM   11  C   UNL     1      -4.091  -3.237 -33.712  1.00  0.00     0.022 A 
HETATM   12  C   UNL     1      -4.874  -4.253 -34.262  1.00  0.00     0.038 A 
HETATM   13  C   UNL     1      -6.085  -3.928 -34.855  1.00  0.00     0.066 A 
HETATM   14  C   UNL     1      -6.530  -2.610 -34.899  1.00  0.00     0.046 A 
BRANCH  13  15
HETATM   15  O   UNL     1      -6.887  -4.871 -35.419  1.00  0.00    -0.361 OA
HETATM   16  H   UNL     1      -7.798  -4.530 -35.476  1.00  0.00     0.217 HD
ENDBRANCH  13  15
ENDBRANCH   7   8
ENDBRANCH   3   7
BRANCH   1  17
HETATM   17  C   UNL     1      -7.296   3.082 -32.341  1.00  0.00     0.127 C 
BRANCH  17  18
HETATM   18  N   UNL     1      -6.603   3.426 -33.577  1.00  0.00    -0.376 N 
HETATM   19  H   UNL     1      -6.765   2.746 -34.327  1.00  0.00     0.161 HD
BRANCH  18  20
HETATM   20  C   UNL     1      -5.302   3.916 -33.681  1.00  0.00     0.100 A 
HETATM   21  C   UNL     1      -4.322   3.408 -32.812  1.00  0.00     0.048 A 
HETATM   22  C   UNL     1      -3.002   3.845 -32.901  1.00  0.00     0.005 A 
HETATM   23  C   UNL     1      -2.660   4.783 -33.861  1.00  0.00     0.017 A 
HETATM   24  C   UNL     1      -3.643   5.248 -34.718  1.00  0.00     0.089 A 
HETATM   25  N   UNL     1      -4.907   4.801 -34.612  1.00  0.00    -0.353 N 
HETATM   26  H   UNL     1      -5.585   5.171 -35.267  1.00  0.00     0.166 HD
ENDBRANCH  18  20
ENDBRANCH  17  18
ENDBRANCH   1  17
TORSDOF 6
ENDMDL
MODEL 7
REMARK VINA RESULT:      -7.4      3.015      7.190
REMARK  6 active torsions:
REMARK  status: ('A' for Active; 'I' for Inactive)
REMARK    1  A    between atoms: C_3  and  N_4 
REMARK    2  A    between atoms: N_4  and  C_5 
REMARK    3  A    between atoms: C_5  and  C_6 
REMARK    4  A    between atoms: N_8  and  C_10 
REMARK    5  A    between atoms: C_10  and  C_11 
REMARK    6  A    between atoms: C_16  and  O_17 
ROOT
HETATM    1  C   UNL     1      -7.086   2.901 -31.806  1.00  0.00     0.031 C 
HETATM    2  C   UNL     1      -7.866   3.114 -33.106  1.00  0.00     0.241 C 
HETATM    3  N   UNL     1      -9.236   2.516 -32.864  1.00  0.00    -0.067 N 
HETATM    4  H   UNL     1      -9.922   3.279 -32.991  1.00  0.00     0.280 HD
HETATM    5  C   UNL     1      -9.321   2.093 -31.418  1.00  0.00     0.235 C 
HETATM    6  C   UNL     1      -8.194   2.864 -30.754  1.00  0.00     0.035 C 
ENDROOT
BRANCH   3   7
HETATM    7  C   UNL     1      -9.644   1.463 -33.866  1.00  0.00     0.274 C 
BRANCH   7   8
HETATM    8  C   UNL     1     -11.131   1.356 -34.058  1.00  0.00    -0.013 A 
HETATM    9  C   UNL     1     -11.891   2.340 -34.711  1.00  0.00     0.019 A 
HETATM   10 BR   UNL     1     -11.095   3.926 -35.391  1.00  0.00    -0.051 Br
HETATM   11  C   UNL     1     -13.273   2.191 -34.866  1.00  0.00     0.022 A 
HETATM   12  C   UNL     1     -13.919   1.062 -34.363  1.00  0.00     0.038 A 
HETATM   13  C   UNL     1     -13.175   0.092 -33.708  1.00  0.00     0.066 A 
HETATM   14  C   UNL     1     -11.798   0.227 -33.556  1.00  0.00     0.046 A 
BRANCH  13  15
HETATM   15  O   UNL     1     -13.748  -1.026 -33.184  1.00  0.00    -0.361 OA
HETATM   16  H   UNL     1     -14.222  -0.793 -32.365  1.00  0.00     0.217 HD
ENDBRANCH  13  15
ENDBRANCH   7   8
ENDBRANCH   3   7
BRANCH   1  17
HETATM   17  C   UNL     1      -6.227   1.620 -31.808  1.00  0.00     0.127 C 
BRANCH  17  18
HETATM   18  N   UNL     1      -5.980   1.191 -33.180  1.00  0.00    -0.376 N 
HETATM   19  H   UNL     1      -6.550   1.699 -33.865  1.00  0.00     0.161 HD
BRANCH  18  20
HETATM   20  C   UNL     1      -5.812  -0.123 -33.613  1.00  0.00     0.100 A 
HETATM   21  C   UNL     1      -6.910  -0.785 -34.187  1.00  0.00     0.048 A 
HETATM   22  C   UNL     1      -6.781  -2.089 -34.662  1.00  0.00     0.005 A 
HETATM   23  C   UNL     1      -5.555  -2.727 -34.572  1.00  0.00     0.017 A 
HETATM   24  C   UNL     1      -4.486  -2.040 -34.022  1.00  0.00     0.089 A 
HETATM   25  N   UNL     1      -4.641  -0.779 -33.579  1.00  0.00    -0.353 N 
HETATM   26  H   UNL     1      -3.824  -0.323 -33.191  1.00  0.00     0.166 HD
ENDBRANCH  18  20
ENDBRANCH  17  18
ENDBRANCH   1  17
TORSDOF 6
ENDMDL
MODEL 8
REMARK VINA RESULT:      -7.4      5.376      8.133
REMARK  6 active torsions:
REMARK  status: ('A' for Active; 'I' for Inactive)
REMARK    1  A    between atoms: C_3  and  N_4 
REMARK    2  A    between atoms: N_4  and  C_5 
REMARK    3  A    between atoms: C_5  and  C_6 
REMARK    4  A    between atoms: N_8  and  C_10 
REMARK    5  A    between atoms: C_10  and  C_11 
REMARK    6  A    between atoms: C_16  and  O_17 
ROOT
HETATM    1  C   UNL     1      -4.944   0.864 -31.581  1.00  0.00     0.031 C 
HETATM    2  C   UNL     1      -3.956   1.799 -32.281  1.00  0.00     0.241 C 
HETATM    3  N   UNL     1      -4.278   3.190 -31.775  1.00  0.00    -0.067 N 
HETATM    4  H   UNL     1      -3.422   3.548 -31.320  1.00  0.00     0.280 HD
HETATM    5  C   UNL     1      -5.326   3.071 -30.695  1.00  0.00     0.235 C 
HETATM    6  C   UNL     1      -5.249   1.612 -30.283  1.00  0.00     0.035 C 
ENDROOT
BRANCH   3   7
HETATM    7  C   UNL     1      -4.584   4.194 -32.860  1.00  0.00     0.274 C 
BRANCH   7   8
HETATM    8  C   UNL     1      -3.431   5.100 -33.188  1.00  0.00    -0.013 A 
HETATM    9  C   UNL     1      -3.171   6.292 -32.491  1.00  0.00     0.019 A 
HETATM   10 BR   UNL     1      -4.289   6.880 -31.072  1.00  0.00    -0.051 Br
HETATM   11  C   UNL     1      -2.081   7.099 -32.835  1.00  0.00     0.022 A 
HETATM   12  C   UNL     1      -1.240   6.734 -33.886  1.00  0.00     0.038 A 
HETATM   13  C   UNL     1      -1.499   5.564 -34.585  1.00  0.00     0.066 A 
HETATM   14  C   UNL     1      -2.575   4.749 -34.245  1.00  0.00     0.046 A 
BRANCH  13  15
HETATM   15  O   UNL     1      -0.723   5.160 -35.627  1.00  0.00    -0.361 OA
HETATM   16  H   UNL     1      -0.226   4.362 -35.372  1.00  0.00     0.217 HD
ENDBRANCH  13  15
ENDBRANCH   7   8
ENDBRANCH   3   7
BRANCH   1  17
HETATM   17  C   UNL     1      -6.212   0.577 -32.411  1.00  0.00     0.127 C 
BRANCH  17  18
HETATM   18  N   UNL     1      -5.840   0.032 -33.711  1.00  0.00    -0.376 N 
HETATM   19  H   UNL     1      -6.307   0.508 -34.491  1.00  0.00     0.161 HD
BRANCH  18  20
HETATM   20  C   UNL     1      -5.693  -1.318 -34.026  1.00  0.00     0.100 A 
HETATM   21  C   UNL     1      -6.826  -2.037 -34.443  1.00  0.00     0.048 A 
HETATM   22  C   UNL     1      -6.721  -3.380 -34.797  1.00  0.00     0.005 A 
HETATM   23  C   UNL     1      -5.484  -4.003 -34.744  1.00  0.00     0.017 A 
HETATM   24  C   UNL     1      -4.382  -3.261 -34.351  1.00  0.00     0.089 A 
HETATM   25  N   UNL     1      -4.515  -1.964 -34.022  1.00  0.00    -0.353 N 
HETATM   26  H   UNL     1      -3.676  -1.469 -33.747  1.00  0.00     0.166 HD
ENDBRANCH  18  20
ENDBRANCH  17  18
ENDBRANCH   1  17
TORSDOF 6
ENDMDL
MODEL 9
REMARK VINA RESULT:      -7.3      2.197      2.580
REMARK  6 active torsions:
REMARK  status: ('A' for Active; 'I' for Inactive)
REMARK    1  A    between atoms: C_3  and  N_4 
REMARK    2  A    between atoms: N_4  and  C_5 
REMARK    3  A    between atoms: C_5  and  C_6 
REMARK    4  A    between atoms: N_8  and  C_10 
REMARK    5  A    between atoms: C_10  and  C_11 
REMARK    6  A    between atoms: C_16  and  O_17 
ROOT
HETATM    1  C   UNL     1      -8.457   1.117 -33.302  1.00  0.00     0.031 C 
HETATM    2  C   UNL     1      -7.939  -0.289 -32.985  1.00  0.00     0.241 C 
HETATM    3  N   UNL     1      -6.489  -0.299 -33.421  1.00  0.00    -0.067 N 
HETATM    4  H   UNL     1      -5.927  -0.517 -32.581  1.00  0.00     0.280 HD
HETATM    5  C   UNL     1      -6.111   1.098 -33.846  1.00  0.00     0.235 C 
HETATM    6  C   UNL     1      -7.188   1.965 -33.219  1.00  0.00     0.035 C 
ENDROOT
BRANCH   3   7
HETATM    7  C   UNL     1      -6.141  -1.387 -34.408  1.00  0.00     0.274 C 
BRANCH   7   8
HETATM    8  C   UNL     1      -5.147  -2.384 -33.883  1.00  0.00    -0.013 A 
HETATM    9  C   UNL     1      -5.118  -3.727 -34.296  1.00  0.00     0.019 A 
HETATM   10 BR   UNL     1      -6.370  -4.411 -35.550  1.00  0.00    -0.051 Br
HETATM   11  C   UNL     1      -4.169  -4.614 -33.777  1.00  0.00     0.022 A 
HETATM   12  C   UNL     1      -3.241  -4.178 -32.831  1.00  0.00     0.038 A 
HETATM   13  C   UNL     1      -3.272  -2.856 -32.412  1.00  0.00     0.066 A 
HETATM   14  C   UNL     1      -4.207  -1.963 -32.928  1.00  0.00     0.046 A 
BRANCH  13  15
HETATM   15  O   UNL     1      -2.403  -2.373 -31.483  1.00  0.00    -0.361 OA
HETATM   16  H   UNL     1      -2.754  -1.543 -31.111  1.00  0.00     0.217 HD
ENDBRANCH  13  15
ENDBRANCH   7   8
ENDBRANCH   3   7
BRANCH   1  17
HETATM   17  C   UNL     1      -9.152   1.220 -34.674  1.00  0.00     0.127 C 
BRANCH  17  18
HETATM   18  N   UNL     1     -10.413   1.941 -34.539  1.00  0.00    -0.376 N 
HETATM   19  H   UNL     1     -10.316   2.815 -34.011  1.00  0.00     0.161 HD
BRANCH  18  20
HETATM   20  C   UNL     1     -11.656   1.377 -34.262  1.00  0.00     0.100 A 
HETATM   21  C   UNL     1     -12.807   2.012 -34.761  1.00  0.00     0.048 A 
HETATM   22  C   UNL     1     -14.069   1.468 -34.535  1.00  0.00     0.005 A 
HETATM   23  C   UNL     1     -14.183   0.286 -33.820  1.00  0.00     0.017 A 
HETATM   24  C   UNL     1     -13.029  -0.327 -33.361  1.00  0.00     0.089 A 
HETATM   25  N   UNL     1     -11.824   0.220 -33.601  1.00  0.00    -0.353 N 
HETATM   26  H   UNL     1     -11.014  -0.274 -33.247  1.00  0.00     0.166 HD
ENDBRANCH  18  20
ENDBRANCH  17  18
ENDBRANCH   1  17
TORSDOF 6
ENDMDL
MODEL 10
REMARK VINA RESULT:      -7.1      3.295      7.689
REMARK  6 active torsions:
REMARK  status: ('A' for Active; 'I' for Inactive)
REMARK    1  A    between atoms: C_3  and  N_4 
REMARK    2  A    between atoms: N_4  and  C_5 
REMARK    3  A    between atoms: C_5  and  C_6 
REMARK    4  A    between atoms: N_8  and  C_10 
REMARK    5  A    between atoms: C_10  and  C_11 
REMARK    6  A    between atoms: C_16  and  O_17 
ROOT
HETATM    1  C   UNL     1      -5.919   1.382 -32.880  1.00  0.00     0.031 C 
HETATM    2  C   UNL     1      -7.229   1.810 -33.545  1.00  0.00     0.241 C 
HETATM    3  N   UNL     1      -8.160   2.188 -32.412  1.00  0.00    -0.067 N 
HETATM    4  H   UNL     1      -8.421   3.177 -32.557  1.00  0.00     0.280 HD
HETATM    5  C   UNL     1      -7.382   2.130 -31.119  1.00  0.00     0.235 C 
HETATM    6  C   UNL     1      -5.934   2.174 -31.573  1.00  0.00     0.035 C 
ENDROOT
BRANCH   3   7
HETATM    7  C   UNL     1      -9.472   1.441 -32.406  1.00  0.00     0.274 C 
BRANCH   7   8
HETATM    8  C   UNL     1     -10.576   2.155 -33.133  1.00  0.00    -0.013 A 
HETATM    9  C   UNL     1     -11.228   3.287 -32.615  1.00  0.00     0.019 A 
HETATM   10 BR   UNL     1     -10.780   4.002 -30.913  1.00  0.00    -0.051 Br
HETATM   11  C   UNL     1     -12.249   3.916 -33.334  1.00  0.00     0.022 A 
HETATM   12  C   UNL     1     -12.643   3.420 -34.578  1.00  0.00     0.038 A 
HETATM   13  C   UNL     1     -12.010   2.297 -35.089  1.00  0.00     0.066 A 
HETATM   14  C   UNL     1     -10.987   1.668 -34.385  1.00  0.00     0.046 A 
BRANCH  13  15
HETATM   15  O   UNL     1     -12.356   1.759 -36.290  1.00  0.00    -0.361 OA
HETATM   16  H   UNL     1     -12.651   2.467 -36.890  1.00  0.00     0.217 HD
ENDBRANCH  13  15
ENDBRANCH   7   8
ENDBRANCH   3   7
BRANCH   1  17
HETATM   17  C   UNL     1      -5.815  -0.139 -32.651  1.00  0.00     0.127 C 
BRANCH  17  18
HETATM   18  N   UNL     1      -5.361  -0.795 -33.871  1.00  0.00    -0.376 N 
HETATM   19  H   UNL     1      -5.616  -0.278 -34.719  1.00  0.00     0.161 HD
BRANCH  18  20
HETATM   20  C   UNL     1      -5.414  -2.162 -34.139  1.00  0.00     0.100 A 
HETATM   21  C   UNL     1      -6.601  -2.697 -34.666  1.00  0.00     0.048 A 
HETATM   22  C   UNL     1      -6.690  -4.052 -34.977  1.00  0.00     0.005 A 
HETATM   23  C   UNL     1      -5.590  -4.870 -34.772  1.00  0.00     0.017 A 
HETATM   24  C   UNL     1      -4.427  -4.309 -34.273  1.00  0.00     0.089 A 
HETATM   25  N   UNL     1      -4.371  -2.996 -33.989  1.00  0.00    -0.353 N 
HETATM   26  H   UNL     1      -3.494  -2.638 -33.632  1.00  0.00     0.166 HD
ENDBRANCH  18  20
ENDBRANCH  17  18
ENDBRANCH   1  17
TORSDOF 6
ENDMDL
