MODEL 1
REMARK VINA RESULT:      -9.3      0.000      0.000
REMARK  6 active torsions:
REMARK  status: ('A' for Active; 'I' for Inactive)
REMARK    1  A    between atoms: C_2  and  O_3 
REMARK    2  A    between atoms: C_2  and  C_10 
REMARK    3  A    between atoms: O_3  and  C_4 
REMARK       I    between atoms: C_10  and  N_11 
REMARK    4  A    between atoms: N_11  and  C_12 
REMARK    5  A    between atoms: N_13  and  C_14 
REMARK    6  A    between atoms: C_26  and  C_27 
ROOT
HETATM    1  C   UNL     1      -4.846   4.393 -31.851  1.00  0.00     0.152 A 
HETATM    2  N   UNL     1      -4.014   3.290 -31.984  1.00  0.00    -0.044 N 
HETATM    3  N   UNL     1      -2.715   3.572 -31.674  1.00  0.00    -0.150 NA
HETATM    4  C   UNL     1      -2.728   4.874 -31.359  1.00  0.00     0.099 A 
HETATM    5  C   UNL     1      -4.025   5.426 -31.456  1.00  0.00     0.086 A 
ENDROOT
BRANCH   1   6
HETATM    6  N   UNL     1      -6.210   4.329 -32.111  1.00  0.00    -0.309 N 
HETATM    7  C   UNL     1      -6.774   4.731 -33.315  1.00  0.00     0.252 C 
HETATM    8  O   UNL     1      -6.127   5.170 -34.264  1.00  0.00    -0.270 OA
HETATM    9  H   UNL     1      -6.779   3.852 -31.412  1.00  0.00     0.170 HD
BRANCH   7  10
HETATM   10  C   UNL     1      -8.324   4.607 -33.350  1.00  0.00     0.217 C 
HETATM   11  C   UNL     1      -8.998   5.979 -33.292  1.00  0.00     0.050 C 
BRANCH  10  12
HETATM   12  O   UNL     1      -8.850   3.889 -32.229  1.00  0.00    -0.337 OA
BRANCH  12  13
HETATM   13  C   UNL     1      -9.232   2.600 -32.475  1.00  0.00     0.070 A 
HETATM   14  C   UNL     1      -8.749   1.635 -31.591  1.00  0.00     0.037 A 
HETATM   15  C   UNL     1      -9.131   0.302 -31.729  1.00  0.00     0.003 A 
HETATM   16  C   UNL     1     -10.015  -0.066 -32.743  1.00  0.00     0.000 A 
HETATM   17  C   UNL     1     -10.519   0.904 -33.611  1.00  0.00     0.003 A 
HETATM   18  C   UNL     1     -10.137   2.240 -33.472  1.00  0.00     0.037 A 
ENDBRANCH  12  13
ENDBRANCH  10  12
ENDBRANCH   7  10
ENDBRANCH   1   6
BRANCH   2  19
HETATM   19  C   UNL     1      -4.356   1.998 -32.432  1.00  0.00     0.732 A 
HETATM   20  N   UNL     1      -5.405   1.748 -33.153  1.00  0.00    -0.067 NA
HETATM   21  C   UNL     1      -5.573   0.435 -33.541  1.00  0.00     0.065 A 
HETATM   22  C   UNL     1      -4.729  -0.564 -33.219  1.00  0.00     0.036 A 
HETATM   23  C   UNL     1      -6.784   0.176 -34.409  1.00  0.00     0.060 C 
HETATM   24  C   UNL     1      -4.900  -1.994 -33.643  1.00  0.00     0.046 C 
HETATM   25  C   UNL     1      -3.543  -0.237 -32.390  1.00  0.00     0.268 A 
HETATM   26  C   UNL     1      -6.287  -2.284 -34.220  1.00  0.00     0.005 C 
HETATM   27  C   UNL     1      -6.739  -1.164 -35.148  1.00  0.00     0.006 C 
HETATM   28  O   UNL     1      -2.716  -1.080 -32.064  1.00  0.00    -0.267 OA
HETATM   29  N   UNL     1      -3.440   1.068 -32.029  1.00  0.00    -0.152 N 
HETATM   30  H   UNL     1      -2.643   1.366 -31.475  1.00  0.00     0.188 HD
ENDBRANCH   2  19
BRANCH   4  31
HETATM   31  C   UNL     1      -1.478   5.603 -30.959  1.00  0.00     0.035 A 
HETATM   32  S   UNL     1      -1.412   6.830 -29.770  1.00  0.00    -0.100 SA
HETATM   33  C   UNL     1       0.271   7.045 -29.991  1.00  0.00     0.050 A 
HETATM   34  C   UNL     1       0.776   6.200 -30.954  1.00  0.00     0.008 A 
HETATM   35  C   UNL     1      -0.236   5.364 -31.513  1.00  0.00     0.022 A 
ENDBRANCH   4  31
TORSDOF 6
ENDMDL
MODEL 2
REMARK VINA RESULT:      -9.3      1.526      5.215
REMARK  6 active torsions:
REMARK  status: ('A' for Active; 'I' for Inactive)
REMARK    1  A    between atoms: C_2  and  O_3 
REMARK    2  A    between atoms: C_2  and  C_10 
REMARK    3  A    between atoms: O_3  and  C_4 
REMARK       I    between atoms: C_10  and  N_11 
REMARK    4  A    between atoms: N_11  and  C_12 
REMARK    5  A    between atoms: N_13  and  C_14 
REMARK    6  A    between atoms: C_26  and  C_27 
ROOT
HETATM    1  C   UNL     1      -3.916   2.379 -32.315  1.00  0.00     0.152 A 
HETATM    2  N   UNL     1      -4.910   3.312 -32.573  1.00  0.00    -0.044 N 
HETATM    3  N   UNL     1      -4.504   4.592 -32.331  1.00  0.00    -0.150 NA
HETATM    4  C   UNL     1      -3.243   4.460 -31.898  1.00  0.00     0.099 A 
HETATM    5  C   UNL     1      -2.836   3.107 -31.869  1.00  0.00     0.086 A 
ENDROOT
BRANCH   1   6
HETATM    6  N   UNL     1      -4.113   1.015 -32.499  1.00  0.00    -0.309 N 
HETATM    7  C   UNL     1      -3.421   0.045 -31.785  1.00  0.00     0.252 C 
HETATM    8  O   UNL     1      -2.582   0.294 -30.921  1.00  0.00    -0.270 OA
HETATM    9  H   UNL     1      -4.888   0.750 -33.106  1.00  0.00     0.170 HD
BRANCH   7  10
HETATM   10  C   UNL     1      -3.781  -1.411 -32.200  1.00  0.00     0.217 C 
HETATM   11  C   UNL     1      -2.732  -2.410 -31.709  1.00  0.00     0.050 C 
BRANCH  10  12
HETATM   12  O   UNL     1      -3.825  -1.589 -33.620  1.00  0.00    -0.337 OA
BRANCH  12  13
HETATM   13  C   UNL     1      -4.856  -2.351 -34.092  1.00  0.00     0.070 A 
HETATM   14  C   UNL     1      -4.538  -3.660 -34.455  1.00  0.00     0.037 A 
HETATM   15  C   UNL     1      -5.536  -4.529 -34.894  1.00  0.00     0.003 A 
HETATM   16  C   UNL     1      -6.860  -4.094 -34.953  1.00  0.00     0.000 A 
HETATM   17  C   UNL     1      -7.182  -2.792 -34.564  1.00  0.00     0.003 A 
HETATM   18  C   UNL     1      -6.182  -1.922 -34.124  1.00  0.00     0.037 A 
ENDBRANCH  12  13
ENDBRANCH  10  12
ENDBRANCH   7  10
ENDBRANCH   1   6
BRANCH   2  19
HETATM   19  C   UNL     1      -6.236   3.071 -32.988  1.00  0.00     0.732 A 
HETATM   20  N   UNL     1      -6.835   1.931 -32.833  1.00  0.00    -0.067 NA
HETATM   21  C   UNL     1      -8.145   1.875 -33.258  1.00  0.00     0.065 A 
HETATM   22  C   UNL     1      -8.810   2.911 -33.807  1.00  0.00     0.036 A 
HETATM   23  C   UNL     1      -8.833   0.546 -33.035  1.00  0.00     0.060 C 
HETATM   24  C   UNL     1     -10.238   2.860 -34.266  1.00  0.00     0.046 C 
HETATM   25  C   UNL     1      -8.088   4.196 -33.970  1.00  0.00     0.268 A 
HETATM   26  C   UNL     1     -10.791   1.435 -34.342  1.00  0.00     0.005 C 
HETATM   27  C   UNL     1     -10.358   0.615 -33.133  1.00  0.00     0.006 C 
HETATM   28  O   UNL     1      -8.619   5.193 -34.444  1.00  0.00    -0.267 OA
HETATM   29  N   UNL     1      -6.798   4.184 -33.545  1.00  0.00    -0.152 N 
HETATM   30  H   UNL     1      -6.249   5.036 -33.611  1.00  0.00     0.188 HD
ENDBRANCH   2  19
BRANCH   4  31
HETATM   31  C   UNL     1      -2.414   5.648 -31.503  1.00  0.00     0.035 A 
HETATM   32  S   UNL     1      -2.930   6.873 -30.429  1.00  0.00    -0.100 SA
HETATM   33  C   UNL     1      -1.453   7.722 -30.583  1.00  0.00     0.050 A 
HETATM   34  C   UNL     1      -0.580   7.087 -31.438  1.00  0.00     0.008 A 
HETATM   35  C   UNL     1      -1.136   5.885 -31.969  1.00  0.00     0.022 A 
ENDBRANCH   4  31
TORSDOF 6
ENDMDL
MODEL 3
REMARK VINA RESULT:      -9.2      2.982      7.721
REMARK  6 active torsions:
REMARK  status: ('A' for Active; 'I' for Inactive)
REMARK    1  A    between atoms: C_2  and  O_3 
REMARK    2  A    between atoms: C_2  and  C_10 
REMARK    3  A    between atoms: O_3  and  C_4 
REMARK       I    between atoms: C_10  and  N_11 
REMARK    4  A    between atoms: N_11  and  C_12 
REMARK    5  A    between atoms: N_13  and  C_14 
REMARK    6  A    between atoms: C_26  and  C_27 
ROOT
HETATM    1  C   UNL     1      -7.085   1.273 -33.617  1.00  0.00     0.152 A 
HETATM    2  N   UNL     1      -6.937   2.653 -33.645  1.00  0.00    -0.044 N 
HETATM    3  N   UNL     1      -8.111   3.302 -33.896  1.00  0.00    -0.150 NA
HETATM    4  C   UNL     1      -9.005   2.315 -34.047  1.00  0.00     0.099 A 
HETATM    5  C   UNL     1      -8.415   1.041 -33.885  1.00  0.00     0.086 A 
ENDROOT
BRANCH   1   6
HETATM    6  N   UNL     1      -6.017   0.418 -33.372  1.00  0.00    -0.309 N 
HETATM    7  C   UNL     1      -5.817  -0.218 -32.153  1.00  0.00     0.252 C 
HETATM    8  O   UNL     1      -6.562  -0.094 -31.183  1.00  0.00    -0.270 OA
HETATM    9  H   UNL     1      -5.441   0.174 -34.178  1.00  0.00     0.170 HD
BRANCH   7  10
HETATM   10  C   UNL     1      -4.529  -1.089 -32.107  1.00  0.00     0.217 C 
HETATM   11  C   UNL     1      -3.376  -0.350 -31.427  1.00  0.00     0.050 C 
BRANCH  10  12
HETATM   12  O   UNL     1      -4.038  -1.424 -33.410  1.00  0.00    -0.337 OA
BRANCH  12  13
HETATM   13  C   UNL     1      -4.439  -2.633 -33.904  1.00  0.00     0.070 A 
HETATM   14  C   UNL     1      -3.743  -3.749 -33.443  1.00  0.00     0.037 A 
HETATM   15  C   UNL     1      -4.119  -5.029 -33.849  1.00  0.00     0.003 A 
HETATM   16  C   UNL     1      -5.207  -5.194 -34.704  1.00  0.00     0.000 A 
HETATM   17  C   UNL     1      -5.921  -4.079 -35.145  1.00  0.00     0.003 A 
HETATM   18  C   UNL     1      -5.544  -2.797 -34.738  1.00  0.00     0.037 A 
ENDBRANCH  12  13
ENDBRANCH  10  12
ENDBRANCH   7  10
ENDBRANCH   1   6
BRANCH   2  19
HETATM   19  C   UNL     1      -5.750   3.399 -33.497  1.00  0.00     0.732 A 
HETATM   20  N   UNL     1      -5.014   3.362 -32.429  1.00  0.00    -0.067 NA
HETATM   21  C   UNL     1      -3.864   4.122 -32.462  1.00  0.00     0.065 A 
HETATM   22  C   UNL     1      -3.481   4.873 -33.513  1.00  0.00     0.036 A 
HETATM   23  C   UNL     1      -3.006   4.036 -31.220  1.00  0.00     0.060 C 
HETATM   24  C   UNL     1      -2.227   5.697 -33.560  1.00  0.00     0.046 C 
HETATM   25  C   UNL     1      -4.353   4.891 -34.713  1.00  0.00     0.268 A 
HETATM   26  C   UNL     1      -1.566   5.859 -32.189  1.00  0.00     0.005 C 
HETATM   27  C   UNL     1      -1.576   4.543 -31.419  1.00  0.00     0.006 C 
HETATM   28  O   UNL     1      -4.074   5.533 -35.718  1.00  0.00    -0.267 OA
HETATM   29  N   UNL     1      -5.476   4.134 -34.614  1.00  0.00    -0.152 N 
HETATM   30  H   UNL     1      -6.110   4.086 -35.407  1.00  0.00     0.188 HD
ENDBRANCH   2  19
BRANCH   4  31
HETATM   31  C   UNL     1     -10.448   2.596 -34.352  1.00  0.00     0.035 A 
HETATM   32  S   UNL     1     -11.749   1.588 -33.888  1.00  0.00    -0.100 SA
HETATM   33  C   UNL     1     -12.899   2.626 -34.613  1.00  0.00     0.050 A 
HETATM   34  C   UNL     1     -12.306   3.722 -35.200  1.00  0.00     0.008 A 
HETATM   35  C   UNL     1     -10.888   3.705 -35.046  1.00  0.00     0.022 A 
ENDBRANCH   4  31
TORSDOF 6
ENDMDL
MODEL 4
REMARK VINA RESULT:      -9.0      2.835      7.844
REMARK  6 active torsions:
REMARK  status: ('A' for Active; 'I' for Inactive)
REMARK    1  A    between atoms: C_2  and  O_3 
REMARK    2  A    between atoms: C_2  and  C_10 
REMARK    3  A    between atoms: O_3  and  C_4 
REMARK       I    between atoms: C_10  and  N_11 
REMARK    4  A    between atoms: N_11  and  C_12 
REMARK    5  A    between atoms: N_13  and  C_14 
REMARK    6  A    between atoms: C_26  and  C_27 
ROOT
HETATM    1  C   UNL     1      -7.508   0.978 -32.958  1.00  0.00     0.152 A 
HETATM    2  N   UNL     1      -7.528   2.315 -32.587  1.00  0.00    -0.044 N 
HETATM    3  N   UNL     1      -8.783   2.851 -32.625  1.00  0.00    -0.150 NA
HETATM    4  C   UNL     1      -9.558   1.841 -33.044  1.00  0.00     0.099 A 
HETATM    5  C   UNL     1      -8.812   0.662 -33.265  1.00  0.00     0.086 A 
ENDROOT
BRANCH   1   6
HETATM    6  N   UNL     1      -6.334   0.233 -32.984  1.00  0.00    -0.309 N 
HETATM    7  C   UNL     1      -5.831  -0.431 -31.872  1.00  0.00     0.252 C 
HETATM    8  O   UNL     1      -6.373  -0.432 -30.768  1.00  0.00    -0.270 OA
HETATM    9  H   UNL     1      -5.912   0.090 -33.901  1.00  0.00     0.170 HD
BRANCH   7  10
HETATM   10  C   UNL     1      -4.481  -1.158 -32.137  1.00  0.00     0.217 C 
HETATM   11  C   UNL     1      -3.291  -0.325 -31.658  1.00  0.00     0.050 C 
BRANCH  10  12
HETATM   12  O   UNL     1      -4.237  -1.386 -33.529  1.00  0.00    -0.337 OA
BRANCH  12  13
HETATM   13  C   UNL     1      -4.613  -2.610 -34.006  1.00  0.00     0.070 A 
HETATM   14  C   UNL     1      -3.852  -3.698 -33.579  1.00  0.00     0.037 A 
HETATM   15  C   UNL     1      -4.196  -4.992 -33.969  1.00  0.00     0.003 A 
HETATM   16  C   UNL     1      -5.316  -5.201 -34.773  1.00  0.00     0.000 A 
HETATM   17  C   UNL     1      -6.093  -4.115 -35.178  1.00  0.00     0.003 A 
HETATM   18  C   UNL     1      -5.749  -2.819 -34.787  1.00  0.00     0.037 A 
ENDBRANCH  12  13
ENDBRANCH  10  12
ENDBRANCH   7  10
ENDBRANCH   1   6
BRANCH   2  19
HETATM   19  C   UNL     1      -6.434   3.134 -32.244  1.00  0.00     0.732 A 
HETATM   20  N   UNL     1      -5.224   2.916 -32.656  1.00  0.00    -0.067 NA
HETATM   21  C   UNL     1      -4.276   3.837 -32.261  1.00  0.00     0.065 A 
HETATM   22  C   UNL     1      -4.538   4.913 -31.495  1.00  0.00     0.036 A 
HETATM   23  C   UNL     1      -2.880   3.580 -32.783  1.00  0.00     0.060 C 
HETATM   24  C   UNL     1      -3.513   5.923 -31.066  1.00  0.00     0.046 C 
HETATM   25  C   UNL     1      -5.934   5.124 -31.040  1.00  0.00     0.268 A 
HETATM   26  C   UNL     1      -2.076   5.462 -31.318  1.00  0.00     0.005 C 
HETATM   27  C   UNL     1      -1.948   4.790 -32.680  1.00  0.00     0.006 C 
HETATM   28  O   UNL     1      -6.264   6.084 -30.355  1.00  0.00    -0.267 OA
HETATM   29  N   UNL     1      -6.817   4.178 -31.451  1.00  0.00    -0.152 N 
HETATM   30  H   UNL     1      -7.795   4.270 -31.190  1.00  0.00     0.188 HD
ENDBRANCH   2  19
BRANCH   4  31
HETATM   31  C   UNL     1     -11.037   2.008 -33.237  1.00  0.00     0.035 A 
HETATM   32  S   UNL     1     -11.918   3.407 -32.801  1.00  0.00    -0.100 SA
HETATM   33  C   UNL     1     -13.391   2.731 -33.347  1.00  0.00     0.050 A 
HETATM   34  C   UNL     1     -13.220   1.461 -33.851  1.00  0.00     0.008 A 
HETATM   35  C   UNL     1     -11.857   1.044 -33.790  1.00  0.00     0.022 A 
ENDBRANCH   4  31
TORSDOF 6
ENDMDL
MODEL 5
REMARK VINA RESULT:      -9.0      3.188      7.436
REMARK  6 active torsions:
REMARK  status: ('A' for Active; 'I' for Inactive)
REMARK    1  A    between atoms: C_2  and  O_3 
REMARK    2  A    between atoms: C_2  and  C_10 
REMARK    3  A    between atoms: O_3  and  C_4 
REMARK       I    between atoms: C_10  and  N_11 
REMARK    4  A    between atoms: N_11  and  C_12 
REMARK    5  A    between atoms: N_13  and  C_14 
REMARK    6  A    between atoms: C_26  and  C_27 
ROOT
HETATM    1  C   UNL     1      -8.514   2.816 -33.776  1.00  0.00     0.152 A 
HETATM    2  N   UNL     1      -7.827   4.021 -33.809  1.00  0.00    -0.044 N 
HETATM    3  N   UNL     1      -8.606   5.058 -34.235  1.00  0.00    -0.150 NA
HETATM    4  C   UNL     1      -9.794   4.492 -34.490  1.00  0.00     0.099 A 
HETATM    5  C   UNL     1      -9.784   3.105 -34.222  1.00  0.00     0.086 A 
ENDROOT
BRANCH   1   6
HETATM    6  N   UNL     1      -7.913   1.631 -33.367  1.00  0.00    -0.309 N 
HETATM    7  C   UNL     1      -7.256   0.772 -34.238  1.00  0.00     0.252 C 
HETATM    8  O   UNL     1      -7.134   0.978 -35.444  1.00  0.00    -0.270 OA
HETATM    9  H   UNL     1      -7.869   1.473 -32.360  1.00  0.00     0.170 HD
BRANCH   7  10
HETATM   10  C   UNL     1      -6.706  -0.512 -33.553  1.00  0.00     0.217 C 
HETATM   11  C   UNL     1      -6.350  -0.258 -32.088  1.00  0.00     0.050 C 
BRANCH  10  12
HETATM   12  O   UNL     1      -5.494  -0.985 -34.151  1.00  0.00    -0.337 OA
BRANCH  12  13
HETATM   13  C   UNL     1      -5.422  -2.333 -34.363  1.00  0.00     0.070 A 
HETATM   14  C   UNL     1      -4.247  -2.960 -33.951  1.00  0.00     0.037 A 
HETATM   15  C   UNL     1      -4.106  -4.341 -34.075  1.00  0.00     0.003 A 
HETATM   16  C   UNL     1      -5.153  -5.102 -34.595  1.00  0.00     0.000 A 
HETATM   17  C   UNL     1      -6.340  -4.478 -34.983  1.00  0.00     0.003 A 
HETATM   18  C   UNL     1      -6.480  -3.094 -34.859  1.00  0.00     0.037 A 
ENDBRANCH  12  13
ENDBRANCH  10  12
ENDBRANCH   7  10
ENDBRANCH   1   6
BRANCH   2  19
HETATM   19  C   UNL     1      -6.468   4.251 -33.511  1.00  0.00     0.732 A 
HETATM   20  N   UNL     1      -5.586   4.571 -34.407  1.00  0.00    -0.067 NA
HETATM   21  C   UNL     1      -4.309   4.800 -33.943  1.00  0.00     0.065 A 
HETATM   22  C   UNL     1      -3.945   4.712 -32.648  1.00  0.00     0.036 A 
HETATM   23  C   UNL     1      -3.307   5.205 -35.001  1.00  0.00     0.060 C 
HETATM   24  C   UNL     1      -2.558   4.966 -32.133  1.00  0.00     0.046 C 
HETATM   25  C   UNL     1      -4.982   4.339 -31.655  1.00  0.00     0.268 A 
HETATM   26  C   UNL     1      -1.511   5.037 -33.246  1.00  0.00     0.005 C 
HETATM   27  C   UNL     1      -2.031   5.834 -34.437  1.00  0.00     0.006 C 
HETATM   28  O   UNL     1      -4.744   4.251 -30.457  1.00  0.00    -0.267 OA
HETATM   29  N   UNL     1      -6.217   4.114 -32.176  1.00  0.00    -0.152 N 
HETATM   30  H   UNL     1      -6.979   3.872 -31.550  1.00  0.00     0.188 HD
ENDBRANCH   2  19
BRANCH   4  31
HETATM   31  C   UNL     1     -10.957   5.292 -34.999  1.00  0.00     0.035 A 
HETATM   32  S   UNL     1     -10.924   6.979 -35.276  1.00  0.00    -0.100 SA
HETATM   33  C   UNL     1     -12.553   6.993 -35.796  1.00  0.00     0.050 A 
HETATM   34  C   UNL     1     -13.117   5.737 -35.760  1.00  0.00     0.008 A 
HETATM   35  C   UNL     1     -12.192   4.753 -35.300  1.00  0.00     0.022 A 
ENDBRANCH   4  31
TORSDOF 6
ENDMDL
MODEL 6
REMARK VINA RESULT:      -8.9      3.332      7.497
REMARK  6 active torsions:
REMARK  status: ('A' for Active; 'I' for Inactive)
REMARK    1  A    between atoms: C_2  and  O_3 
REMARK    2  A    between atoms: C_2  and  C_10 
REMARK    3  A    between atoms: O_3  and  C_4 
REMARK       I    between atoms: C_10  and  N_11 
REMARK    4  A    between atoms: N_11  and  C_12 
REMARK    5  A    between atoms: N_13  and  C_14 
REMARK    6  A    between atoms: C_26  and  C_27 
ROOT
HETATM    1  C   UNL     1      -9.037   2.821 -33.417  1.00  0.00     0.152 A 
HETATM    2  N   UNL     1      -8.867   1.446 -33.345  1.00  0.00    -0.044 N 
HETATM    3  N   UNL     1     -10.050   0.767 -33.398  1.00  0.00    -0.150 NA
HETATM    4  C   UNL     1     -10.977   1.731 -33.486  1.00  0.00     0.099 A 
HETATM    5  C   UNL     1     -10.397   3.019 -33.499  1.00  0.00     0.086 A 
ENDROOT
BRANCH   1   6
HETATM    6  N   UNL     1      -7.964   3.704 -33.387  1.00  0.00    -0.309 N 
HETATM    7  C   UNL     1      -7.694   4.536 -32.308  1.00  0.00     0.252 C 
HETATM    8  O   UNL     1      -8.367   4.566 -31.279  1.00  0.00    -0.270 OA
HETATM    9  H   UNL     1      -7.297   3.629 -34.156  1.00  0.00     0.170 HD
BRANCH   7  10
HETATM   10  C   UNL     1      -6.467   5.466 -32.527  1.00  0.00     0.217 C 
HETATM   11  C   UNL     1      -6.858   6.942 -32.437  1.00  0.00     0.050 C 
BRANCH  10  12
HETATM   12  O   UNL     1      -5.882   5.317 -33.825  1.00  0.00    -0.337 OA
BRANCH  12  13
HETATM   13  C   UNL     1      -4.525   5.160 -33.852  1.00  0.00     0.070 A 
HETATM   14  C   UNL     1      -3.942   4.642 -32.695  1.00  0.00     0.037 A 
HETATM   15  C   UNL     1      -2.571   4.395 -32.650  1.00  0.00     0.003 A 
HETATM   16  C   UNL     1      -1.782   4.648 -33.772  1.00  0.00     0.000 A 
HETATM   17  C   UNL     1      -2.369   5.141 -34.938  1.00  0.00     0.003 A 
HETATM   18  C   UNL     1      -3.743   5.389 -34.983  1.00  0.00     0.037 A 
ENDBRANCH  12  13
ENDBRANCH  10  12
ENDBRANCH   7  10
ENDBRANCH   1   6
BRANCH   2  19
HETATM   19  C   UNL     1      -7.663   0.731 -33.181  1.00  0.00     0.732 A 
HETATM   20  N   UNL     1      -6.647   1.189 -32.519  1.00  0.00    -0.067 NA
HETATM   21  C   UNL     1      -5.560   0.345 -32.420  1.00  0.00     0.065 A 
HETATM   22  C   UNL     1      -5.506  -0.888 -32.959  1.00  0.00     0.036 A 
HETATM   23  C   UNL     1      -4.402   0.889 -31.613  1.00  0.00     0.060 C 
HETATM   24  C   UNL     1      -4.330  -1.815 -32.850  1.00  0.00     0.046 C 
HETATM   25  C   UNL     1      -6.688  -1.373 -33.713  1.00  0.00     0.268 A 
HETATM   26  C   UNL     1      -3.069  -1.122 -32.332  1.00  0.00     0.005 C 
HETATM   27  C   UNL     1      -3.396  -0.180 -31.179  1.00  0.00     0.006 C 
HETATM   28  O   UNL     1      -6.731  -2.486 -34.222  1.00  0.00    -0.267 OA
HETATM   29  N   UNL     1      -7.720  -0.493 -33.786  1.00  0.00    -0.152 N 
HETATM   30  H   UNL     1      -8.568  -0.766 -34.273  1.00  0.00     0.188 HD
ENDBRANCH   2  19
BRANCH   4  31
HETATM   31  C   UNL     1     -12.442   1.413 -33.558  1.00  0.00     0.035 A 
HETATM   32  S   UNL     1     -13.692   2.527 -33.211  1.00  0.00    -0.100 SA
HETATM   33  C   UNL     1     -14.907   1.366 -33.531  1.00  0.00     0.050 A 
HETATM   34  C   UNL     1     -14.374   0.149 -33.894  1.00  0.00     0.008 A 
HETATM   35  C   UNL     1     -12.947   0.177 -33.912  1.00  0.00     0.022 A 
ENDBRANCH   4  31
TORSDOF 6
ENDMDL
MODEL 7
REMARK VINA RESULT:      -8.9      1.161      1.667
REMARK  6 active torsions:
REMARK  status: ('A' for Active; 'I' for Inactive)
REMARK    1  A    between atoms: C_2  and  O_3 
REMARK    2  A    between atoms: C_2  and  C_10 
REMARK    3  A    between atoms: O_3  and  C_4 
REMARK       I    between atoms: C_10  and  N_11 
REMARK    4  A    between atoms: N_11  and  C_12 
REMARK    5  A    between atoms: N_13  and  C_14 
REMARK    6  A    between atoms: C_26  and  C_27 
ROOT
HETATM    1  C   UNL     1      -4.982   4.066 -31.936  1.00  0.00     0.152 A 
HETATM    2  N   UNL     1      -4.090   3.011 -32.061  1.00  0.00    -0.044 N 
HETATM    3  N   UNL     1      -2.808   3.369 -31.759  1.00  0.00    -0.150 NA
HETATM    4  C   UNL     1      -2.893   4.672 -31.458  1.00  0.00     0.099 A 
HETATM    5  C   UNL     1      -4.220   5.148 -31.556  1.00  0.00     0.086 A 
ENDROOT
BRANCH   1   6
HETATM    6  N   UNL     1      -6.341   3.923 -32.190  1.00  0.00    -0.309 N 
HETATM    7  C   UNL     1      -6.960   4.428 -33.326  1.00  0.00     0.252 C 
HETATM    8  O   UNL     1      -6.369   5.039 -34.216  1.00  0.00    -0.270 OA
HETATM    9  H   UNL     1      -6.856   3.314 -31.553  1.00  0.00     0.170 HD
BRANCH   7  10
HETATM   10  C   UNL     1      -8.495   4.182 -33.363  1.00  0.00     0.217 C 
HETATM   11  C   UNL     1      -9.078   4.057 -31.955  1.00  0.00     0.050 C 
BRANCH  10  12
HETATM   12  O   UNL     1      -8.846   2.958 -34.019  1.00  0.00    -0.337 OA
BRANCH  12  13
HETATM   13  C   UNL     1     -10.112   2.897 -34.527  1.00  0.00     0.070 A 
HETATM   14  C   UNL     1     -10.847   1.754 -34.215  1.00  0.00     0.037 A 
HETATM   15  C   UNL     1     -12.168   1.629 -34.643  1.00  0.00     0.003 A 
HETATM   16  C   UNL     1     -12.763   2.660 -35.369  1.00  0.00     0.000 A 
HETATM   17  C   UNL     1     -12.036   3.816 -35.658  1.00  0.00     0.003 A 
HETATM   18  C   UNL     1     -10.713   3.941 -35.230  1.00  0.00     0.037 A 
ENDBRANCH  12  13
ENDBRANCH  10  12
ENDBRANCH   7  10
ENDBRANCH   1   6
BRANCH   2  19
HETATM   19  C   UNL     1      -4.360   1.697 -32.493  1.00  0.00     0.732 A 
HETATM   20  N   UNL     1      -5.403   1.377 -33.195  1.00  0.00    -0.067 NA
HETATM   21  C   UNL     1      -5.497   0.054 -33.569  1.00  0.00     0.065 A 
HETATM   22  C   UNL     1      -4.590  -0.890 -33.253  1.00  0.00     0.036 A 
HETATM   23  C   UNL     1      -6.704  -0.286 -34.416  1.00  0.00     0.060 C 
HETATM   24  C   UNL     1      -4.681  -2.332 -33.662  1.00  0.00     0.046 C 
HETATM   25  C   UNL     1      -3.413  -0.486 -32.445  1.00  0.00     0.268 A 
HETATM   26  C   UNL     1      -6.057  -2.710 -34.215  1.00  0.00     0.005 C 
HETATM   27  C   UNL     1      -6.590  -1.627 -35.145  1.00  0.00     0.006 C 
HETATM   28  O   UNL     1      -2.532  -1.274 -32.126  1.00  0.00    -0.267 OA
HETATM   29  N   UNL     1      -3.384   0.827 -32.097  1.00  0.00    -0.152 N 
HETATM   30  H   UNL     1      -2.597   1.177 -31.557  1.00  0.00     0.188 HD
ENDBRANCH   2  19
BRANCH   4  31
HETATM   31  C   UNL     1      -1.685   5.474 -31.071  1.00  0.00     0.035 A 
HETATM   32  S   UNL     1      -1.692   6.740 -29.923  1.00  0.00    -0.100 SA
HETATM   33  C   UNL     1      -0.019   7.031 -30.135  1.00  0.00     0.050 A 
HETATM   34  C   UNL     1       0.537   6.182 -31.065  1.00  0.00     0.008 A 
HETATM   35  C   UNL     1      -0.426   5.279 -31.605  1.00  0.00     0.022 A 
ENDBRANCH   4  31
TORSDOF 6
ENDMDL
MODEL 8
REMARK VINA RESULT:      -8.8      3.221      7.791
REMARK  6 active torsions:
REMARK  status: ('A' for Active; 'I' for Inactive)
REMARK    1  A    between atoms: C_2  and  O_3 
REMARK    2  A    between atoms: C_2  and  C_10 
REMARK    3  A    between atoms: O_3  and  C_4 
REMARK       I    between atoms: C_10  and  N_11 
REMARK    4  A    between atoms: N_11  and  C_12 
REMARK    5  A    between atoms: N_13  and  C_14 
REMARK    6  A    between atoms: C_26  and  C_27 
ROOT
HETATM    1  C   UNL     1      -6.663   1.399 -34.002  1.00  0.00     0.152 A 
HETATM    2  N   UNL     1      -7.928   0.836 -34.094  1.00  0.00    -0.044 N 
HETATM    3  N   UNL     1      -7.889  -0.523 -34.217  1.00  0.00    -0.150 NA
HETATM    4  C   UNL     1      -6.581  -0.815 -34.220  1.00  0.00     0.099 A 
HETATM    5  C   UNL     1      -5.783   0.344 -34.091  1.00  0.00     0.086 A 
ENDROOT
BRANCH   1   6
HETATM    6  N   UNL     1      -6.469   2.769 -33.865  1.00  0.00    -0.309 N 
HETATM    7  C   UNL     1      -6.087   3.366 -32.670  1.00  0.00     0.252 C 
HETATM    8  O   UNL     1      -5.876   2.747 -31.629  1.00  0.00    -0.270 OA
HETATM    9  H   UNL     1      -6.502   3.317 -34.725  1.00  0.00     0.170 HD
BRANCH   7  10
HETATM   10  C   UNL     1      -5.979   4.916 -32.754  1.00  0.00     0.217 C 
HETATM   11  C   UNL     1      -7.358   5.576 -32.744  1.00  0.00     0.050 C 
BRANCH  10  12
HETATM   12  O   UNL     1      -5.362   5.366 -33.965  1.00  0.00    -0.337 OA
BRANCH  12  13
HETATM   13  C   UNL     1      -4.002   5.486 -33.931  1.00  0.00     0.070 A 
HETATM   14  C   UNL     1      -3.450   5.901 -32.719  1.00  0.00     0.037 A 
HETATM   15  C   UNL     1      -2.067   5.997 -32.573  1.00  0.00     0.003 A 
HETATM   16  C   UNL     1      -1.231   5.659 -33.637  1.00  0.00     0.000 A 
HETATM   17  C   UNL     1      -1.782   5.219 -34.841  1.00  0.00     0.003 A 
HETATM   18  C   UNL     1      -3.168   5.122 -34.987  1.00  0.00     0.037 A 
ENDBRANCH  12  13
ENDBRANCH  10  12
ENDBRANCH   7  10
ENDBRANCH   1   6
BRANCH   2  19
HETATM   19  C   UNL     1      -9.171   1.500 -34.122  1.00  0.00     0.732 A 
HETATM   20  N   UNL     1      -9.308   2.741 -34.473  1.00  0.00    -0.067 NA
HETATM   21  C   UNL     1     -10.598   3.227 -34.484  1.00  0.00     0.065 A 
HETATM   22  C   UNL     1     -11.685   2.500 -34.160  1.00  0.00     0.036 A 
HETATM   23  C   UNL     1     -10.735   4.666 -34.930  1.00  0.00     0.060 C 
HETATM   24  C   UNL     1     -13.093   3.019 -34.177  1.00  0.00     0.046 C 
HETATM   25  C   UNL     1     -11.485   1.085 -33.761  1.00  0.00     0.268 A 
HETATM   26  C   UNL     1     -13.168   4.542 -34.297  1.00  0.00     0.005 C 
HETATM   27  C   UNL     1     -12.162   5.060 -35.318  1.00  0.00     0.006 C 
HETATM   28  O   UNL     1     -12.417   0.348 -33.466  1.00  0.00    -0.267 OA
HETATM   29  N   UNL     1     -10.192   0.670 -33.757  1.00  0.00    -0.152 N 
HETATM   30  H   UNL     1      -9.984  -0.293 -33.510  1.00  0.00     0.188 HD
ENDBRANCH   2  19
BRANCH   4  31
HETATM   31  C   UNL     1      -6.087  -2.226 -34.350  1.00  0.00     0.035 A 
HETATM   32  S   UNL     1      -4.475  -2.718 -34.060  1.00  0.00    -0.100 SA
HETATM   33  C   UNL     1      -4.835  -4.348 -34.431  1.00  0.00     0.050 A 
HETATM   34  C   UNL     1      -6.159  -4.519 -34.771  1.00  0.00     0.008 A 
HETATM   35  C   UNL     1      -6.884  -3.292 -34.722  1.00  0.00     0.022 A 
ENDBRANCH   4  31
TORSDOF 6
ENDMDL
MODEL 9
REMARK VINA RESULT:      -8.7      1.825      2.690
REMARK  6 active torsions:
REMARK  status: ('A' for Active; 'I' for Inactive)
REMARK    1  A    between atoms: C_2  and  O_3 
REMARK    2  A    between atoms: C_2  and  C_10 
REMARK    3  A    between atoms: O_3  and  C_4 
REMARK       I    between atoms: C_10  and  N_11 
REMARK    4  A    between atoms: N_11  and  C_12 
REMARK    5  A    between atoms: N_13  and  C_14 
REMARK    6  A    between atoms: C_26  and  C_27 
ROOT
HETATM    1  C   UNL     1      -5.626   2.718 -31.942  1.00  0.00     0.152 A 
HETATM    2  N   UNL     1      -4.531   1.942 -32.292  1.00  0.00    -0.044 N 
HETATM    3  N   UNL     1      -3.367   2.656 -32.313  1.00  0.00    -0.150 NA
HETATM    4  C   UNL     1      -3.741   3.901 -31.988  1.00  0.00     0.099 A 
HETATM    5  C   UNL     1      -5.131   3.988 -31.752  1.00  0.00     0.086 A 
ENDROOT
BRANCH   1   6
HETATM    6  N   UNL     1      -6.910   2.192 -31.853  1.00  0.00    -0.309 N 
HETATM    7  C   UNL     1      -7.881   2.388 -32.827  1.00  0.00     0.252 C 
HETATM    8  O   UNL     1      -7.699   3.033 -33.858  1.00  0.00    -0.270 OA
HETATM    9  H   UNL     1      -7.078   1.541 -31.086  1.00  0.00     0.170 HD
BRANCH   7  10
HETATM   10  C   UNL     1      -9.252   1.740 -32.482  1.00  0.00     0.217 C 
HETATM   11  C   UNL     1      -9.076   0.401 -31.765  1.00  0.00     0.050 C 
BRANCH  10  12
HETATM   12  O   UNL     1     -10.032   1.437 -33.644  1.00  0.00    -0.337 OA
BRANCH  12  13
HETATM   13  C   UNL     1     -11.386   1.544 -33.496  1.00  0.00     0.070 A 
HETATM   14  C   UNL     1     -11.872   2.807 -33.160  1.00  0.00     0.037 A 
HETATM   15  C   UNL     1     -13.244   3.024 -33.043  1.00  0.00     0.003 A 
HETATM   16  C   UNL     1     -14.135   1.979 -33.282  1.00  0.00     0.000 A 
HETATM   17  C   UNL     1     -13.650   0.721 -33.644  1.00  0.00     0.003 A 
HETATM   18  C   UNL     1     -12.276   0.504 -33.761  1.00  0.00     0.037 A 
ENDBRANCH  12  13
ENDBRANCH  10  12
ENDBRANCH   7  10
ENDBRANCH   1   6
BRANCH   2  19
HETATM   19  C   UNL     1      -4.516   0.580 -32.656  1.00  0.00     0.732 A 
HETATM   20  N   UNL     1      -5.347   0.061 -33.507  1.00  0.00    -0.067 NA
HETATM   21  C   UNL     1      -5.171  -1.278 -33.782  1.00  0.00     0.065 A 
HETATM   22  C   UNL     1      -4.212  -2.046 -33.230  1.00  0.00     0.036 A 
HETATM   23  C   UNL     1      -6.129  -1.852 -34.803  1.00  0.00     0.060 C 
HETATM   24  C   UNL     1      -4.009  -3.504 -33.529  1.00  0.00     0.046 C 
HETATM   25  C   UNL     1      -3.285  -1.416 -32.259  1.00  0.00     0.268 A 
HETATM   26  C   UNL     1      -5.182  -4.127 -34.289  1.00  0.00     0.005 C 
HETATM   27  C   UNL     1      -5.681  -3.194 -35.386  1.00  0.00     0.006 C 
HETATM   28  O   UNL     1      -2.375  -2.035 -31.721  1.00  0.00    -0.267 OA
HETATM   29  N   UNL     1      -3.517  -0.099 -32.020  1.00  0.00    -0.152 N 
HETATM   30  H   UNL     1      -2.909   0.401 -31.378  1.00  0.00     0.188 HD
ENDBRANCH   2  19
BRANCH   4  31
HETATM   31  C   UNL     1      -2.751   5.026 -31.905  1.00  0.00     0.035 A 
HETATM   32  S   UNL     1      -1.460   5.262 -33.001  1.00  0.00    -0.100 SA
HETATM   33  C   UNL     1      -0.926   6.661 -32.174  1.00  0.00     0.050 A 
HETATM   34  C   UNL     1      -1.713   6.945 -31.081  1.00  0.00     0.008 A 
HETATM   35  C   UNL     1      -2.771   6.000 -30.926  1.00  0.00     0.022 A 
ENDBRANCH   4  31
TORSDOF 6
ENDMDL
MODEL 10
REMARK VINA RESULT:      -8.6      3.716      7.194
REMARK  6 active torsions:
REMARK  status: ('A' for Active; 'I' for Inactive)
REMARK    1  A    between atoms: C_2  and  O_3 
REMARK    2  A    between atoms: C_2  and  C_10 
REMARK    3  A    between atoms: O_3  and  C_4 
REMARK       I    between atoms: C_10  and  N_11 
REMARK    4  A    between atoms: N_11  and  C_12 
REMARK    5  A    between atoms: N_13  and  C_14 
REMARK    6  A    between atoms: C_26  and  C_27 
ROOT
HETATM    1  C   UNL     1      -7.181   0.740 -32.342  1.00  0.00     0.152 A 
HETATM    2  N   UNL     1      -8.173   0.480 -33.277  1.00  0.00    -0.044 N 
HETATM    3  N   UNL     1      -7.935  -0.657 -33.993  1.00  0.00    -0.150 NA
HETATM    4  C   UNL     1      -6.768  -1.109 -33.512  1.00  0.00     0.099 A 
HETATM    5  C   UNL     1      -6.263  -0.275 -32.489  1.00  0.00     0.086 A 
ENDROOT
BRANCH   1   6
HETATM    6  N   UNL     1      -7.226   1.845 -31.500  1.00  0.00    -0.309 N 
HETATM    7  C   UNL     1      -6.629   3.060 -31.809  1.00  0.00     0.252 C 
HETATM    8  O   UNL     1      -6.015   3.279 -32.852  1.00  0.00    -0.270 OA
HETATM    9  H   UNL     1      -7.831   1.764 -30.683  1.00  0.00     0.170 HD
BRANCH   7  10
HETATM   10  C   UNL     1      -6.776   4.131 -30.690  1.00  0.00     0.217 C 
HETATM   11  C   UNL     1      -5.627   4.054 -29.685  1.00  0.00     0.050 C 
BRANCH  10  12
HETATM   12  O   UNL     1      -7.964   3.959 -29.909  1.00  0.00    -0.337 OA
BRANCH  12  13
HETATM   13  C   UNL     1      -9.102   4.509 -30.427  1.00  0.00     0.070 A 
HETATM   14  C   UNL     1     -10.231   3.691 -30.439  1.00  0.00     0.037 A 
HETATM   15  C   UNL     1     -11.452   4.186 -30.897  1.00  0.00     0.003 A 
HETATM   16  C   UNL     1     -11.548   5.509 -31.325  1.00  0.00     0.000 A 
HETATM   17  C   UNL     1     -10.424   6.336 -31.288  1.00  0.00     0.003 A 
HETATM   18  C   UNL     1      -9.202   5.840 -30.829  1.00  0.00     0.037 A 
ENDBRANCH  12  13
ENDBRANCH  10  12
ENDBRANCH   7  10
ENDBRANCH   1   6
BRANCH   2  19
HETATM   19  C   UNL     1      -9.308   1.262 -33.574  1.00  0.00     0.732 A 
HETATM   20  N   UNL     1      -9.240   2.495 -33.972  1.00  0.00    -0.067 NA
HETATM   21  C   UNL     1     -10.443   3.104 -34.258  1.00  0.00     0.065 A 
HETATM   22  C   UNL     1     -11.643   2.502 -34.149  1.00  0.00     0.036 A 
HETATM   23  C   UNL     1     -10.335   4.530 -34.753  1.00  0.00     0.060 C 
HETATM   24  C   UNL     1     -12.957   3.157 -34.465  1.00  0.00     0.046 C 
HETATM   25  C   UNL     1     -11.678   1.093 -33.686  1.00  0.00     0.268 A 
HETATM   26  C   UNL     1     -12.845   4.673 -34.631  1.00  0.00     0.005 C 
HETATM   27  C   UNL     1     -11.604   5.045 -35.435  1.00  0.00     0.006 C 
HETATM   28  O   UNL     1     -12.723   0.464 -33.573  1.00  0.00    -0.267 OA
HETATM   29  N   UNL     1     -10.463   0.553 -33.408  1.00  0.00    -0.152 N 
HETATM   30  H   UNL     1     -10.412  -0.414 -33.103  1.00  0.00     0.188 HD
ENDBRANCH   2  19
BRANCH   4  31
HETATM   31  C   UNL     1      -6.126  -2.358 -34.041  1.00  0.00     0.035 A 
HETATM   32  S   UNL     1      -4.456  -2.707 -33.935  1.00  0.00    -0.100 SA
HETATM   33  C   UNL     1      -4.650  -4.205 -34.738  1.00  0.00     0.050 A 
HETATM   34  C   UNL     1      -5.962  -4.438 -35.084  1.00  0.00     0.008 A 
HETATM   35  C   UNL     1      -6.817  -3.370 -34.679  1.00  0.00     0.022 A 
ENDBRANCH   4  31
TORSDOF 6
ENDMDL
