MODEL 1
REMARK VINA RESULT:      -8.3      0.000      0.000
REMARK  6 active torsions:
REMARK  status: ('A' for Active; 'I' for Inactive)
REMARK    1  A    between atoms: C_2  and  C_3 
REMARK    2  A    between atoms: C_3  and  N_4 
REMARK       I    between atoms: N_4  and  C_5 
REMARK    3  A    between atoms: C_5  and  C_6 
REMARK    4  A    between atoms: C_11  and  C_12 
REMARK    5  A    between atoms: C_15  and  O_16 
REMARK    6  A    between atoms: C_21  and  C_22 
ROOT
HETATM    1  C   UNL     1      -4.591   4.258 -33.524  1.00  0.00     0.170 A 
HETATM    2  N   UNL     1      -5.863   4.008 -33.922  1.00  0.00    -0.163 NA
HETATM    3  N   UNL     1      -6.289   3.061 -33.069  1.00  0.00    -0.238 N 
HETATM    4  C   UNL     1      -5.318   2.618 -32.210  1.00  0.00     0.145 A 
HETATM    5  N   UNL     1      -5.539   1.557 -31.388  1.00  0.00    -0.365 N 
HETATM    6  C   UNL     1      -6.666   0.658 -31.637  1.00  0.00     0.118 C 
HETATM    7  C   UNL     1      -7.887   1.515 -32.008  1.00  0.00     0.066 C 
HETATM    8  C   UNL     1      -7.594   2.435 -33.211  1.00  0.00     0.221 C 
HETATM    9  C   UNL     1      -4.220   3.414 -32.442  1.00  0.00     0.115 A 
HETATM   10 CL   UNL     1      -2.721   3.323 -31.652  1.00  0.00    -0.077 Cl
HETATM   11  H   UNL     1      -4.745   1.126 -30.913  1.00  0.00     0.162 HD
ENDROOT
BRANCH   6  12
HETATM   12  C   UNL     1      -6.365  -0.433 -32.658  1.00  0.00    -0.035 A 
HETATM   13  C   UNL     1      -7.329  -0.959 -33.532  1.00  0.00     0.012 A 
HETATM   14  C   UNL     1      -7.002  -1.971 -34.440  1.00  0.00     0.037 A 
HETATM   15  C   UNL     1      -5.707  -2.481 -34.507  1.00  0.00     0.068 A 
HETATM   16  C   UNL     1      -4.733  -1.960 -33.659  1.00  0.00     0.037 A 
HETATM   17  C   UNL     1      -5.059  -0.945 -32.750  1.00  0.00     0.012 A 
BRANCH  15  18
HETATM   18  O   UNL     1      -5.529  -3.468 -35.435  1.00  0.00    -0.356 OA
HETATM   19  C   UNL     1      -6.422  -4.572 -35.380  1.00  0.00     0.210 C 
ENDBRANCH  15  18
ENDBRANCH   6  12
BRANCH   8  20
HETATM   20  C   UNL     1      -8.696   3.465 -33.338  1.00  0.00     0.409 C 
HETATM   21  F   UNL     1      -8.811   3.976 -34.582  1.00  0.00    -0.169 F 
HETATM   22  F   UNL     1      -9.895   2.890 -33.053  1.00  0.00    -0.169 F 
HETATM   23  F   UNL     1      -8.545   4.492 -32.472  1.00  0.00    -0.169 F 
ENDBRANCH   8  20
BRANCH   1  24
HETATM   24  C   UNL     1      -3.770   5.257 -34.227  1.00  0.00     0.273 C 
HETATM   25  N   UNL     1      -2.934   5.954 -33.380  1.00  0.00    -0.356 N 
HETATM   26  H   UNL     1      -3.026   5.726 -32.392  1.00  0.00     0.162 HD
HETATM   27  O   UNL     1      -3.838   5.473 -35.432  1.00  0.00    -0.266 OA
BRANCH  25  28
HETATM   28  C   UNL     1      -2.163   7.099 -33.798  1.00  0.00     0.122 C 
BRANCH  28  29
HETATM   29  C   UNL     1      -1.517   7.830 -32.623  1.00  0.00     0.015 C 
HETATM   30  C   UNL     1      -0.490   6.977 -31.893  1.00  0.00     0.006 C 
ENDBRANCH  28  29
ENDBRANCH  25  28
ENDBRANCH   1  24
TORSDOF 6
ENDMDL
MODEL 2
REMARK VINA RESULT:      -8.1      3.628      7.464
REMARK  6 active torsions:
REMARK  status: ('A' for Active; 'I' for Inactive)
REMARK    1  A    between atoms: C_2  and  C_3 
REMARK    2  A    between atoms: C_3  and  N_4 
REMARK       I    between atoms: N_4  and  C_5 
REMARK    3  A    between atoms: C_5  and  C_6 
REMARK    4  A    between atoms: C_11  and  C_12 
REMARK    5  A    between atoms: C_15  and  O_16 
REMARK    6  A    between atoms: C_21  and  C_22 
ROOT
HETATM    1  C   UNL     1      -9.776   2.296 -33.220  1.00  0.00     0.170 A 
HETATM    2  N   UNL     1      -8.927   1.615 -34.030  1.00  0.00    -0.163 NA
HETATM    3  N   UNL     1      -7.814   1.476 -33.289  1.00  0.00    -0.238 N 
HETATM    4  C   UNL     1      -7.871   2.126 -32.084  1.00  0.00     0.145 A 
HETATM    5  N   UNL     1      -6.777   2.215 -31.282  1.00  0.00    -0.365 N 
HETATM    6  C   UNL     1      -5.446   1.935 -31.822  1.00  0.00     0.118 C 
HETATM    7  C   UNL     1      -5.549   0.692 -32.722  1.00  0.00     0.066 C 
HETATM    8  C   UNL     1      -6.606   0.875 -33.830  1.00  0.00     0.221 C 
HETATM    9  C   UNL     1      -9.152   2.620 -31.984  1.00  0.00     0.115 A 
HETATM   10 CL   UNL     1      -9.795   3.508 -30.689  1.00  0.00    -0.077 Cl
HETATM   11  H   UNL     1      -6.791   2.868 -30.498  1.00  0.00     0.162 HD
ENDROOT
BRANCH   6  12
HETATM   12  C   UNL     1      -4.804   3.128 -32.519  1.00  0.00    -0.035 A 
HETATM   13  C   UNL     1      -5.539   4.189 -33.070  1.00  0.00     0.012 A 
HETATM   14  C   UNL     1      -4.898   5.253 -33.713  1.00  0.00     0.037 A 
HETATM   15  C   UNL     1      -3.509   5.294 -33.817  1.00  0.00     0.068 A 
HETATM   16  C   UNL     1      -2.761   4.259 -33.262  1.00  0.00     0.037 A 
HETATM   17  C   UNL     1      -3.402   3.193 -32.616  1.00  0.00     0.012 A 
BRANCH  15  18
HETATM   18  O   UNL     1      -3.018   6.387 -34.472  1.00  0.00    -0.356 OA
HETATM   19  C   UNL     1      -1.941   7.079 -33.854  1.00  0.00     0.210 C 
ENDBRANCH  15  18
ENDBRANCH   6  12
BRANCH   8  20
HETATM   20  C   UNL     1      -6.891  -0.461 -34.480  1.00  0.00     0.409 C 
HETATM   21  F   UNL     1      -7.450  -0.353 -35.704  1.00  0.00    -0.169 F 
HETATM   22  F   UNL     1      -5.727  -1.143 -34.656  1.00  0.00    -0.169 F 
HETATM   23  F   UNL     1      -7.687  -1.246 -33.721  1.00  0.00    -0.169 F 
ENDBRANCH   8  20
BRANCH   1  24
HETATM   24  C   UNL     1     -11.128   2.649 -33.681  1.00  0.00     0.273 C 
HETATM   25  N   UNL     1     -12.121   2.007 -32.969  1.00  0.00    -0.356 N 
HETATM   26  H   UNL     1     -11.795   1.349 -32.265  1.00  0.00     0.162 HD
HETATM   27  O   UNL     1     -11.354   3.408 -34.617  1.00  0.00    -0.266 OA
BRANCH  25  28
HETATM   28  C   UNL     1     -13.513   2.052 -33.344  1.00  0.00     0.122 C 
BRANCH  28  29
HETATM   29  C   UNL     1     -13.960   0.790 -34.081  1.00  0.00     0.015 C 
HETATM   30  C   UNL     1     -13.229  -0.458 -33.607  1.00  0.00     0.006 C 
ENDBRANCH  28  29
ENDBRANCH  25  28
ENDBRANCH   1  24
TORSDOF 6
ENDMDL
MODEL 3
REMARK VINA RESULT:      -7.8      3.477      7.055
REMARK  6 active torsions:
REMARK  status: ('A' for Active; 'I' for Inactive)
REMARK    1  A    between atoms: C_2  and  C_3 
REMARK    2  A    between atoms: C_3  and  N_4 
REMARK       I    between atoms: N_4  and  C_5 
REMARK    3  A    between atoms: C_5  and  C_6 
REMARK    4  A    between atoms: C_11  and  C_12 
REMARK    5  A    between atoms: C_15  and  O_16 
REMARK    6  A    between atoms: C_21  and  C_22 
ROOT
HETATM    1  C   UNL     1      -9.432   1.583 -33.366  1.00  0.00     0.170 A 
HETATM    2  N   UNL     1      -8.464   0.952 -34.077  1.00  0.00    -0.163 NA
HETATM    3  N   UNL     1      -7.392   0.989 -33.268  1.00  0.00    -0.238 N 
HETATM    4  C   UNL     1      -7.596   1.705 -32.118  1.00  0.00     0.145 A 
HETATM    5  N   UNL     1      -6.570   1.970 -31.265  1.00  0.00    -0.365 N 
HETATM    6  C   UNL     1      -5.186   1.809 -31.709  1.00  0.00     0.118 C 
HETATM    7  C   UNL     1      -5.094   0.506 -32.522  1.00  0.00     0.066 C 
HETATM    8  C   UNL     1      -6.093   0.495 -33.697  1.00  0.00     0.221 C 
HETATM    9  C   UNL     1      -8.926   2.056 -32.124  1.00  0.00     0.115 A 
HETATM   10 CL   UNL     1      -9.743   2.947 -30.933  1.00  0.00    -0.077 Cl
HETATM   11  H   UNL     1      -6.705   2.667 -30.532  1.00  0.00     0.162 HD
ENDROOT
BRANCH   6  12
HETATM   12  C   UNL     1      -4.636   3.020 -32.453  1.00  0.00    -0.035 A 
HETATM   13  C   UNL     1      -5.450   4.002 -33.039  1.00  0.00     0.012 A 
HETATM   14  C   UNL     1      -4.891   5.085 -33.724  1.00  0.00     0.037 A 
HETATM   15  C   UNL     1      -3.509   5.226 -33.837  1.00  0.00     0.068 A 
HETATM   16  C   UNL     1      -2.685   4.270 -33.248  1.00  0.00     0.037 A 
HETATM   17  C   UNL     1      -3.243   3.184 -32.560  1.00  0.00     0.012 A 
BRANCH  15  18
HETATM   18  O   UNL     1      -3.102   6.327 -34.535  1.00  0.00    -0.356 OA
HETATM   19  C   UNL     1      -1.950   7.006 -34.053  1.00  0.00     0.210 C 
ENDBRANCH  15  18
ENDBRANCH   6  12
BRANCH   8  20
HETATM   20  C   UNL     1      -6.188  -0.904 -34.265  1.00  0.00     0.409 C 
HETATM   21  F   UNL     1      -5.009  -1.562 -34.270  1.00  0.00    -0.169 F 
HETATM   22  F   UNL     1      -7.034  -1.650 -33.505  1.00  0.00    -0.169 F 
HETATM   23  F   UNL     1      -6.684  -0.918 -35.522  1.00  0.00    -0.169 F 
ENDBRANCH   8  20
BRANCH   1  24
HETATM   24  C   UNL     1     -10.783   1.749 -33.926  1.00  0.00     0.273 C 
HETATM   25  N   UNL     1     -10.814   2.614 -35.000  1.00  0.00    -0.356 N 
HETATM   26  H   UNL     1      -9.925   3.053 -35.231  1.00  0.00     0.162 HD
HETATM   27  O   UNL     1     -11.783   1.204 -33.472  1.00  0.00    -0.266 OA
BRANCH  25  28
HETATM   28  C   UNL     1     -12.039   3.075 -35.606  1.00  0.00     0.122 C 
BRANCH  28  29
HETATM   29  C   UNL     1     -12.576   4.344 -34.946  1.00  0.00     0.015 C 
HETATM   30  C   UNL     1     -11.574   5.490 -34.974  1.00  0.00     0.006 C 
ENDBRANCH  28  29
ENDBRANCH  25  28
ENDBRANCH   1  24
TORSDOF 6
ENDMDL
MODEL 4
REMARK VINA RESULT:      -7.6      3.886      6.548
REMARK  6 active torsions:
REMARK  status: ('A' for Active; 'I' for Inactive)
REMARK    1  A    between atoms: C_2  and  C_3 
REMARK    2  A    between atoms: C_3  and  N_4 
REMARK       I    between atoms: N_4  and  C_5 
REMARK    3  A    between atoms: C_5  and  C_6 
REMARK    4  A    between atoms: C_11  and  C_12 
REMARK    5  A    between atoms: C_15  and  O_16 
REMARK    6  A    between atoms: C_21  and  C_22 
ROOT
HETATM    1  C   UNL     1     -10.554   3.383 -32.531  1.00  0.00     0.170 A 
HETATM    2  N   UNL     1      -9.655   3.082 -31.561  1.00  0.00    -0.163 NA
HETATM    3  N   UNL     1      -8.470   3.119 -32.195  1.00  0.00    -0.238 N 
HETATM    4  C   UNL     1      -8.576   3.327 -33.545  1.00  0.00     0.145 A 
HETATM    5  N   UNL     1      -7.488   3.239 -34.356  1.00  0.00    -0.365 N 
HETATM    6  C   UNL     1      -6.266   2.592 -33.878  1.00  0.00     0.118 C 
HETATM    7  C   UNL     1      -6.019   3.049 -32.430  1.00  0.00     0.066 C 
HETATM    8  C   UNL     1      -7.232   2.756 -31.524  1.00  0.00     0.221 C 
HETATM    9  C   UNL     1      -9.911   3.558 -33.787  1.00  0.00     0.115 A 
HETATM   10 CL   UNL     1     -10.624   3.887 -35.291  1.00  0.00    -0.077 Cl
HETATM   11  H   UNL     1      -7.627   3.197 -35.366  1.00  0.00     0.162 HD
ENDROOT
BRANCH   6  12
HETATM   12  C   UNL     1      -6.274   1.076 -34.034  1.00  0.00    -0.035 A 
HETATM   13  C   UNL     1      -7.100   0.398 -34.944  1.00  0.00     0.012 A 
HETATM   14  C   UNL     1      -7.078  -0.998 -35.035  1.00  0.00     0.037 A 
HETATM   15  C   UNL     1      -6.227  -1.754 -34.231  1.00  0.00     0.068 A 
HETATM   16  C   UNL     1      -5.388  -1.098 -33.335  1.00  0.00     0.037 A 
HETATM   17  C   UNL     1      -5.409   0.300 -33.242  1.00  0.00     0.012 A 
BRANCH  15  18
HETATM   18  O   UNL     1      -6.312  -3.104 -34.422  1.00  0.00    -0.356 OA
HETATM   19  C   UNL     1      -5.098  -3.795 -34.686  1.00  0.00     0.210 C 
ENDBRANCH  15  18
ENDBRANCH   6  12
BRANCH   8  20
HETATM   20  C   UNL     1      -7.072   3.493 -30.213  1.00  0.00     0.409 C 
HETATM   21  F   UNL     1      -7.787   2.953 -29.203  1.00  0.00    -0.169 F 
HETATM   22  F   UNL     1      -5.771   3.450 -29.819  1.00  0.00    -0.169 F 
HETATM   23  F   UNL     1      -7.402   4.800 -30.311  1.00  0.00    -0.169 F 
ENDBRANCH   8  20
BRANCH   1  24
HETATM   24  C   UNL     1     -11.992   3.442 -32.225  1.00  0.00     0.273 C 
HETATM   25  N   UNL     1     -12.700   2.394 -32.777  1.00  0.00    -0.356 N 
HETATM   26  H   UNL     1     -12.154   1.756 -33.353  1.00  0.00     0.162 HD
HETATM   27  O   UNL     1     -12.517   4.339 -31.575  1.00  0.00    -0.266 OA
BRANCH  25  28
HETATM   28  C   UNL     1     -14.141   2.323 -32.768  1.00  0.00     0.122 C 
BRANCH  28  29
HETATM   29  C   UNL     1     -14.670   1.088 -33.494  1.00  0.00     0.015 C 
HETATM   30  C   UNL     1     -13.599   0.026 -33.704  1.00  0.00     0.006 C 
ENDBRANCH  28  29
ENDBRANCH  25  28
ENDBRANCH   1  24
TORSDOF 6
ENDMDL
MODEL 5
REMARK VINA RESULT:      -7.5      1.759      2.152
REMARK  6 active torsions:
REMARK  status: ('A' for Active; 'I' for Inactive)
REMARK    1  A    between atoms: C_2  and  C_3 
REMARK    2  A    between atoms: C_3  and  N_4 
REMARK       I    between atoms: N_4  and  C_5 
REMARK    3  A    between atoms: C_5  and  C_6 
REMARK    4  A    between atoms: C_11  and  C_12 
REMARK    5  A    between atoms: C_15  and  O_16 
REMARK    6  A    between atoms: C_21  and  C_22 
ROOT
HETATM    1  C   UNL     1      -6.303   4.626 -32.309  1.00  0.00     0.170 A 
HETATM    2  N   UNL     1      -7.174   4.206 -33.260  1.00  0.00    -0.163 NA
HETATM    3  N   UNL     1      -7.713   3.092 -32.737  1.00  0.00    -0.238 N 
HETATM    4  C   UNL     1      -7.154   2.719 -31.543  1.00  0.00     0.145 A 
HETATM    5  N   UNL     1      -7.475   1.535 -30.957  1.00  0.00    -0.365 N 
HETATM    6  C   UNL     1      -8.143   0.490 -31.732  1.00  0.00     0.118 C 
HETATM    7  C   UNL     1      -9.228   1.155 -32.595  1.00  0.00     0.066 C 
HETATM    8  C   UNL     1      -8.644   2.267 -33.490  1.00  0.00     0.221 C 
HETATM    9  C   UNL     1      -6.275   3.724 -31.210  1.00  0.00     0.115 A 
HETATM   10 CL   UNL     1      -5.304   3.799 -29.820  1.00  0.00    -0.077 Cl
HETATM   11  H   UNL     1      -6.901   1.194 -30.185  1.00  0.00     0.162 HD
ENDROOT
BRANCH   6  12
HETATM   12  C   UNL     1      -7.186  -0.381 -32.538  1.00  0.00    -0.035 A 
HETATM   13  C   UNL     1      -5.847  -0.596 -32.177  1.00  0.00     0.012 A 
HETATM   14  C   UNL     1      -5.009  -1.394 -32.962  1.00  0.00     0.037 A 
HETATM   15  C   UNL     1      -5.482  -2.004 -34.122  1.00  0.00     0.068 A 
HETATM   16  C   UNL     1      -6.812  -1.816 -34.488  1.00  0.00     0.037 A 
HETATM   17  C   UNL     1      -7.654  -1.019 -33.701  1.00  0.00     0.012 A 
BRANCH  15  18
HETATM   18  O   UNL     1      -4.555  -2.750 -34.793  1.00  0.00    -0.356 OA
HETATM   19  C   UNL     1      -4.110  -3.945 -34.165  1.00  0.00     0.210 C 
ENDBRANCH  15  18
ENDBRANCH   6  12
BRANCH   8  20
HETATM   20  C   UNL     1      -9.772   3.088 -34.074  1.00  0.00     0.409 C 
HETATM   21  F   UNL     1     -10.745   2.341 -34.637  1.00  0.00    -0.169 F 
HETATM   22  F   UNL     1     -10.372   3.809 -33.089  1.00  0.00    -0.169 F 
HETATM   23  F   UNL     1      -9.339   3.979 -34.994  1.00  0.00    -0.169 F 
ENDBRANCH   8  20
BRANCH   1  24
HETATM   24  C   UNL     1      -5.500   5.842 -32.514  1.00  0.00     0.273 C 
HETATM   25  N   UNL     1      -4.201   5.568 -32.891  1.00  0.00    -0.356 N 
HETATM   26  H   UNL     1      -3.959   4.580 -32.930  1.00  0.00     0.162 HD
HETATM   27  O   UNL     1      -5.925   6.979 -32.341  1.00  0.00    -0.266 OA
BRANCH  25  28
HETATM   28  C   UNL     1      -3.176   6.579 -32.980  1.00  0.00     0.122 C 
BRANCH  28  29
HETATM   29  C   UNL     1      -1.786   5.984 -33.198  1.00  0.00     0.015 C 
HETATM   30  C   UNL     1      -1.575   5.492 -34.623  1.00  0.00     0.006 C 
ENDBRANCH  28  29
ENDBRANCH  25  28
ENDBRANCH   1  24
TORSDOF 6
ENDMDL
MODEL 6
REMARK VINA RESULT:      -7.4      4.134      5.617
REMARK  6 active torsions:
REMARK  status: ('A' for Active; 'I' for Inactive)
REMARK    1  A    between atoms: C_2  and  C_3 
REMARK    2  A    between atoms: C_3  and  N_4 
REMARK       I    between atoms: N_4  and  C_5 
REMARK    3  A    between atoms: C_5  and  C_6 
REMARK    4  A    between atoms: C_11  and  C_12 
REMARK    5  A    between atoms: C_15  and  O_16 
REMARK    6  A    between atoms: C_21  and  C_22 
ROOT
HETATM    1  C   UNL     1      -3.017   6.925 -30.500  1.00  0.00     0.170 A 
HETATM    2  N   UNL     1      -2.391   6.162 -31.430  1.00  0.00    -0.163 NA
HETATM    3  N   UNL     1      -3.324   5.979 -32.380  1.00  0.00    -0.238 N 
HETATM    4  C   UNL     1      -4.549   6.498 -32.055  1.00  0.00     0.145 A 
HETATM    5  N   UNL     1      -5.639   6.266 -32.834  1.00  0.00    -0.365 N 
HETATM    6  C   UNL     1      -5.616   5.193 -33.827  1.00  0.00     0.118 C 
HETATM    7  C   UNL     1      -4.251   5.226 -34.534  1.00  0.00     0.066 C 
HETATM    8  C   UNL     1      -3.085   5.122 -33.530  1.00  0.00     0.221 C 
HETATM    9  C   UNL     1      -4.370   7.168 -30.866  1.00  0.00     0.115 A 
HETATM   10 CL   UNL     1      -5.553   8.017 -29.995  1.00  0.00    -0.077 Cl
HETATM   11  H   UNL     1      -6.565   6.490 -32.467  1.00  0.00     0.162 HD
ENDROOT
BRANCH   6  12
HETATM   12  C   UNL     1      -5.963   3.822 -33.257  1.00  0.00    -0.035 A 
HETATM   13  C   UNL     1      -6.077   3.564 -31.882  1.00  0.00     0.012 A 
HETATM   14  C   UNL     1      -6.382   2.283 -31.413  1.00  0.00     0.037 A 
HETATM   15  C   UNL     1      -6.591   1.227 -32.298  1.00  0.00     0.068 A 
HETATM   16  C   UNL     1      -6.499   1.468 -33.667  1.00  0.00     0.037 A 
HETATM   17  C   UNL     1      -6.194   2.751 -34.139  1.00  0.00     0.012 A 
BRANCH  15  18
HETATM   18  O   UNL     1      -6.878   0.031 -31.704  1.00  0.00    -0.356 OA
HETATM   19  C   UNL     1      -6.436  -0.145 -30.364  1.00  0.00     0.210 C 
ENDBRANCH  15  18
ENDBRANCH   6  12
BRANCH   8  20
HETATM   20  C   UNL     1      -1.788   5.470 -34.226  1.00  0.00     0.409 C 
HETATM   21  F   UNL     1      -0.692   5.062 -33.552  1.00  0.00    -0.169 F 
HETATM   22  F   UNL     1      -1.737   4.854 -35.437  1.00  0.00    -0.169 F 
HETATM   23  F   UNL     1      -1.668   6.795 -34.462  1.00  0.00    -0.169 F 
ENDBRANCH   8  20
BRANCH   1  24
HETATM   24  C   UNL     1      -2.312   7.346 -29.279  1.00  0.00     0.273 C 
HETATM   25  N   UNL     1      -1.343   6.446 -28.884  1.00  0.00    -0.356 N 
HETATM   26  H   UNL     1      -1.278   5.601 -29.448  1.00  0.00     0.162 HD
HETATM   27  O   UNL     1      -2.571   8.371 -28.658  1.00  0.00    -0.266 OA
BRANCH  25  28
HETATM   28  C   UNL     1      -0.641   6.545 -27.628  1.00  0.00     0.122 C 
BRANCH  28  29
HETATM   29  C   UNL     1       0.854   6.802 -27.813  1.00  0.00     0.015 C 
HETATM   30  C   UNL     1       1.162   8.255 -28.149  1.00  0.00     0.006 C 
ENDBRANCH  28  29
ENDBRANCH  25  28
ENDBRANCH   1  24
TORSDOF 6
ENDMDL
MODEL 7
REMARK VINA RESULT:      -7.4      3.340      6.415
REMARK  6 active torsions:
REMARK  status: ('A' for Active; 'I' for Inactive)
REMARK    1  A    between atoms: C_2  and  C_3 
REMARK    2  A    between atoms: C_3  and  N_4 
REMARK       I    between atoms: N_4  and  C_5 
REMARK    3  A    between atoms: C_5  and  C_6 
REMARK    4  A    between atoms: C_11  and  C_12 
REMARK    5  A    between atoms: C_15  and  O_16 
REMARK    6  A    between atoms: C_21  and  C_22 
ROOT
HETATM    1  C   UNL     1      -5.563   0.481 -32.460  1.00  0.00     0.170 A 
HETATM    2  N   UNL     1      -5.716   1.547 -33.284  1.00  0.00    -0.163 NA
HETATM    3  N   UNL     1      -6.643   2.301 -32.669  1.00  0.00    -0.238 N 
HETATM    4  C   UNL     1      -7.167   1.720 -31.544  1.00  0.00     0.145 A 
HETATM    5  N   UNL     1      -8.221   2.279 -30.891  1.00  0.00    -0.365 N 
HETATM    6  C   UNL     1      -9.034   3.301 -31.550  1.00  0.00     0.118 C 
HETATM    7  C   UNL     1      -8.087   4.261 -32.290  1.00  0.00     0.066 C 
HETATM    8  C   UNL     1      -7.172   3.511 -33.279  1.00  0.00     0.221 C 
HETATM    9  C   UNL     1      -6.447   0.564 -31.349  1.00  0.00     0.115 A 
HETATM   10 CL   UNL     1      -6.655  -0.557 -30.093  1.00  0.00    -0.077 Cl
HETATM   11  H   UNL     1      -8.714   1.728 -30.188  1.00  0.00     0.162 HD
ENDROOT
BRANCH   6  12
HETATM   12  C   UNL     1     -10.128   2.730 -32.445  1.00  0.00    -0.035 A 
HETATM   13  C   UNL     1     -10.196   1.379 -32.816  1.00  0.00     0.012 A 
HETATM   14  C   UNL     1     -11.215   0.912 -33.653  1.00  0.00     0.037 A 
HETATM   15  C   UNL     1     -12.197   1.775 -34.135  1.00  0.00     0.068 A 
HETATM   16  C   UNL     1     -12.156   3.117 -33.764  1.00  0.00     0.037 A 
HETATM   17  C   UNL     1     -11.136   3.586 -32.925  1.00  0.00     0.012 A 
BRANCH  15  18
HETATM   18  O   UNL     1     -13.127   1.187 -34.944  1.00  0.00    -0.356 OA
HETATM   19  C   UNL     1     -14.365   0.825 -34.347  1.00  0.00     0.210 C 
ENDBRANCH  15  18
ENDBRANCH   6  12
BRANCH   8  20
HETATM   20  C   UNL     1      -6.065   4.433 -33.741  1.00  0.00     0.409 C 
HETATM   21  F   UNL     1      -6.455   5.720 -33.862  1.00  0.00    -0.169 F 
HETATM   22  F   UNL     1      -5.056   4.429 -32.830  1.00  0.00    -0.169 F 
HETATM   23  F   UNL     1      -5.526   4.044 -34.917  1.00  0.00    -0.169 F 
ENDBRANCH   8  20
BRANCH   1  24
HETATM   24  C   UNL     1      -4.614  -0.593 -32.795  1.00  0.00     0.273 C 
HETATM   25  N   UNL     1      -5.101  -1.455 -33.756  1.00  0.00    -0.356 N 
HETATM   26  H   UNL     1      -6.052  -1.269 -34.067  1.00  0.00     0.162 HD
HETATM   27  O   UNL     1      -3.520  -0.731 -32.260  1.00  0.00    -0.266 OA
BRANCH  25  28
HETATM   28  C   UNL     1      -4.436  -2.682 -34.124  1.00  0.00     0.122 C 
BRANCH  28  29
HETATM   29  C   UNL     1      -5.296  -3.563 -35.029  1.00  0.00     0.015 C 
HETATM   30  C   UNL     1      -6.784  -3.427 -34.739  1.00  0.00     0.006 C 
ENDBRANCH  28  29
ENDBRANCH  25  28
ENDBRANCH   1  24
TORSDOF 6
ENDMDL
MODEL 8
REMARK VINA RESULT:      -7.2      3.511      4.865
REMARK  6 active torsions:
REMARK  status: ('A' for Active; 'I' for Inactive)
REMARK    1  A    between atoms: C_2  and  C_3 
REMARK    2  A    between atoms: C_3  and  N_4 
REMARK       I    between atoms: N_4  and  C_5 
REMARK    3  A    between atoms: C_5  and  C_6 
REMARK    4  A    between atoms: C_11  and  C_12 
REMARK    5  A    between atoms: C_15  and  O_16 
REMARK    6  A    between atoms: C_21  and  C_22 
ROOT
HETATM    1  C   UNL     1      -4.928   4.249 -32.019  1.00  0.00     0.170 A 
HETATM    2  N   UNL     1      -5.466   3.298 -31.214  1.00  0.00    -0.163 NA
HETATM    3  N   UNL     1      -5.960   2.389 -32.071  1.00  0.00    -0.238 N 
HETATM    4  C   UNL     1      -5.860   2.761 -33.386  1.00  0.00     0.145 A 
HETATM    5  N   UNL     1      -6.448   2.030 -34.370  1.00  0.00    -0.365 N 
HETATM    6  C   UNL     1      -7.476   1.044 -34.036  1.00  0.00     0.118 C 
HETATM    7  C   UNL     1      -7.016   0.280 -32.783  1.00  0.00     0.066 C 
HETATM    8  C   UNL     1      -6.716   1.236 -31.610  1.00  0.00     0.221 C 
HETATM    9  C   UNL     1      -5.145   3.937 -33.390  1.00  0.00     0.115 A 
HETATM   10 CL   UNL     1      -4.708   4.851 -34.752  1.00  0.00    -0.077 Cl
HETATM   11  H   UNL     1      -6.530   2.433 -35.304  1.00  0.00     0.162 HD
ENDROOT
BRANCH   6  12
HETATM   12  C   UNL     1      -8.873   1.637 -33.897  1.00  0.00    -0.035 A 
HETATM   13  C   UNL     1      -9.147   3.006 -34.035  1.00  0.00     0.012 A 
HETATM   14  C   UNL     1     -10.447   3.499 -33.882  1.00  0.00     0.037 A 
HETATM   15  C   UNL     1     -11.509   2.642 -33.598  1.00  0.00     0.068 A 
HETATM   16  C   UNL     1     -11.259   1.278 -33.474  1.00  0.00     0.037 A 
HETATM   17  C   UNL     1      -9.957   0.783 -33.628  1.00  0.00     0.012 A 
BRANCH  15  18
HETATM   18  O   UNL     1     -12.721   3.258 -33.471  1.00  0.00    -0.356 OA
HETATM   19  C   UNL     1     -13.851   2.421 -33.262  1.00  0.00     0.210 C 
ENDBRANCH  15  18
ENDBRANCH   6  12
BRANCH   8  20
HETATM   20  C   UNL     1      -5.980   0.485 -30.523  1.00  0.00     0.409 C 
HETATM   21  F   UNL     1      -6.099   1.052 -29.304  1.00  0.00    -0.169 F 
HETATM   22  F   UNL     1      -6.491  -0.770 -30.406  1.00  0.00    -0.169 F 
HETATM   23  F   UNL     1      -4.664   0.342 -30.794  1.00  0.00    -0.169 F 
ENDBRANCH   8  20
BRANCH   1  24
HETATM   24  C   UNL     1      -4.277   5.436 -31.444  1.00  0.00     0.273 C 
HETATM   25  N   UNL     1      -2.908   5.300 -31.344  1.00  0.00    -0.356 N 
HETATM   26  H   UNL     1      -2.539   4.395 -31.631  1.00  0.00     0.162 HD
HETATM   27  O   UNL     1      -4.884   6.432 -31.063  1.00  0.00    -0.266 OA
BRANCH  25  28
HETATM   28  C   UNL     1      -2.069   6.249 -30.654  1.00  0.00     0.122 C 
BRANCH  28  29
HETATM   29  C   UNL     1      -1.108   6.972 -31.597  1.00  0.00     0.015 C 
HETATM   30  C   UNL     1       0.352   6.776 -31.211  1.00  0.00     0.006 C 
ENDBRANCH  28  29
ENDBRANCH  25  28
ENDBRANCH   1  24
TORSDOF 6
ENDMDL
MODEL 9
REMARK VINA RESULT:      -7.1      5.352      7.442
REMARK  6 active torsions:
REMARK  status: ('A' for Active; 'I' for Inactive)
REMARK    1  A    between atoms: C_2  and  C_3 
REMARK    2  A    between atoms: C_3  and  N_4 
REMARK       I    between atoms: N_4  and  C_5 
REMARK    3  A    between atoms: C_5  and  C_6 
REMARK    4  A    between atoms: C_11  and  C_12 
REMARK    5  A    between atoms: C_15  and  O_16 
REMARK    6  A    between atoms: C_21  and  C_22 
ROOT
HETATM    1  C   UNL     1      -1.971   7.842 -28.653  1.00  0.00     0.170 A 
HETATM    2  N   UNL     1      -1.102   6.824 -28.876  1.00  0.00    -0.163 NA
HETATM    3  N   UNL     1      -1.448   6.363 -30.090  1.00  0.00    -0.238 N 
HETATM    4  C   UNL     1      -2.562   6.967 -30.610  1.00  0.00     0.145 A 
HETATM    5  N   UNL     1      -3.135   6.514 -31.757  1.00  0.00    -0.365 N 
HETATM    6  C   UNL     1      -2.799   5.186 -32.270  1.00  0.00     0.118 C 
HETATM    7  C   UNL     1      -1.281   4.989 -32.127  1.00  0.00     0.066 C 
HETATM    8  C   UNL     1      -0.814   5.191 -30.672  1.00  0.00     0.221 C 
HETATM    9  C   UNL     1      -2.893   7.970 -29.728  1.00  0.00     0.115 A 
HETATM   10 CL   UNL     1      -4.189   9.056 -29.870  1.00  0.00    -0.077 Cl
HETATM   11  H   UNL     1      -4.066   6.847 -32.009  1.00  0.00     0.162 HD
ENDROOT
BRANCH   6  12
HETATM   12  C   UNL     1      -3.612   4.062 -31.639  1.00  0.00    -0.035 A 
HETATM   13  C   UNL     1      -3.310   2.702 -31.808  1.00  0.00     0.012 A 
HETATM   14  C   UNL     1      -4.100   1.710 -31.218  1.00  0.00     0.037 A 
HETATM   15  C   UNL     1      -5.206   2.045 -30.438  1.00  0.00     0.068 A 
HETATM   16  C   UNL     1      -5.511   3.390 -30.246  1.00  0.00     0.037 A 
HETATM   17  C   UNL     1      -4.720   4.385 -30.835  1.00  0.00     0.012 A 
BRANCH  15  18
HETATM   18  O   UNL     1      -5.889   0.978 -29.927  1.00  0.00    -0.356 OA
HETATM   19  C   UNL     1      -6.264  -0.044 -30.841  1.00  0.00     0.210 C 
ENDBRANCH  15  18
ENDBRANCH   6  12
BRANCH   8  20
HETATM   20  C   UNL     1       0.695   5.298 -30.636  1.00  0.00     0.409 C 
HETATM   21  F   UNL     1       1.311   4.473 -31.509  1.00  0.00    -0.169 F 
HETATM   22  F   UNL     1       1.073   6.559 -30.977  1.00  0.00    -0.169 F 
HETATM   23  F   UNL     1       1.200   5.063 -29.405  1.00  0.00    -0.169 F 
ENDBRANCH   8  20
BRANCH   1  24
HETATM   24  C   UNL     1      -1.913   8.614 -27.402  1.00  0.00     0.273 C 
HETATM   25  N   UNL     1      -0.623   8.929 -27.026  1.00  0.00    -0.356 N 
HETATM   26  H   UNL     1       0.108   8.552 -27.625  1.00  0.00     0.162 HD
HETATM   27  O   UNL     1      -2.900   8.923 -26.742  1.00  0.00    -0.266 OA
BRANCH  25  28
HETATM   28  C   UNL     1      -0.295   9.524 -25.753  1.00  0.00     0.122 C 
BRANCH  28  29
HETATM   29  C   UNL     1       1.145   9.242 -25.331  1.00  0.00     0.015 C 
HETATM   30  C   UNL     1       1.821   8.197 -26.207  1.00  0.00     0.006 C 
ENDBRANCH  28  29
ENDBRANCH  25  28
ENDBRANCH   1  24
TORSDOF 6
ENDMDL
MODEL 10
REMARK VINA RESULT:      -6.8      5.244      7.309
REMARK  6 active torsions:
REMARK  status: ('A' for Active; 'I' for Inactive)
REMARK    1  A    between atoms: C_2  and  C_3 
REMARK    2  A    between atoms: C_3  and  N_4 
REMARK       I    between atoms: N_4  and  C_5 
REMARK    3  A    between atoms: C_5  and  C_6 
REMARK    4  A    between atoms: C_11  and  C_12 
REMARK    5  A    between atoms: C_15  and  O_16 
REMARK    6  A    between atoms: C_21  and  C_22 
ROOT
HETATM    1  C   UNL     1      -2.774   8.054 -29.152  1.00  0.00     0.170 A 
HETATM    2  N   UNL     1      -1.839   7.071 -29.165  1.00  0.00    -0.163 NA
HETATM    3  N   UNL     1      -1.866   6.614 -30.428  1.00  0.00    -0.238 N 
HETATM    4  C   UNL     1      -2.845   7.184 -31.198  1.00  0.00     0.145 A 
HETATM    5  N   UNL     1      -3.109   6.726 -32.451  1.00  0.00    -0.365 N 
HETATM    6  C   UNL     1      -2.609   5.418 -32.874  1.00  0.00     0.118 C 
HETATM    7  C   UNL     1      -1.163   5.274 -32.372  1.00  0.00     0.066 C 
HETATM    8  C   UNL     1      -1.066   5.474 -30.846  1.00  0.00     0.221 C 
HETATM    9  C   UNL     1      -3.416   8.163 -30.417  1.00  0.00     0.115 A 
HETATM   10 CL   UNL     1      -4.681   9.202 -30.862  1.00  0.00    -0.077 Cl
HETATM   11  H   UNL     1      -3.965   7.028 -32.918  1.00  0.00     0.162 HD
ENDROOT
BRANCH   6  12
HETATM   12  C   UNL     1      -3.506   4.256 -32.461  1.00  0.00    -0.035 A 
HETATM   13  C   UNL     1      -4.839   4.417 -32.053  1.00  0.00     0.012 A 
HETATM   14  C   UNL     1      -5.612   3.316 -31.670  1.00  0.00     0.037 A 
HETATM   15  C   UNL     1      -5.083   2.027 -31.690  1.00  0.00     0.068 A 
HETATM   16  C   UNL     1      -3.767   1.846 -32.108  1.00  0.00     0.037 A 
HETATM   17  C   UNL     1      -2.991   2.948 -32.493  1.00  0.00     0.012 A 
BRANCH  15  18
HETATM   18  O   UNL     1      -5.947   1.049 -31.287  1.00  0.00    -0.356 OA
HETATM   19  C   UNL     1      -5.966   0.737 -29.900  1.00  0.00     0.210 C 
ENDBRANCH  15  18
ENDBRANCH   6  12
BRANCH   8  20
HETATM   20  C   UNL     1       0.385   5.635 -30.449  1.00  0.00     0.409 C 
HETATM   21  F   UNL     1       0.633   5.281 -29.170  1.00  0.00    -0.169 F 
HETATM   22  F   UNL     1       1.163   4.830 -31.221  1.00  0.00    -0.169 F 
HETATM   23  F   UNL     1       0.833   6.896 -30.632  1.00  0.00    -0.169 F 
ENDBRANCH   8  20
BRANCH   1  24
HETATM   24  C   UNL     1      -3.048   8.811 -27.921  1.00  0.00     0.273 C 
HETATM   25  N   UNL     1      -1.901   9.287 -27.319  1.00  0.00    -0.356 N 
HETATM   26  H   UNL     1      -1.029   9.017 -27.770  1.00  0.00     0.162 HD
HETATM   27  O   UNL     1      -4.170   8.979 -27.456  1.00  0.00    -0.266 OA
BRANCH  25  28
HETATM   28  C   UNL     1      -1.892   9.904 -26.015  1.00  0.00     0.122 C 
BRANCH  28  29
HETATM   29  C   UNL     1      -1.642   8.896 -24.894  1.00  0.00     0.015 C 
HETATM   30  C   UNL     1      -2.900   8.580 -24.097  1.00  0.00     0.006 C 
ENDBRANCH  28  29
ENDBRANCH  25  28
ENDBRANCH   1  24
TORSDOF 6
ENDMDL
