MODEL 1
REMARK VINA RESULT:      -8.5      0.000      0.000
REMARK  7 active torsions:
REMARK  status: ('A' for Active; 'I' for Inactive)
REMARK    1  A    between atoms: N_3  and  C_4 
REMARK    2  A    between atoms: C_12  and  C_13 
REMARK       I    between atoms: C_13  and  N_14 
REMARK    3  A    between atoms: N_14  and  C_15 
REMARK    4  A    between atoms: C_15  and  C_16 
REMARK    5  A    between atoms: C_16  and  O_17 
REMARK    6  A    between atoms: C_16  and  C_18 
REMARK    7  A    between atoms: C_21  and  O_22 
ROOT
HETATM    1  C   UNL     1      -6.171   2.547 -32.862  1.00  0.00     0.255 C 
HETATM    2  N   UNL     1      -5.567   3.532 -33.601  1.00  0.00    -0.350 N 
HETATM    3  O   UNL     1      -6.641   2.751 -31.747  1.00  0.00    -0.268 OA
HETATM    4  H   UNL     1      -5.256   3.347 -34.542  1.00  0.00     0.163 HD
ENDROOT
BRANCH   2   5
HETATM    5  C   UNL     1      -5.396   4.905 -33.123  1.00  0.00     0.114 C 
HETATM    6  C   UNL     1      -6.734   5.633 -33.266  1.00  0.00     0.035 C 
BRANCH   5   7
HETATM    7  C   UNL     1      -4.281   5.650 -33.907  1.00  0.00     0.173 C 
BRANCH   7   8
HETATM    8  O   UNL     1      -4.075   5.031 -35.185  1.00  0.00    -0.389 OA
HETATM    9  H   UNL     1      -4.897   4.554 -35.396  1.00  0.00     0.210 HD
ENDBRANCH   7   8
BRANCH   7  10
HETATM   10  C   UNL     1      -2.969   5.752 -33.152  1.00  0.00    -0.028 A 
HETATM   11  C   UNL     1      -2.618   4.764 -32.222  1.00  0.00     0.012 A 
HETATM   12  C   UNL     1      -1.401   4.833 -31.537  1.00  0.00     0.037 A 
HETATM   13  C   UNL     1      -0.508   5.879 -31.772  1.00  0.00     0.068 A 
HETATM   14  C   UNL     1      -0.851   6.871 -32.689  1.00  0.00     0.037 A 
HETATM   15  C   UNL     1      -2.072   6.806 -33.372  1.00  0.00     0.012 A 
BRANCH  13  16
HETATM   16  O   UNL     1       0.649   5.821 -31.045  1.00  0.00    -0.356 OA
HETATM   17  C   UNL     1       0.620   5.030 -29.864  1.00  0.00     0.210 C 
ENDBRANCH  13  16
ENDBRANCH   7  10
ENDBRANCH   5   7
ENDBRANCH   2   5
BRANCH   1  18
HETATM   18  C   UNL     1      -6.278   1.240 -33.498  1.00  0.00     0.075 C 
HETATM   19  C   UNL     1      -5.966  -0.045 -33.060  1.00  0.00     0.051 C 
HETATM   20  C   UNL     1      -5.518  -0.553 -31.732  1.00  0.00     0.071 C 
HETATM   21  N   UNL     1      -6.180  -0.892 -34.151  1.00  0.00    -0.220 N 
HETATM   22  N   UNL     1      -6.794  -0.234 -35.173  1.00  0.00    -0.177 NA
HETATM   23  C   UNL     1      -6.817   1.037 -34.786  1.00  0.00     0.158 C 
BRANCH  21  24
HETATM   24  C   UNL     1      -5.827  -2.280 -34.296  1.00  0.00     0.150 A 
HETATM   25  N   UNL     1      -4.545  -2.670 -34.057  1.00  0.00    -0.241 NA
HETATM   26  C   UNL     1      -4.247  -3.976 -34.234  1.00  0.00     0.119 A 
HETATM   27  C   UNL     1      -5.165  -4.930 -34.636  1.00  0.00     0.019 A 
HETATM   28  C   UNL     1      -6.470  -4.523 -34.875  1.00  0.00     0.005 A 
HETATM   29  C   UNL     1      -6.810  -3.182 -34.709  1.00  0.00     0.052 A 
ENDBRANCH  21  24
ENDBRANCH   1  18
TORSDOF 7
ENDMDL
MODEL 2
REMARK VINA RESULT:      -8.5      2.786      8.110
REMARK  7 active torsions:
REMARK  status: ('A' for Active; 'I' for Inactive)
REMARK    1  A    between atoms: N_3  and  C_4 
REMARK    2  A    between atoms: C_12  and  C_13 
REMARK       I    between atoms: C_13  and  N_14 
REMARK    3  A    between atoms: N_14  and  C_15 
REMARK    4  A    between atoms: C_15  and  C_16 
REMARK    5  A    between atoms: C_16  and  O_17 
REMARK    6  A    between atoms: C_16  and  C_18 
REMARK    7  A    between atoms: C_21  and  O_22 
ROOT
HETATM    1  C   UNL     1      -6.031   3.046 -33.309  1.00  0.00     0.255 C 
HETATM    2  N   UNL     1      -6.831   2.772 -32.229  1.00  0.00    -0.350 N 
HETATM    3  O   UNL     1      -6.253   2.592 -34.427  1.00  0.00    -0.268 OA
HETATM    4  H   UNL     1      -6.660   3.219 -31.341  1.00  0.00     0.163 HD
ENDROOT
BRANCH   2   5
HETATM    5  C   UNL     1      -8.001   1.894 -32.295  1.00  0.00     0.114 C 
HETATM    6  C   UNL     1      -9.159   2.584 -31.571  1.00  0.00     0.035 C 
BRANCH   5   7
HETATM    7  C   UNL     1      -7.711   0.504 -31.665  1.00  0.00     0.173 C 
BRANCH   7   8
HETATM    8  O   UNL     1      -7.117   0.662 -30.368  1.00  0.00    -0.389 OA
HETATM    9  H   UNL     1      -7.758   1.160 -29.830  1.00  0.00     0.210 HD
ENDBRANCH   7   8
BRANCH   7  10
HETATM   10  C   UNL     1      -6.850  -0.392 -32.536  1.00  0.00    -0.028 A 
HETATM   11  C   UNL     1      -5.522  -0.656 -32.171  1.00  0.00     0.012 A 
HETATM   12  C   UNL     1      -4.726  -1.499 -32.952  1.00  0.00     0.037 A 
HETATM   13  C   UNL     1      -5.238  -2.102 -34.101  1.00  0.00     0.068 A 
HETATM   14  C   UNL     1      -6.554  -1.840 -34.476  1.00  0.00     0.037 A 
HETATM   15  C   UNL     1      -7.352  -0.991 -33.699  1.00  0.00     0.012 A 
BRANCH  13  16
HETATM   16  O   UNL     1      -4.358  -2.911 -34.766  1.00  0.00    -0.356 OA
HETATM   17  C   UNL     1      -3.950  -4.097 -34.096  1.00  0.00     0.210 C 
ENDBRANCH  13  16
ENDBRANCH   7  10
ENDBRANCH   5   7
ENDBRANCH   2   5
BRANCH   1  18
HETATM   18  C   UNL     1      -4.920   3.958 -33.072  1.00  0.00     0.075 C 
HETATM   19  C   UNL     1      -3.794   3.873 -32.256  1.00  0.00     0.051 C 
HETATM   20  C   UNL     1      -3.265   2.760 -31.418  1.00  0.00     0.071 C 
HETATM   21  N   UNL     1      -3.141   5.105 -32.362  1.00  0.00    -0.220 N 
HETATM   22  N   UNL     1      -3.688   5.869 -33.347  1.00  0.00    -0.177 NA
HETATM   23  C   UNL     1      -4.763   5.192 -33.738  1.00  0.00     0.158 C 
BRANCH  21  24
HETATM   24  C   UNL     1      -2.043   5.612 -31.582  1.00  0.00     0.150 A 
HETATM   25  N   UNL     1      -2.302   6.332 -30.457  1.00  0.00    -0.241 NA
HETATM   26  C   UNL     1      -1.244   6.817 -29.770  1.00  0.00     0.119 A 
HETATM   27  C   UNL     1       0.074   6.618 -30.140  1.00  0.00     0.019 A 
HETATM   28  C   UNL     1       0.328   5.880 -31.288  1.00  0.00     0.005 A 
HETATM   29  C   UNL     1      -0.740   5.371 -32.024  1.00  0.00     0.052 A 
ENDBRANCH  21  24
ENDBRANCH   1  18
TORSDOF 7
ENDMDL
MODEL 3
REMARK VINA RESULT:      -8.4      0.626      1.018
REMARK  7 active torsions:
REMARK  status: ('A' for Active; 'I' for Inactive)
REMARK    1  A    between atoms: N_3  and  C_4 
REMARK    2  A    between atoms: C_12  and  C_13 
REMARK       I    between atoms: C_13  and  N_14 
REMARK    3  A    between atoms: N_14  and  C_15 
REMARK    4  A    between atoms: C_15  and  C_16 
REMARK    5  A    between atoms: C_16  and  O_17 
REMARK    6  A    between atoms: C_16  and  C_18 
REMARK    7  A    between atoms: C_21  and  O_22 
ROOT
HETATM    1  C   UNL     1      -5.901   2.634 -32.788  1.00  0.00     0.255 C 
HETATM    2  N   UNL     1      -5.429   3.644 -33.587  1.00  0.00    -0.350 N 
HETATM    3  O   UNL     1      -6.197   2.807 -31.610  1.00  0.00    -0.268 OA
HETATM    4  H   UNL     1      -5.262   3.484 -34.568  1.00  0.00     0.163 HD
ENDROOT
BRANCH   2   5
HETATM    5  C   UNL     1      -5.203   5.010 -33.109  1.00  0.00     0.114 C 
HETATM    6  C   UNL     1      -6.535   5.762 -33.159  1.00  0.00     0.035 C 
BRANCH   5   7
HETATM    7  C   UNL     1      -4.127   5.743 -33.956  1.00  0.00     0.173 C 
BRANCH   7   8
HETATM    8  O   UNL     1      -3.871   5.019 -35.168  1.00  0.00    -0.389 OA
HETATM    9  H   UNL     1      -3.061   5.400 -35.551  1.00  0.00     0.210 HD
ENDBRANCH   7   8
BRANCH   7  10
HETATM   10  C   UNL     1      -2.832   5.997 -33.209  1.00  0.00    -0.028 A 
HETATM   11  C   UNL     1      -2.506   7.295 -32.793  1.00  0.00     0.012 A 
HETATM   12  C   UNL     1      -1.327   7.538 -32.082  1.00  0.00     0.037 A 
HETATM   13  C   UNL     1      -0.457   6.495 -31.764  1.00  0.00     0.068 A 
HETATM   14  C   UNL     1      -0.768   5.202 -32.178  1.00  0.00     0.037 A 
HETATM   15  C   UNL     1      -1.946   4.957 -32.895  1.00  0.00     0.012 A 
BRANCH  13  16
HETATM   16  O   UNL     1       0.653   6.868 -31.058  1.00  0.00    -0.356 OA
HETATM   17  C   UNL     1       0.470   7.128 -29.672  1.00  0.00     0.210 C 
ENDBRANCH  13  16
ENDBRANCH   7  10
ENDBRANCH   5   7
ENDBRANCH   2   5
BRANCH   1  18
HETATM   18  C   UNL     1      -6.088   1.340 -33.430  1.00  0.00     0.075 C 
HETATM   19  C   UNL     1      -5.806   0.039 -33.019  1.00  0.00     0.051 C 
HETATM   20  C   UNL     1      -5.317  -0.500 -31.719  1.00  0.00     0.071 C 
HETATM   21  N   UNL     1      -6.103  -0.787 -34.108  1.00  0.00    -0.220 N 
HETATM   22  N   UNL     1      -6.739  -0.095 -35.093  1.00  0.00    -0.177 NA
HETATM   23  C   UNL     1      -6.694   1.172 -34.693  1.00  0.00     0.158 C 
BRANCH  21  24
HETATM   24  C   UNL     1      -5.812  -2.185 -34.282  1.00  0.00     0.150 A 
HETATM   25  N   UNL     1      -4.531  -2.622 -34.136  1.00  0.00    -0.241 NA
HETATM   26  C   UNL     1      -4.294  -3.937 -34.339  1.00  0.00     0.119 A 
HETATM   27  C   UNL     1      -5.272  -4.856 -34.677  1.00  0.00     0.019 A 
HETATM   28  C   UNL     1      -6.575  -4.401 -34.822  1.00  0.00     0.005 A 
HETATM   29  C   UNL     1      -6.854  -3.049 -34.627  1.00  0.00     0.052 A 
ENDBRANCH  21  24
ENDBRANCH   1  18
TORSDOF 7
ENDMDL
MODEL 4
REMARK VINA RESULT:      -8.2      3.501      9.701
REMARK  7 active torsions:
REMARK  status: ('A' for Active; 'I' for Inactive)
REMARK    1  A    between atoms: N_3  and  C_4 
REMARK    2  A    between atoms: C_12  and  C_13 
REMARK       I    between atoms: C_13  and  N_14 
REMARK    3  A    between atoms: N_14  and  C_15 
REMARK    4  A    between atoms: C_15  and  C_16 
REMARK    5  A    between atoms: C_16  and  O_17 
REMARK    6  A    between atoms: C_16  and  C_18 
REMARK    7  A    between atoms: C_21  and  O_22 
ROOT
HETATM    1  C   UNL     1      -2.609   4.233 -32.101  1.00  0.00     0.255 C 
HETATM    2  N   UNL     1      -3.601   3.376 -31.700  1.00  0.00    -0.350 N 
HETATM    3  O   UNL     1      -2.140   4.216 -33.235  1.00  0.00    -0.268 OA
HETATM    4  H   UNL     1      -4.013   3.464 -30.783  1.00  0.00     0.163 HD
ENDROOT
BRANCH   2   5
HETATM    5  C   UNL     1      -4.172   2.343 -32.566  1.00  0.00     0.114 C 
HETATM    6  C   UNL     1      -5.471   2.887 -33.168  1.00  0.00     0.035 C 
BRANCH   5   7
HETATM    7  C   UNL     1      -4.439   1.025 -31.790  1.00  0.00     0.173 C 
BRANCH   7   8
HETATM    8  O   UNL     1      -3.237   0.575 -31.149  1.00  0.00    -0.389 OA
HETATM    9  H   UNL     1      -2.646   1.348 -31.097  1.00  0.00     0.210 HD
ENDBRANCH   7   8
BRANCH   7  10
HETATM   10  C   UNL     1      -5.026  -0.080 -32.648  1.00  0.00    -0.028 A 
HETATM   11  C   UNL     1      -4.177  -0.975 -33.314  1.00  0.00     0.012 A 
HETATM   12  C   UNL     1      -4.705  -2.012 -34.089  1.00  0.00     0.037 A 
HETATM   13  C   UNL     1      -6.084  -2.184 -34.206  1.00  0.00     0.068 A 
HETATM   14  C   UNL     1      -6.937  -1.296 -33.554  1.00  0.00     0.037 A 
HETATM   15  C   UNL     1      -6.410  -0.253 -32.782  1.00  0.00     0.012 A 
BRANCH  13  16
HETATM   16  O   UNL     1      -6.467  -3.242 -34.984  1.00  0.00    -0.356 OA
HETATM   17  C   UNL     1      -5.704  -4.435 -34.857  1.00  0.00     0.210 C 
ENDBRANCH  13  16
ENDBRANCH   7  10
ENDBRANCH   5   7
ENDBRANCH   2   5
BRANCH   1  18
HETATM   18  C   UNL     1      -2.170   5.214 -31.118  1.00  0.00     0.075 C 
HETATM   19  C   UNL     1      -0.929   5.473 -30.539  1.00  0.00     0.051 C 
HETATM   20  C   UNL     1       0.423   4.908 -30.810  1.00  0.00     0.071 C 
HETATM   21  N   UNL     1      -1.146   6.466 -29.579  1.00  0.00    -0.220 N 
HETATM   22  N   UNL     1      -2.406   6.974 -29.671  1.00  0.00    -0.177 NA
HETATM   23  C   UNL     1      -3.013   6.201 -30.565  1.00  0.00     0.158 C 
BRANCH  21  24
HETATM   24  C   UNL     1      -0.243   6.955 -28.570  1.00  0.00     0.150 A 
HETATM   25  N   UNL     1      -0.313   6.444 -27.310  1.00  0.00    -0.241 NA
HETATM   26  C   UNL     1       0.531   6.951 -26.384  1.00  0.00     0.119 A 
HETATM   27  C   UNL     1       1.456   7.947 -26.645  1.00  0.00     0.019 A 
HETATM   28  C   UNL     1       1.520   8.460 -27.933  1.00  0.00     0.005 A 
HETATM   29  C   UNL     1       0.659   7.965 -28.911  1.00  0.00     0.052 A 
ENDBRANCH  21  24
ENDBRANCH   1  18
TORSDOF 7
ENDMDL
MODEL 5
REMARK VINA RESULT:      -8.1      1.758      2.289
REMARK  7 active torsions:
REMARK  status: ('A' for Active; 'I' for Inactive)
REMARK    1  A    between atoms: N_3  and  C_4 
REMARK    2  A    between atoms: C_12  and  C_13 
REMARK       I    between atoms: C_13  and  N_14 
REMARK    3  A    between atoms: N_14  and  C_15 
REMARK    4  A    between atoms: C_15  and  C_16 
REMARK    5  A    between atoms: C_16  and  O_17 
REMARK    6  A    between atoms: C_16  and  C_18 
REMARK    7  A    between atoms: C_21  and  O_22 
ROOT
HETATM    1  C   UNL     1      -6.307   2.415 -32.623  1.00  0.00     0.255 C 
HETATM    2  N   UNL     1      -7.423   3.205 -32.726  1.00  0.00    -0.350 N 
HETATM    3  O   UNL     1      -5.339   2.725 -31.937  1.00  0.00    -0.268 OA
HETATM    4  H   UNL     1      -8.229   2.887 -33.242  1.00  0.00     0.163 HD
ENDROOT
BRANCH   2   5
HETATM    5  C   UNL     1      -7.556   4.502 -32.059  1.00  0.00     0.114 C 
HETATM    6  C   UNL     1      -9.008   4.659 -31.602  1.00  0.00     0.035 C 
BRANCH   5   7
HETATM    7  C   UNL     1      -7.146   5.673 -32.994  1.00  0.00     0.173 C 
BRANCH   7   8
HETATM    8  O   UNL     1      -7.767   5.522 -34.279  1.00  0.00    -0.389 OA
HETATM    9  H   UNL     1      -7.341   4.754 -34.702  1.00  0.00     0.210 HD
ENDBRANCH   7   8
BRANCH   7  10
HETATM   10  C   UNL     1      -5.645   5.833 -33.148  1.00  0.00    -0.028 A 
HETATM   11  C   UNL     1      -4.990   5.273 -34.253  1.00  0.00     0.012 A 
HETATM   12  C   UNL     1      -3.612   5.435 -34.418  1.00  0.00     0.037 A 
HETATM   13  C   UNL     1      -2.863   6.165 -33.495  1.00  0.00     0.068 A 
HETATM   14  C   UNL     1      -3.503   6.720 -32.389  1.00  0.00     0.037 A 
HETATM   15  C   UNL     1      -4.883   6.555 -32.218  1.00  0.00     0.012 A 
BRANCH  13  16
HETATM   16  O   UNL     1      -1.528   6.255 -33.781  1.00  0.00    -0.356 OA
HETATM   17  C   UNL     1      -1.062   5.499 -34.892  1.00  0.00     0.210 C 
ENDBRANCH  13  16
ENDBRANCH   7  10
ENDBRANCH   5   7
ENDBRANCH   2   5
BRANCH   1  18
HETATM   18  C   UNL     1      -6.351   1.145 -33.336  1.00  0.00     0.075 C 
HETATM   19  C   UNL     1      -6.089  -0.165 -32.936  1.00  0.00     0.051 C 
HETATM   20  C   UNL     1      -5.782  -0.745 -31.599  1.00  0.00     0.071 C 
HETATM   21  N   UNL     1      -6.191  -0.951 -34.088  1.00  0.00    -0.220 N 
HETATM   22  N   UNL     1      -6.694  -0.236 -35.131  1.00  0.00    -0.177 NA
HETATM   23  C   UNL     1      -6.754   1.013 -34.681  1.00  0.00     0.158 C 
BRANCH  21  24
HETATM   24  C   UNL     1      -5.828  -2.332 -34.269  1.00  0.00     0.150 A 
HETATM   25  N   UNL     1      -4.545  -2.720 -34.034  1.00  0.00    -0.241 NA
HETATM   26  C   UNL     1      -4.238  -4.019 -34.246  1.00  0.00     0.119 A 
HETATM   27  C   UNL     1      -5.148  -4.968 -34.679  1.00  0.00     0.019 A 
HETATM   28  C   UNL     1      -6.454  -4.563 -34.914  1.00  0.00     0.005 A 
HETATM   29  C   UNL     1      -6.804  -3.228 -34.712  1.00  0.00     0.052 A 
ENDBRANCH  21  24
ENDBRANCH   1  18
TORSDOF 7
ENDMDL
MODEL 6
REMARK VINA RESULT:      -8.1      2.753      8.305
REMARK  7 active torsions:
REMARK  status: ('A' for Active; 'I' for Inactive)
REMARK    1  A    between atoms: N_3  and  C_4 
REMARK    2  A    between atoms: C_12  and  C_13 
REMARK       I    between atoms: C_13  and  N_14 
REMARK    3  A    between atoms: N_14  and  C_15 
REMARK    4  A    between atoms: C_15  and  C_16 
REMARK    5  A    between atoms: C_16  and  O_17 
REMARK    6  A    between atoms: C_16  and  C_18 
REMARK    7  A    between atoms: C_21  and  O_22 
ROOT
HETATM    1  C   UNL     1      -5.654   2.940 -33.250  1.00  0.00     0.255 C 
HETATM    2  N   UNL     1      -6.278   1.789 -32.841  1.00  0.00    -0.350 N 
HETATM    3  O   UNL     1      -6.086   3.638 -34.162  1.00  0.00    -0.268 OA
HETATM    4  H   UNL     1      -5.934   1.278 -32.042  1.00  0.00     0.163 HD
ENDROOT
BRANCH   2   5
HETATM    5  C   UNL     1      -7.492   1.265 -33.468  1.00  0.00     0.114 C 
HETATM    6  C   UNL     1      -8.186   0.337 -32.467  1.00  0.00     0.035 C 
BRANCH   5   7
HETATM    7  C   UNL     1      -7.177   0.510 -34.788  1.00  0.00     0.173 C 
BRANCH   7   8
HETATM    8  O   UNL     1      -8.392   0.208 -35.489  1.00  0.00    -0.389 OA
HETATM    9  H   UNL     1      -9.004  -0.167 -34.831  1.00  0.00     0.210 HD
ENDBRANCH   7   8
BRANCH   7  10
HETATM   10  C   UNL     1      -6.356  -0.751 -34.587  1.00  0.00    -0.028 A 
HETATM   11  C   UNL     1      -5.080  -0.671 -34.013  1.00  0.00     0.012 A 
HETATM   12  C   UNL     1      -4.324  -1.828 -33.801  1.00  0.00     0.037 A 
HETATM   13  C   UNL     1      -4.826  -3.082 -34.145  1.00  0.00     0.068 A 
HETATM   14  C   UNL     1      -6.091  -3.172 -34.722  1.00  0.00     0.037 A 
HETATM   15  C   UNL     1      -6.848  -2.014 -34.941  1.00  0.00     0.012 A 
BRANCH  13  16
HETATM   16  O   UNL     1      -3.990  -4.130 -33.874  1.00  0.00    -0.356 OA
HETATM   17  C   UNL     1      -3.312  -4.099 -32.625  1.00  0.00     0.210 C 
ENDBRANCH  13  16
ENDBRANCH   7  10
ENDBRANCH   5   7
ENDBRANCH   2   5
BRANCH   1  18
HETATM   18  C   UNL     1      -4.466   3.329 -32.501  1.00  0.00     0.075 C 
HETATM   19  C   UNL     1      -3.906   4.571 -32.208  1.00  0.00     0.051 C 
HETATM   20  C   UNL     1      -4.393   5.956 -32.462  1.00  0.00     0.071 C 
HETATM   21  N   UNL     1      -2.702   4.310 -31.547  1.00  0.00    -0.220 N 
HETATM   22  N   UNL     1      -2.585   2.988 -31.239  1.00  0.00    -0.177 NA
HETATM   23  C   UNL     1      -3.621   2.413 -31.839  1.00  0.00     0.158 C 
BRANCH  21  24
HETATM   24  C   UNL     1      -1.648   5.227 -31.201  1.00  0.00     0.150 A 
HETATM   25  N   UNL     1      -0.372   4.948 -31.582  1.00  0.00    -0.241 NA
HETATM   26  C   UNL     1       0.594   5.818 -31.211  1.00  0.00     0.119 A 
HETATM   27  C   UNL     1       0.357   6.968 -30.478  1.00  0.00     0.019 A 
HETATM   28  C   UNL     1      -0.948   7.244 -30.096  1.00  0.00     0.005 A 
HETATM   29  C   UNL     1      -1.967   6.364 -30.456  1.00  0.00     0.052 A 
ENDBRANCH  21  24
ENDBRANCH   1  18
TORSDOF 7
ENDMDL
MODEL 7
REMARK VINA RESULT:      -7.9      2.173      2.781
REMARK  7 active torsions:
REMARK  status: ('A' for Active; 'I' for Inactive)
REMARK    1  A    between atoms: N_3  and  C_4 
REMARK    2  A    between atoms: C_12  and  C_13 
REMARK       I    between atoms: C_13  and  N_14 
REMARK    3  A    between atoms: N_14  and  C_15 
REMARK    4  A    between atoms: C_15  and  C_16 
REMARK    5  A    between atoms: C_16  and  O_17 
REMARK    6  A    between atoms: C_16  and  C_18 
REMARK    7  A    between atoms: C_21  and  O_22 
ROOT
HETATM    1  C   UNL     1      -4.893   3.581 -32.583  1.00  0.00     0.255 C 
HETATM    2  N   UNL     1      -3.628   3.942 -32.973  1.00  0.00    -0.350 N 
HETATM    3  O   UNL     1      -5.585   4.283 -31.853  1.00  0.00    -0.268 OA
HETATM    4  H   UNL     1      -3.114   3.375 -33.630  1.00  0.00     0.163 HD
ENDROOT
BRANCH   2   5
HETATM    5  C   UNL     1      -2.972   5.175 -32.534  1.00  0.00     0.114 C 
HETATM    6  C   UNL     1      -2.664   6.021 -33.772  1.00  0.00     0.035 C 
BRANCH   5   7
HETATM    7  C   UNL     1      -1.674   4.881 -31.734  1.00  0.00     0.173 C 
BRANCH   7   8
HETATM    8  O   UNL     1      -1.796   3.638 -31.028  1.00  0.00    -0.389 OA
HETATM    9  H   UNL     1      -1.021   3.578 -30.441  1.00  0.00     0.210 HD
ENDBRANCH   7   8
BRANCH   7  10
HETATM   10  C   UNL     1      -1.280   5.994 -30.781  1.00  0.00    -0.028 A 
HETATM   11  C   UNL     1      -2.267   6.681 -30.060  1.00  0.00     0.012 A 
HETATM   12  C   UNL     1      -1.916   7.691 -29.160  1.00  0.00     0.037 A 
HETATM   13  C   UNL     1      -0.579   8.030 -28.954  1.00  0.00     0.068 A 
HETATM   14  C   UNL     1       0.410   7.358 -29.670  1.00  0.00     0.037 A 
HETATM   15  C   UNL     1       0.060   6.350 -30.576  1.00  0.00     0.012 A 
BRANCH  13  16
HETATM   16  O   UNL     1      -0.373   9.027 -28.040  1.00  0.00    -0.356 OA
HETATM   17  C   UNL     1      -1.505   9.448 -27.290  1.00  0.00     0.210 C 
ENDBRANCH  13  16
ENDBRANCH   7  10
ENDBRANCH   5   7
ENDBRANCH   2   5
BRANCH   1  18
HETATM   18  C   UNL     1      -5.401   2.330 -33.131  1.00  0.00     0.075 C 
HETATM   19  C   UNL     1      -5.091   0.997 -32.870  1.00  0.00     0.051 C 
HETATM   20  C   UNL     1      -4.205   0.372 -31.848  1.00  0.00     0.071 C 
HETATM   21  N   UNL     1      -5.828   0.239 -33.786  1.00  0.00    -0.220 N 
HETATM   22  N   UNL     1      -6.723   1.013 -34.460  1.00  0.00    -0.177 NA
HETATM   23  C   UNL     1      -6.437   2.256 -34.086  1.00  0.00     0.158 C 
BRANCH  21  24
HETATM   24  C   UNL     1      -5.730  -1.168 -34.075  1.00  0.00     0.150 A 
HETATM   25  N   UNL     1      -4.505  -1.761 -34.087  1.00  0.00    -0.241 NA
HETATM   26  C   UNL     1      -4.453  -3.077 -34.393  1.00  0.00     0.119 A 
HETATM   27  C   UNL     1      -5.565  -3.846 -34.687  1.00  0.00     0.019 A 
HETATM   28  C   UNL     1      -6.809  -3.232 -34.670  1.00  0.00     0.005 A 
HETATM   29  C   UNL     1      -6.899  -1.875 -34.365  1.00  0.00     0.052 A 
ENDBRANCH  21  24
ENDBRANCH   1  18
TORSDOF 7
ENDMDL
MODEL 8
REMARK VINA RESULT:      -7.6      3.111      5.172
REMARK  7 active torsions:
REMARK  status: ('A' for Active; 'I' for Inactive)
REMARK    1  A    between atoms: N_3  and  C_4 
REMARK    2  A    between atoms: C_12  and  C_13 
REMARK       I    between atoms: C_13  and  N_14 
REMARK    3  A    between atoms: N_14  and  C_15 
REMARK    4  A    between atoms: C_15  and  C_16 
REMARK    5  A    between atoms: C_16  and  O_17 
REMARK    6  A    between atoms: C_16  and  C_18 
REMARK    7  A    between atoms: C_21  and  O_22 
ROOT
HETATM    1  C   UNL     1      -3.687   5.324 -30.849  1.00  0.00     0.255 C 
HETATM    2  N   UNL     1      -2.318   5.245 -30.844  1.00  0.00    -0.350 N 
HETATM    3  O   UNL     1      -4.289   6.377 -30.668  1.00  0.00    -0.268 OA
HETATM    4  H   UNL     1      -1.855   4.377 -31.066  1.00  0.00     0.163 HD
ENDROOT
BRANCH   2   5
HETATM    5  C   UNL     1      -1.446   6.394 -30.593  1.00  0.00     0.114 C 
HETATM    6  C   UNL     1      -1.243   7.140 -31.914  1.00  0.00     0.035 C 
BRANCH   5   7
HETATM    7  C   UNL     1      -0.081   5.959 -29.995  1.00  0.00     0.173 C 
BRANCH   7   8
HETATM    8  O   UNL     1      -0.068   4.542 -29.768  1.00  0.00    -0.389 OA
HETATM    9  H   UNL     1      -0.880   4.190 -30.175  1.00  0.00     0.210 HD
ENDBRANCH   7   8
BRANCH   7  10
HETATM   10  C   UNL     1       0.293   6.701 -28.725  1.00  0.00    -0.028 A 
HETATM   11  C   UNL     1       0.995   7.911 -28.801  1.00  0.00     0.012 A 
HETATM   12  C   UNL     1       1.323   8.616 -27.640  1.00  0.00     0.037 A 
HETATM   13  C   UNL     1       0.951   8.137 -26.384  1.00  0.00     0.068 A 
HETATM   14  C   UNL     1       0.258   6.931 -26.296  1.00  0.00     0.037 A 
HETATM   15  C   UNL     1      -0.067   6.220 -27.458  1.00  0.00     0.012 A 
BRANCH  13  16
HETATM   16  O   UNL     1       1.325   8.928 -25.333  1.00  0.00    -0.356 OA
HETATM   17  C   UNL     1       2.550   8.599 -24.692  1.00  0.00     0.210 C 
ENDBRANCH  13  16
ENDBRANCH   7  10
ENDBRANCH   5   7
ENDBRANCH   2   5
BRANCH   1  18
HETATM   18  C   UNL     1      -4.401   4.087 -31.138  1.00  0.00     0.075 C 
HETATM   19  C   UNL     1      -4.237   3.117 -32.125  1.00  0.00     0.051 C 
HETATM   20  C   UNL     1      -3.191   2.943 -33.172  1.00  0.00     0.071 C 
HETATM   21  N   UNL     1      -5.292   2.214 -31.965  1.00  0.00    -0.220 N 
HETATM   22  N   UNL     1      -5.981   2.460 -30.815  1.00  0.00    -0.177 NA
HETATM   23  C   UNL     1      -5.463   3.592 -30.352  1.00  0.00     0.158 C 
BRANCH  21  24
HETATM   24  C   UNL     1      -5.702   1.144 -32.835  1.00  0.00     0.150 A 
HETATM   25  N   UNL     1      -5.300  -0.127 -32.562  1.00  0.00    -0.241 NA
HETATM   26  C   UNL     1      -5.680  -1.099 -33.420  1.00  0.00     0.119 A 
HETATM   27  C   UNL     1      -6.451  -0.877 -34.547  1.00  0.00     0.019 A 
HETATM   28  C   UNL     1      -6.858   0.423 -34.817  1.00  0.00     0.005 A 
HETATM   29  C   UNL     1      -6.477   1.451 -33.955  1.00  0.00     0.052 A 
ENDBRANCH  21  24
ENDBRANCH   1  18
TORSDOF 7
ENDMDL
MODEL 9
REMARK VINA RESULT:      -7.6      3.692      6.268
REMARK  7 active torsions:
REMARK  status: ('A' for Active; 'I' for Inactive)
REMARK    1  A    between atoms: N_3  and  C_4 
REMARK    2  A    between atoms: C_12  and  C_13 
REMARK       I    between atoms: C_13  and  N_14 
REMARK    3  A    between atoms: N_14  and  C_15 
REMARK    4  A    between atoms: C_15  and  C_16 
REMARK    5  A    between atoms: C_16  and  O_17 
REMARK    6  A    between atoms: C_16  and  C_18 
REMARK    7  A    between atoms: C_21  and  O_22 
ROOT
HETATM    1  C   UNL     1      -6.445   2.579 -33.038  1.00  0.00     0.255 C 
HETATM    2  N   UNL     1      -7.341   2.797 -32.023  1.00  0.00    -0.350 N 
HETATM    3  O   UNL     1      -5.628   3.423 -33.391  1.00  0.00    -0.268 OA
HETATM    4  H   UNL     1      -7.950   2.057 -31.711  1.00  0.00     0.163 HD
ENDROOT
BRANCH   2   5
HETATM    5  C   UNL     1      -7.433   4.061 -31.288  1.00  0.00     0.114 C 
HETATM    6  C   UNL     1      -7.049   3.796 -29.830  1.00  0.00     0.035 C 
BRANCH   5   7
HETATM    7  C   UNL     1      -8.858   4.673 -31.376  1.00  0.00     0.173 C 
BRANCH   7   8
HETATM    8  O   UNL     1      -9.541   4.523 -30.123  1.00  0.00    -0.389 OA
HETATM    9  H   UNL     1     -10.490   4.634 -30.312  1.00  0.00     0.210 HD
ENDBRANCH   7   8
BRANCH   7  10
HETATM   10  C   UNL     1      -9.696   4.105 -32.507  1.00  0.00    -0.028 A 
HETATM   11  C   UNL     1     -10.680   3.146 -32.235  1.00  0.00     0.012 A 
HETATM   12  C   UNL     1     -11.476   2.633 -33.264  1.00  0.00     0.037 A 
HETATM   13  C   UNL     1     -11.314   3.072 -34.577  1.00  0.00     0.068 A 
HETATM   14  C   UNL     1     -10.333   4.021 -34.860  1.00  0.00     0.037 A 
HETATM   15  C   UNL     1      -9.531   4.532 -33.832  1.00  0.00     0.012 A 
BRANCH  13  16
HETATM   16  O   UNL     1     -12.162   2.498 -35.484  1.00  0.00    -0.356 OA
HETATM   17  C   UNL     1     -13.064   1.520 -34.982  1.00  0.00     0.210 C 
ENDBRANCH  13  16
ENDBRANCH   7  10
ENDBRANCH   5   7
ENDBRANCH   2   5
BRANCH   1  18
HETATM   18  C   UNL     1      -6.475   1.256 -33.648  1.00  0.00     0.075 C 
HETATM   19  C   UNL     1      -6.147  -0.008 -33.163  1.00  0.00     0.051 C 
HETATM   20  C   UNL     1      -5.758  -0.472 -31.801  1.00  0.00     0.071 C 
HETATM   21  N   UNL     1      -6.272  -0.886 -34.244  1.00  0.00    -0.220 N 
HETATM   22  N   UNL     1      -6.849  -0.271 -35.314  1.00  0.00    -0.177 NA
HETATM   23  C   UNL     1      -6.934   1.007 -34.959  1.00  0.00     0.158 C 
BRANCH  21  24
HETATM   24  C   UNL     1      -5.868  -2.264 -34.337  1.00  0.00     0.150 A 
HETATM   25  N   UNL     1      -4.569  -2.594 -34.096  1.00  0.00    -0.241 NA
HETATM   26  C   UNL     1      -4.223  -3.894 -34.224  1.00  0.00     0.119 A 
HETATM   27  C   UNL     1      -5.108  -4.898 -34.576  1.00  0.00     0.019 A 
HETATM   28  C   UNL     1      -6.430  -4.551 -34.818  1.00  0.00     0.005 A 
HETATM   29  C   UNL     1      -6.820  -3.218 -34.702  1.00  0.00     0.052 A 
ENDBRANCH  21  24
ENDBRANCH   1  18
TORSDOF 7
ENDMDL
MODEL 10
REMARK VINA RESULT:      -7.6      3.079      5.834
REMARK  7 active torsions:
REMARK  status: ('A' for Active; 'I' for Inactive)
REMARK    1  A    between atoms: N_3  and  C_4 
REMARK    2  A    between atoms: C_12  and  C_13 
REMARK       I    between atoms: C_13  and  N_14 
REMARK    3  A    between atoms: N_14  and  C_15 
REMARK    4  A    between atoms: C_15  and  C_16 
REMARK    5  A    between atoms: C_16  and  O_17 
REMARK    6  A    between atoms: C_16  and  C_18 
REMARK    7  A    between atoms: C_21  and  O_22 
ROOT
HETATM    1  C   UNL     1      -6.879   2.495 -33.017  1.00  0.00     0.255 C 
HETATM    2  N   UNL     1      -6.159   2.671 -31.863  1.00  0.00    -0.350 N 
HETATM    3  O   UNL     1      -7.541   3.394 -33.526  1.00  0.00    -0.268 OA
HETATM    4  H   UNL     1      -5.570   1.931 -31.511  1.00  0.00     0.163 HD
ENDROOT
BRANCH   2   5
HETATM    5  C   UNL     1      -6.133   3.928 -31.113  1.00  0.00     0.114 C 
HETATM    6  C   UNL     1      -4.691   4.198 -30.679  1.00  0.00     0.035 C 
BRANCH   5   7
HETATM    7  C   UNL     1      -7.077   3.880 -29.881  1.00  0.00     0.173 C 
BRANCH   7   8
HETATM    8  O   UNL     1      -7.096   2.559 -29.322  1.00  0.00    -0.389 OA
HETATM    9  H   UNL     1      -6.515   2.014 -29.883  1.00  0.00     0.210 HD
ENDBRANCH   7   8
BRANCH   7  10
HETATM   10  C   UNL     1      -8.489   4.350 -30.176  1.00  0.00    -0.028 A 
HETATM   11  C   UNL     1      -9.508   3.412 -30.395  1.00  0.00     0.012 A 
HETATM   12  C   UNL     1     -10.818   3.832 -30.644  1.00  0.00     0.037 A 
HETATM   13  C   UNL     1     -11.140   5.189 -30.668  1.00  0.00     0.068 A 
HETATM   14  C   UNL     1     -10.133   6.130 -30.459  1.00  0.00     0.037 A 
HETATM   15  C   UNL     1      -8.819   5.712 -30.215  1.00  0.00     0.012 A 
BRANCH  13  16
HETATM   16  O   UNL     1     -12.458   5.462 -30.912  1.00  0.00    -0.356 OA
HETATM   17  C   UNL     1     -13.185   4.489 -31.652  1.00  0.00     0.210 C 
ENDBRANCH  13  16
ENDBRANCH   7  10
ENDBRANCH   5   7
ENDBRANCH   2   5
BRANCH   1  18
HETATM   18  C   UNL     1      -6.776   1.185 -33.647  1.00  0.00     0.075 C 
HETATM   19  C   UNL     1      -6.421  -0.068 -33.152  1.00  0.00     0.051 C 
HETATM   20  C   UNL     1      -6.131  -0.536 -31.767  1.00  0.00     0.071 C 
HETATM   21  N   UNL     1      -6.394  -0.929 -34.253  1.00  0.00    -0.220 N 
HETATM   22  N   UNL     1      -6.906  -0.326 -35.363  1.00  0.00    -0.177 NA
HETATM   23  C   UNL     1      -7.097   0.937 -34.998  1.00  0.00     0.158 C 
BRANCH  21  24
HETATM   24  C   UNL     1      -5.904  -2.280 -34.329  1.00  0.00     0.150 A 
HETATM   25  N   UNL     1      -4.600  -2.532 -34.029  1.00  0.00    -0.241 NA
HETATM   26  C   UNL     1      -4.171  -3.809 -34.142  1.00  0.00     0.119 A 
HETATM   27  C   UNL     1      -4.976  -4.863 -34.536  1.00  0.00     0.019 A 
HETATM   28  C   UNL     1      -6.304  -4.596 -34.837  1.00  0.00     0.005 A 
HETATM   29  C   UNL     1      -6.778  -3.289 -34.738  1.00  0.00     0.052 A 
ENDBRANCH  21  24
ENDBRANCH   1  18
TORSDOF 7
ENDMDL
