MODEL 1
REMARK VINA RESULT:      -8.2      0.000      0.000
REMARK  11 active torsions:
REMARK  status: ('A' for Active; 'I' for Inactive)
REMARK    1  A    between atoms: C_1  and  C_7 
REMARK    2  A    between atoms: C_1  and  C_11 
REMARK    3  A    between atoms: C_8  and  C_13 
REMARK    4  A    between atoms: C_8  and  O_14 
REMARK       I    between atoms: C_11  and  N_12 
REMARK    5  A    between atoms: N_12  and  C_13 
REMARK    6  A    between atoms: C_18  and  N_19 
REMARK    7  A    between atoms: N_19  and  C_20 
REMARK    8  A    between atoms: C_20  and  C_21 
REMARK    9  A    between atoms: C_28  and  C_29 
REMARK   10  A    between atoms: C_29  and  O_30 
REMARK   11  A    between atoms: C_31  and  O_32 
ROOT
HETATM    1  C           1      -5.222   3.638 -33.586  0.00  0.00     0.012 A 
HETATM    2  C           1      -7.000   2.592 -30.578  0.00  0.00     0.016 C 
HETATM    3  C           1      -6.721   1.817 -31.894  0.00  0.00    -0.030 C 
HETATM    4  C           1      -5.172   1.696 -32.058  0.00  0.00     0.056 C 
HETATM    5  C           1      -8.488   0.917 -34.783  0.00  0.00     0.020 C 
HETATM    6  C           1      -4.653   3.011 -32.559  0.00  0.00     0.056 A 
HETATM    7  S           1      -4.523   4.896 -33.859  0.00  0.00    -0.055 SA
HETATM    8  C           1      -3.537   4.708 -32.784  0.00  0.00     0.167 A 
HETATM    9  N           1      -3.676   3.654 -32.094  0.00  0.00    -0.228 NA
HETATM   10  C           1      -6.435   3.034 -34.221  0.00  0.00     0.055 C 
HETATM   11  C           1      -7.402   2.572 -33.100  0.00  0.00     0.012 C 
HETATM   12  C           1      -8.726   1.972 -33.674  0.00  0.00     0.008 C 
HETATM   13  C           1      -9.573   1.331 -32.559  0.00  0.00     0.128 C 
HETATM   14  C           1      -8.838   0.371 -31.624  0.00  0.00     0.033 C 
HETATM   15  C           1      -7.312   0.401 -31.744  0.00  0.00     0.013 C 
ENDROOT
BRANCH   4  16
HETATM   16  C           1      -4.345   1.193 -30.856  0.00  0.00     0.114 C 
BRANCH  16  17
HETATM   17  C           1      -3.429   0.022 -31.195  0.00  0.00     0.218 C 
HETATM   18  N           1      -4.057  -1.008 -31.841  0.00  0.00    -0.359 N 
HETATM   19  H           1      -5.042  -0.898 -32.080  0.00  0.00     0.162 HD
HETATM   20  O           1      -2.257   0.007 -30.907  0.00  0.00    -0.274 OA
BRANCH  18  21
HETATM   21  C           1      -3.388  -2.265 -32.201  0.00  0.00     0.148 C 
BRANCH  21  22
HETATM   22  C           1      -4.046  -2.837 -33.457  0.00  0.00     0.186 C 
BRANCH  22  23
HETATM   23  O           1      -5.011  -1.926 -33.923  0.00  0.00    -0.394 OA
HETATM   24  C           1      -6.052  -2.566 -34.630  0.00  0.00     0.201 C 
ENDBRANCH  22  23
ENDBRANCH  21  22
ENDBRANCH  18  21
ENDBRANCH  16  17
ENDBRANCH   4  16
BRANCH  12  25
HETATM   25  C           1      -9.545   3.112 -34.336  0.00  0.00     0.176 C 
BRANCH  25  26
HETATM   26  O           1     -10.703   2.605 -34.967  0.00  0.00    -0.400 OA
HETATM   27  H           1     -11.001   1.816 -34.508  0.00  0.00     0.209 HD
ENDBRANCH  25  26
ENDBRANCH  12  25
BRANCH   8  28
HETATM   28  N           1      -2.654   5.601 -32.614  0.00  0.00    -0.365 N 
HETATM   29  H           1      -2.973   6.598 -32.524  0.00  0.00     0.162 HD
BRANCH  28  30
HETATM   30  C           1      -1.204   5.326 -32.530  0.00  0.00     0.160 C 
BRANCH  30  31
HETATM   31  C           1      -0.651   5.837 -31.218  0.00  0.00    -0.041 A 
HETATM   32  C           1      -0.823   7.122 -30.857  0.00  0.00     0.009 A 
HETATM   33  C           1      -0.316   7.595 -29.709  0.00  0.00     0.001 A 
HETATM   34  C           1       0.373   6.782 -28.896  0.00  0.00     0.000 A 
HETATM   35  C           1       0.548   5.497 -29.238  0.00  0.00     0.001 A 
HETATM   36  C           1       0.041   5.032 -30.390  0.00  0.00     0.009 A 
ENDBRANCH  30  31
ENDBRANCH  28  30
ENDBRANCH   8  28
BRANCH  13  37
HETATM   37  O           1     -10.193   2.351 -31.808  0.00  0.00    -0.395 OA
HETATM   38  H           1      -9.928   2.240 -30.890  0.00  0.00     0.210 HD
ENDBRANCH  13  37
TORSDOF 11
ENDMDL
MODEL 2
REMARK VINA RESULT:      -8.1      2.445      3.342
REMARK  11 active torsions:
REMARK  status: ('A' for Active; 'I' for Inactive)
REMARK    1  A    between atoms: C_1  and  C_7 
REMARK    2  A    between atoms: C_1  and  C_11 
REMARK    3  A    between atoms: C_8  and  C_13 
REMARK    4  A    between atoms: C_8  and  O_14 
REMARK       I    between atoms: C_11  and  N_12 
REMARK    5  A    between atoms: N_12  and  C_13 
REMARK    6  A    between atoms: C_18  and  N_19 
REMARK    7  A    between atoms: N_19  and  C_20 
REMARK    8  A    between atoms: C_20  and  C_21 
REMARK    9  A    between atoms: C_28  and  C_29 
REMARK   10  A    between atoms: C_29  and  O_30 
REMARK   11  A    between atoms: C_31  and  O_32 
ROOT
HETATM    1  C           1      -7.053   3.926 -33.029  0.00  0.00     0.012 A 
HETATM    2  C           1      -9.252   1.437 -31.522  0.00  0.00     0.016 C 
HETATM    3  C           1      -9.070   1.838 -33.011  0.00  0.00    -0.030 C 
HETATM    4  C           1      -7.587   1.543 -33.406  0.00  0.00     0.056 C 
HETATM    5  C           1     -10.777   3.754 -35.396  0.00  0.00     0.020 C 
HETATM    6  C           1      -6.730   2.646 -32.860  0.00  0.00     0.056 A 
HETATM    7  S           1      -6.053   4.786 -32.391  0.00  0.00    -0.055 SA
HETATM    8  C           1      -5.225   3.664 -31.925  0.00  0.00     0.167 A 
HETATM    9  N           1      -5.666   2.508 -32.203  0.00  0.00    -0.228 NA
HETATM   10  C           1      -8.324   4.264 -33.743  0.00  0.00     0.055 C 
HETATM   11  C           1      -9.455   3.356 -33.195  0.00  0.00     0.012 C 
HETATM   12  C           1     -10.838   3.677 -33.850  0.00  0.00     0.008 C 
HETATM   13  C           1     -11.895   2.631 -33.451  0.00  0.00     0.128 C 
HETATM   14  C           1     -11.486   1.167 -33.606  0.00  0.00     0.033 C 
HETATM   15  C           1      -9.993   0.942 -33.860  0.00  0.00     0.013 C 
ENDROOT
BRANCH   4  16
HETATM   16  C           1      -6.999   0.158 -33.062  0.00  0.00     0.114 C 
BRANCH  16  17
HETATM   17  C           1      -6.661  -0.683 -34.289  0.00  0.00     0.218 C 
HETATM   18  N           1      -6.147  -1.916 -33.995  0.00  0.00    -0.359 N 
HETATM   19  H           1      -6.076  -2.188 -33.014  0.00  0.00     0.162 HD
HETATM   20  O           1      -6.826  -0.285 -35.416  0.00  0.00    -0.274 OA
BRANCH  18  21
HETATM   21  C           1      -5.686  -2.865 -35.016  0.00  0.00     0.148 C 
BRANCH  21  22
HETATM   22  C           1      -6.613  -4.080 -35.021  0.00  0.00     0.186 C 
BRANCH  22  23
HETATM   23  O           1      -5.833  -5.251 -35.000  0.00  0.00    -0.394 OA
HETATM   24  C           1      -4.637  -5.082 -34.271  0.00  0.00     0.201 C 
ENDBRANCH  22  23
ENDBRANCH  21  22
ENDBRANCH  18  21
ENDBRANCH  16  17
ENDBRANCH   4  16
BRANCH  12  25
HETATM   25  C           1     -11.306   5.076 -33.369  0.00  0.00     0.176 C 
BRANCH  25  26
HETATM   26  O           1     -12.655   5.308 -33.717  0.00  0.00    -0.400 OA
HETATM   27  H           1     -12.702   5.988 -34.393  0.00  0.00     0.209 HD
ENDBRANCH  25  26
ENDBRANCH  12  25
BRANCH   8  28
HETATM   28  N           1      -4.169   3.923 -31.275  0.00  0.00    -0.365 N 
HETATM   29  H           1      -4.262   4.466 -30.380  0.00  0.00     0.162 HD
BRANCH  28  30
HETATM   30  C           1      -2.814   3.508 -31.696  0.00  0.00     0.160 C 
BRANCH  30  31
HETATM   31  C           1      -2.174   4.589 -32.538  0.00  0.00    -0.041 A 
HETATM   32  C           1      -2.207   4.519 -33.881  0.00  0.00     0.009 A 
HETATM   33  C           1      -1.621   5.457 -34.640  0.00  0.00     0.001 A 
HETATM   34  C           1      -0.992   6.490 -34.062  0.00  0.00     0.000 A 
HETATM   35  C           1      -0.956   6.577 -32.724  0.00  0.00     0.001 A 
HETATM   36  C           1      -1.541   5.633 -31.971  0.00  0.00     0.009 A 
ENDBRANCH  30  31
ENDBRANCH  28  30
ENDBRANCH   8  28
BRANCH  13  37
HETATM   37  O           1     -12.307   2.876 -32.125  0.00  0.00    -0.395 OA
HETATM   38  H           1     -12.325   3.830 -31.995  0.00  0.00     0.210 HD
ENDBRANCH  13  37
TORSDOF 11
ENDMDL
MODEL 3
REMARK VINA RESULT:      -8.0      2.535      8.030
REMARK  11 active torsions:
REMARK  status: ('A' for Active; 'I' for Inactive)
REMARK    1  A    between atoms: C_1  and  C_7 
REMARK    2  A    between atoms: C_1  and  C_11 
REMARK    3  A    between atoms: C_8  and  C_13 
REMARK    4  A    between atoms: C_8  and  O_14 
REMARK       I    between atoms: C_11  and  N_12 
REMARK    5  A    between atoms: N_12  and  C_13 
REMARK    6  A    between atoms: C_18  and  N_19 
REMARK    7  A    between atoms: N_19  and  C_20 
REMARK    8  A    between atoms: C_20  and  C_21 
REMARK    9  A    between atoms: C_28  and  C_29 
REMARK   10  A    between atoms: C_29  and  O_30 
REMARK   11  A    between atoms: C_31  and  O_32 
ROOT
HETATM    1  C           1      -3.822   2.711 -32.572  0.00  0.00     0.012 A 
HETATM    2  C           1      -4.832   5.015 -29.931  0.00  0.00     0.016 C 
HETATM    3  C           1      -4.405   5.300 -31.395  0.00  0.00    -0.030 C 
HETATM    4  C           1      -5.422   4.580 -32.338  0.00  0.00     0.056 C 
HETATM    5  C           1      -1.560   6.470 -33.073  0.00  0.00     0.020 C 
HETATM    6  C           1      -5.073   3.122 -32.374  0.00  0.00     0.056 A 
HETATM    7  S           1      -3.765   1.247 -32.552  0.00  0.00    -0.055 SA
HETATM    8  C           1      -5.208   1.084 -32.327  0.00  0.00     0.167 A 
HETATM    9  N           1      -5.870   2.160 -32.221  0.00  0.00    -0.228 NA
HETATM   10  C           1      -2.739   3.732 -32.716  0.00  0.00     0.055 C 
HETATM   11  C           1      -2.922   4.807 -31.614  0.00  0.00     0.012 C 
HETATM   12  C           1      -1.798   5.892 -31.656  0.00  0.00     0.008 C 
HETATM   13  C           1      -2.116   7.056 -30.698  0.00  0.00     0.128 C 
HETATM   14  C           1      -3.521   7.647 -30.800  0.00  0.00     0.033 C 
HETATM   15  C           1      -4.506   6.820 -31.631  0.00  0.00     0.013 C 
ENDROOT
BRANCH   4  16
HETATM   16  C           1      -6.930   4.786 -32.082  0.00  0.00     0.114 C 
BRANCH  16  17
HETATM   17  C           1      -7.801   4.478 -33.295  0.00  0.00     0.218 C 
HETATM   18  N           1      -8.600   3.377 -33.142  0.00  0.00    -0.359 N 
HETATM   19  H           1      -8.588   2.894 -32.245  0.00  0.00     0.162 HD
HETATM   20  O           1      -7.775   5.143 -34.301  0.00  0.00    -0.274 OA
BRANCH  18  21
HETATM   21  C           1      -9.468   2.854 -34.205  0.00  0.00     0.148 C 
BRANCH  21  22
HETATM   22  C           1     -10.304   1.704 -33.643  0.00  0.00     0.186 C 
BRANCH  22  23
HETATM   23  O           1     -11.667   1.991 -33.837  0.00  0.00    -0.394 OA
HETATM   24  C           1     -12.474   0.837 -33.749  0.00  0.00     0.201 C 
ENDBRANCH  22  23
ENDBRANCH  21  22
ENDBRANCH  18  21
ENDBRANCH  16  17
ENDBRANCH   4  16
BRANCH  12  25
HETATM   25  C           1      -0.457   5.239 -31.228  0.00  0.00     0.176 C 
BRANCH  25  26
HETATM   26  O           1      -0.650   4.343 -30.152  0.00  0.00    -0.400 OA
HETATM   27  H           1      -1.557   4.398 -29.845  0.00  0.00     0.209 HD
ENDBRANCH  25  26
ENDBRANCH  12  25
BRANCH   8  28
HETATM   28  N           1      -5.675  -0.090 -32.234  0.00  0.00    -0.365 N 
HETATM   29  H           1      -5.287  -0.716 -31.484  0.00  0.00     0.162 HD
BRANCH  28  30
HETATM   30  C           1      -6.733  -0.634 -33.113  0.00  0.00     0.160 C 
BRANCH  30  31
HETATM   31  C           1      -6.243  -1.884 -33.807  0.00  0.00    -0.041 A 
HETATM   32  C           1      -7.117  -2.757 -34.341  0.00  0.00     0.009 A 
HETATM   33  C           1      -6.698  -3.884 -34.937  0.00  0.00     0.001 A 
HETATM   34  C           1      -5.387  -4.154 -35.012  0.00  0.00     0.000 A 
HETATM   35  C           1      -4.502  -3.291 -34.490  0.00  0.00     0.001 A 
HETATM   36  C           1      -4.929  -2.167 -33.892  0.00  0.00     0.009 A 
ENDBRANCH  30  31
ENDBRANCH  28  30
ENDBRANCH   8  28
BRANCH  13  37
HETATM   37  O           1      -1.864   6.643 -29.373  0.00  0.00    -0.395 OA
HETATM   38  H           1      -2.712   6.573 -28.923  0.00  0.00     0.210 HD
ENDBRANCH  13  37
TORSDOF 11
ENDMDL
MODEL 4
REMARK VINA RESULT:      -8.0      2.922      7.595
REMARK  11 active torsions:
REMARK  status: ('A' for Active; 'I' for Inactive)
REMARK    1  A    between atoms: C_1  and  C_7 
REMARK    2  A    between atoms: C_1  and  C_11 
REMARK    3  A    between atoms: C_8  and  C_13 
REMARK    4  A    between atoms: C_8  and  O_14 
REMARK       I    between atoms: C_11  and  N_12 
REMARK    5  A    between atoms: N_12  and  C_13 
REMARK    6  A    between atoms: C_18  and  N_19 
REMARK    7  A    between atoms: N_19  and  C_20 
REMARK    8  A    between atoms: C_20  and  C_21 
REMARK    9  A    between atoms: C_28  and  C_29 
REMARK   10  A    between atoms: C_29  and  O_30 
REMARK   11  A    between atoms: C_31  and  O_32 
ROOT
HETATM    1  C           1      -5.435   1.780 -30.853  0.00  0.00     0.012 A 
HETATM    2  C           1      -5.834   4.156 -33.591  0.00  0.00     0.016 C 
HETATM    3  C           1      -5.433   4.397 -32.111  0.00  0.00    -0.030 C 
HETATM    4  C           1      -4.107   3.614 -31.843  0.00  0.00     0.056 C 
HETATM    5  C           1      -6.955   5.576 -29.184  0.00  0.00     0.020 C 
HETATM    6  C           1      -4.450   2.166 -31.660  0.00  0.00     0.056 A 
HETATM    7  S           1      -5.557   0.321 -30.868  0.00  0.00    -0.055 SA
HETATM    8  C           1      -4.444   0.128 -31.809  0.00  0.00     0.167 A 
HETATM    9  N           1      -3.887   1.190 -32.221  0.00  0.00    -0.228 NA
HETATM   10  C           1      -6.246   2.824 -30.150  0.00  0.00     0.055 C 
HETATM   11  C           1      -6.611   3.935 -31.169  0.00  0.00     0.012 C 
HETATM   12  C           1      -7.506   5.047 -30.531  0.00  0.00     0.008 C 
HETATM   13  C           1      -7.678   6.237 -31.493  0.00  0.00     0.128 C 
HETATM   14  C           1      -6.397   6.787 -32.119  0.00  0.00     0.033 C 
HETATM   15  C           1      -5.161   5.903 -31.932  0.00  0.00     0.013 C 
ENDROOT
BRANCH   4  16
HETATM   16  C           1      -2.940   3.790 -32.837  0.00  0.00     0.114 C 
BRANCH  16  17
HETATM   17  C           1      -1.862   4.752 -32.347  0.00  0.00     0.218 C 
HETATM   18  N           1      -1.885   4.972 -30.996  0.00  0.00    -0.359 N 
HETATM   19  H           1      -2.564   4.459 -30.435  0.00  0.00     0.162 HD
HETATM   20  O           1      -1.070   5.276 -33.091  0.00  0.00    -0.274 OA
BRANCH  18  21
HETATM   21  C           1      -0.987   5.914 -30.316  0.00  0.00     0.148 C 
BRANCH  21  22
HETATM   22  C           1       0.217   5.147 -29.768  0.00  0.00     0.186 C 
BRANCH  22  23
HETATM   23  O           1       0.839   5.921 -28.772  0.00  0.00    -0.394 OA
HETATM   24  C           1      -0.008   6.147 -27.665  0.00  0.00     0.201 C 
ENDBRANCH  22  23
ENDBRANCH  21  22
ENDBRANCH  18  21
ENDBRANCH  16  17
ENDBRANCH   4  16
BRANCH  12  25
HETATM   25  C           1      -8.901   4.446 -30.218  0.00  0.00     0.176 C 
BRANCH  25  26
HETATM   26  O           1      -9.798   5.447 -29.781  0.00  0.00    -0.400 OA
HETATM   27  H           1      -9.304   6.206 -29.463  0.00  0.00     0.209 HD
ENDBRANCH  25  26
ENDBRANCH  12  25
BRANCH   8  28
HETATM   28  N           1      -4.142  -1.054 -32.152  0.00  0.00    -0.365 N 
HETATM   29  H           1      -4.132  -1.795 -31.407  0.00  0.00     0.162 HD
BRANCH  28  30
HETATM   30  C           1      -3.807  -1.456 -33.535  0.00  0.00     0.160 C 
BRANCH  30  31
HETATM   31  C           1      -4.758  -2.532 -34.010  0.00  0.00    -0.041 A 
HETATM   32  C           1      -4.336  -3.802 -34.152  0.00  0.00     0.009 A 
HETATM   33  C           1      -5.161  -4.762 -34.598  0.00  0.00     0.001 A 
HETATM   34  C           1      -6.430  -4.463 -34.907  0.00  0.00     0.000 A 
HETATM   35  C           1      -6.868  -3.203 -34.766  0.00  0.00     0.001 A 
HETATM   36  C           1      -6.036  -2.247 -34.323  0.00  0.00     0.009 A 
ENDBRANCH  30  31
ENDBRANCH  28  30
ENDBRANCH   8  28
BRANCH  13  37
HETATM   37  O           1      -8.593   5.883 -32.505  0.00  0.00    -0.395 OA
HETATM   38  H           1      -8.480   4.944 -32.686  0.00  0.00     0.210 HD
ENDBRANCH  13  37
TORSDOF 11
ENDMDL
MODEL 5
REMARK VINA RESULT:      -8.0      2.850      7.558
REMARK  11 active torsions:
REMARK  status: ('A' for Active; 'I' for Inactive)
REMARK    1  A    between atoms: C_1  and  C_7 
REMARK    2  A    between atoms: C_1  and  C_11 
REMARK    3  A    between atoms: C_8  and  C_13 
REMARK    4  A    between atoms: C_8  and  O_14 
REMARK       I    between atoms: C_11  and  N_12 
REMARK    5  A    between atoms: N_12  and  C_13 
REMARK    6  A    between atoms: C_18  and  N_19 
REMARK    7  A    between atoms: N_19  and  C_20 
REMARK    8  A    between atoms: C_20  and  C_21 
REMARK    9  A    between atoms: C_28  and  C_29 
REMARK   10  A    between atoms: C_29  and  O_30 
REMARK   11  A    between atoms: C_31  and  O_32 
ROOT
HETATM    1  C           1      -5.592   1.568 -30.964  0.00  0.00     0.012 A 
HETATM    2  C           1      -6.049   3.953 -33.685  0.00  0.00     0.016 C 
HETATM    3  C           1      -5.707   4.197 -32.191  0.00  0.00    -0.030 C 
HETATM    4  C           1      -4.345   3.490 -31.891  0.00  0.00     0.056 C 
HETATM    5  C           1      -7.381   5.246 -29.297  0.00  0.00     0.020 C 
HETATM    6  C           1      -4.608   2.022 -31.736  0.00  0.00     0.056 A 
HETATM    7  S           1      -5.627   0.104 -30.999  0.00  0.00    -0.055 SA
HETATM    8  C           1      -4.477  -0.010 -31.908  0.00  0.00     0.167 A 
HETATM    9  N           1      -3.972   1.088 -32.291  0.00  0.00    -0.228 NA
HETATM   10  C           1      -6.483   2.553 -30.274  0.00  0.00     0.055 C 
HETATM   11  C           1      -6.882   3.655 -31.290  0.00  0.00     0.012 C 
HETATM   12  C           1      -7.860   4.704 -30.667  0.00  0.00     0.008 C 
HETATM   13  C           1      -8.073   5.895 -31.620  0.00  0.00     0.128 C 
HETATM   14  C           1      -6.809   6.527 -32.200  0.00  0.00     0.033 C 
HETATM   15  C           1      -5.529   5.714 -31.986  0.00  0.00     0.013 C 
ENDROOT
BRANCH   4  16
HETATM   16  C           1      -3.162   3.747 -32.847  0.00  0.00     0.114 C 
BRANCH  16  17
HETATM   17  C           1      -2.081   4.643 -32.251  0.00  0.00     0.218 C 
HETATM   18  N           1      -1.961   5.858 -32.869  0.00  0.00    -0.359 N 
HETATM   19  H           1      -2.612   6.082 -33.622  0.00  0.00     0.162 HD
HETATM   20  O           1      -1.389   4.301 -31.324  0.00  0.00    -0.274 OA
BRANCH  18  21
HETATM   21  C           1      -0.942   6.852 -32.510  0.00  0.00     0.148 C 
BRANCH  21  22
HETATM   22  C           1      -1.517   7.794 -31.452  0.00  0.00     0.186 C 
BRANCH  22  23
HETATM   23  O           1      -2.530   8.575 -32.036  0.00  0.00    -0.394 OA
HETATM   24  C           1      -3.641   8.736 -31.179  0.00  0.00     0.201 C 
ENDBRANCH  22  23
ENDBRANCH  21  22
ENDBRANCH  18  21
ENDBRANCH  16  17
ENDBRANCH   4  16
BRANCH  12  25
HETATM   25  C           1      -9.227   4.018 -30.403  0.00  0.00     0.176 C 
BRANCH  25  26
HETATM   26  O           1     -10.206   4.966 -30.030  0.00  0.00    -0.400 OA
HETATM   27  H           1     -11.046   4.524 -29.891  0.00  0.00     0.209 HD
ENDBRANCH  25  26
ENDBRANCH  12  25
BRANCH   8  28
HETATM   28  N           1      -4.097  -1.168 -32.255  0.00  0.00    -0.365 N 
HETATM   29  H           1      -3.999  -1.899 -31.507  0.00  0.00     0.162 HD
BRANCH  28  30
HETATM   30  C           1      -3.785  -1.554 -33.648  0.00  0.00     0.160 C 
BRANCH  30  31
HETATM   31  C           1      -4.723  -2.647 -34.109  0.00  0.00    -0.041 A 
HETATM   32  C           1      -5.996  -2.361 -34.439  0.00  0.00     0.009 A 
HETATM   33  C           1      -6.847  -3.323 -34.824  0.00  0.00     0.001 A 
HETATM   34  C           1      -6.433  -4.597 -34.889  0.00  0.00     0.000 A 
HETATM   35  C           1      -5.166  -4.898 -34.569  0.00  0.00     0.001 A 
HETATM   36  C           1      -4.321  -3.929 -34.181  0.00  0.00     0.009 A 
ENDBRANCH  30  31
ENDBRANCH  28  30
ENDBRANCH   8  28
BRANCH  13  37
HETATM   37  O           1      -8.935   5.501 -32.663  0.00  0.00    -0.395 OA
HETATM   38  H           1      -9.131   6.282 -33.191  0.00  0.00     0.210 HD
ENDBRANCH  13  37
TORSDOF 11
ENDMDL
MODEL 6
REMARK VINA RESULT:      -7.8      3.029      7.719
REMARK  11 active torsions:
REMARK  status: ('A' for Active; 'I' for Inactive)
REMARK    1  A    between atoms: C_1  and  C_7 
REMARK    2  A    between atoms: C_1  and  C_11 
REMARK    3  A    between atoms: C_8  and  C_13 
REMARK    4  A    between atoms: C_8  and  O_14 
REMARK       I    between atoms: C_11  and  N_12 
REMARK    5  A    between atoms: N_12  and  C_13 
REMARK    6  A    between atoms: C_18  and  N_19 
REMARK    7  A    between atoms: N_19  and  C_20 
REMARK    8  A    between atoms: C_20  and  C_21 
REMARK    9  A    between atoms: C_28  and  C_29 
REMARK   10  A    between atoms: C_29  and  O_30 
REMARK   11  A    between atoms: C_31  and  O_32 
ROOT
HETATM    1  C           1      -6.264   2.357 -30.955  0.00  0.00     0.012 A 
HETATM    2  C           1      -6.511   5.020 -33.435  0.00  0.00     0.016 C 
HETATM    3  C           1      -5.891   5.035 -32.012  0.00  0.00    -0.030 C 
HETATM    4  C           1      -4.726   3.993 -31.987  0.00  0.00     0.056 C 
HETATM    5  C           1      -6.773   6.191 -28.824  0.00  0.00     0.020 C 
HETATM    6  C           1      -5.328   2.625 -31.862  0.00  0.00     0.056 A 
HETATM    7  S           1      -6.677   0.955 -31.056  0.00  0.00    -0.055 SA
HETATM    8  C           1      -5.750   0.647 -32.155  0.00  0.00     0.167 A 
HETATM    9  N           1      -5.046   1.619 -32.564  0.00  0.00    -0.228 NA
HETATM   10  C           1      -6.755   3.462 -30.073  0.00  0.00     0.055 C 
HETATM   11  C           1      -7.012   4.715 -30.949  0.00  0.00     0.012 C 
HETATM   12  C           1      -7.580   5.910 -30.115  0.00  0.00     0.008 C 
HETATM   13  C           1      -7.626   7.199 -30.957  0.00  0.00     0.128 C 
HETATM   14  C           1      -6.348   7.554 -31.715  0.00  0.00     0.033 C 
HETATM   15  C           1      -5.301   6.438 -31.766  0.00  0.00     0.013 C 
ENDROOT
BRANCH   4  16
HETATM   16  C           1      -3.679   4.039 -33.120  0.00  0.00     0.114 C 
BRANCH  16  17
HETATM   17  C           1      -2.317   4.557 -32.668  0.00  0.00     0.218 C 
HETATM   18  N           1      -2.165   4.616 -31.309  0.00  0.00    -0.359 N 
HETATM   19  H           1      -2.928   4.276 -30.724  0.00  0.00     0.162 HD
HETATM   20  O           1      -1.458   4.894 -33.446  0.00  0.00    -0.274 OA
BRANCH  18  21
HETATM   21  C           1      -0.966   5.148 -30.651  0.00  0.00     0.148 C 
BRANCH  21  22
HETATM   22  C           1      -1.215   6.607 -30.268  0.00  0.00     0.186 C 
BRANCH  22  23
HETATM   23  O           1      -0.760   7.438 -31.308  0.00  0.00    -0.394 OA
HETATM   24  C           1      -1.809   8.174 -31.900  0.00  0.00     0.201 C 
ENDBRANCH  22  23
ENDBRANCH  21  22
ENDBRANCH  18  21
ENDBRANCH  16  17
ENDBRANCH   4  16
BRANCH  12  25
HETATM   25  C           1      -9.019   5.557 -29.654  0.00  0.00     0.176 C 
BRANCH  25  26
HETATM   26  O           1      -9.609   6.638 -28.961  0.00  0.00    -0.400 OA
HETATM   27  H           1     -10.400   6.924 -29.424  0.00  0.00     0.209 HD
ENDBRANCH  25  26
ENDBRANCH  12  25
BRANCH   8  28
HETATM   28  N           1      -5.736  -0.531 -32.620  0.00  0.00    -0.365 N 
HETATM   29  H           1      -5.529  -1.320 -31.957  0.00  0.00     0.162 HD
BRANCH  28  30
HETATM   30  C           1      -5.997  -0.867 -34.036  0.00  0.00     0.160 C 
BRANCH  30  31
HETATM   31  C           1      -5.765  -2.342 -34.274  0.00  0.00    -0.041 A 
HETATM   32  C           1      -4.560  -2.892 -34.038  0.00  0.00     0.009 A 
HETATM   33  C           1      -4.332  -4.193 -34.269  0.00  0.00     0.001 A 
HETATM   34  C           1      -5.317  -4.972 -34.741  0.00  0.00     0.000 A 
HETATM   35  C           1      -6.526  -4.440 -34.976  0.00  0.00     0.001 A 
HETATM   36  C           1      -6.745  -3.136 -34.745  0.00  0.00     0.009 A 
ENDBRANCH  30  31
ENDBRANCH  28  30
ENDBRANCH   8  28
BRANCH  13  37
HETATM   37  O           1      -8.711   7.124 -31.854  0.00  0.00    -0.395 OA
HETATM   38  H           1      -8.719   7.936 -32.371  0.00  0.00     0.210 HD
ENDBRANCH  13  37
TORSDOF 11
ENDMDL
MODEL 7
REMARK VINA RESULT:      -7.6      3.374      7.313
REMARK  11 active torsions:
REMARK  status: ('A' for Active; 'I' for Inactive)
REMARK    1  A    between atoms: C_1  and  C_7 
REMARK    2  A    between atoms: C_1  and  C_11 
REMARK    3  A    between atoms: C_8  and  C_13 
REMARK    4  A    between atoms: C_8  and  O_14 
REMARK       I    between atoms: C_11  and  N_12 
REMARK    5  A    between atoms: N_12  and  C_13 
REMARK    6  A    between atoms: C_18  and  N_19 
REMARK    7  A    between atoms: N_19  and  C_20 
REMARK    8  A    between atoms: C_20  and  C_21 
REMARK    9  A    between atoms: C_28  and  C_29 
REMARK   10  A    between atoms: C_29  and  O_30 
REMARK   11  A    between atoms: C_31  and  O_32 
ROOT
HETATM    1  C           1      -9.611   1.812 -33.184  0.00  0.00     0.012 A 
HETATM    2  C           1     -10.432   4.752 -35.179  0.00  0.00     0.016 C 
HETATM    3  C           1     -10.407   4.566 -33.639  0.00  0.00    -0.030 C 
HETATM    4  C           1      -8.947   4.192 -33.226  0.00  0.00     0.056 C 
HETATM    5  C           1     -12.730   4.103 -31.057  0.00  0.00     0.020 C 
HETATM    6  C           1      -8.731   2.742 -33.544  0.00  0.00     0.056 A 
HETATM    7  S           1      -9.157   0.491 -33.624  0.00  0.00    -0.055 SA
HETATM    8  C           1      -7.916   0.998 -34.228  0.00  0.00     0.167 A 
HETATM    9  N           1      -7.750   2.253 -34.164  0.00  0.00    -0.228 NA
HETATM   10  C           1     -10.866   2.234 -32.486  0.00  0.00     0.055 C 
HETATM   11  C           1     -11.455   3.461 -33.228  0.00  0.00     0.012 C 
HETATM   12  C           1     -12.802   3.941 -32.596  0.00  0.00     0.008 C 
HETATM   13  C           1     -13.257   5.278 -33.210  0.00  0.00     0.128 C 
HETATM   14  C           1     -12.202   6.381 -33.276  0.00  0.00     0.033 C 
HETATM   15  C           1     -10.770   5.918 -32.992  0.00  0.00     0.013 C 
ENDROOT
BRANCH   4  16
HETATM   16  C           1      -7.790   5.059 -33.764  0.00  0.00     0.114 C 
BRANCH  16  17
HETATM   17  C           1      -6.653   5.245 -32.764  0.00  0.00     0.218 C 
HETATM   18  N           1      -5.655   4.315 -32.875  0.00  0.00    -0.359 N 
HETATM   19  H           1      -5.722   3.623 -33.621  0.00  0.00     0.162 HD
HETATM   20  O           1      -6.646   6.130 -31.944  0.00  0.00    -0.274 OA
BRANCH  18  21
HETATM   21  C           1      -4.499   4.257 -31.971  0.00  0.00     0.148 C 
BRANCH  21  22
HETATM   22  C           1      -4.755   3.194 -30.903  0.00  0.00     0.186 C 
BRANCH  22  23
HETATM   23  O           1      -5.420   2.103 -31.492  0.00  0.00    -0.394 OA
HETATM   24  C           1      -6.413   1.563 -30.647  0.00  0.00     0.201 C 
ENDBRANCH  22  23
ENDBRANCH  21  22
ENDBRANCH  18  21
ENDBRANCH  16  17
ENDBRANCH   4  16
BRANCH  12  25
HETATM   25  C           1     -13.890   2.867 -32.864  0.00  0.00     0.176 C 
BRANCH  25  26
HETATM   26  O           1     -14.379   2.327 -31.653  0.00  0.00    -0.400 OA
HETATM   27  H           1     -13.672   2.297 -31.005  0.00  0.00     0.209 HD
ENDBRANCH  25  26
ENDBRANCH  12  25
BRANCH   8  28
HETATM   28  N           1      -7.130   0.169 -34.776  0.00  0.00    -0.365 N 
HETATM   29  H           1      -7.370  -0.175 -35.739  0.00  0.00     0.162 HD
BRANCH  28  30
HETATM   30  C           1      -5.893  -0.342 -34.145  0.00  0.00     0.160 C 
BRANCH  30  31
HETATM   31  C           1      -5.799  -1.841 -34.321  0.00  0.00    -0.041 A 
HETATM   32  C           1      -4.631  -2.480 -34.125  0.00  0.00     0.009 A 
HETATM   33  C           1      -4.527  -3.806 -34.302  0.00  0.00     0.001 A 
HETATM   34  C           1      -5.599  -4.518 -34.678  0.00  0.00     0.000 A 
HETATM   35  C           1      -6.771  -3.896 -34.871  0.00  0.00     0.001 A 
HETATM   36  C           1      -6.867  -2.569 -34.695  0.00  0.00     0.009 A 
ENDBRANCH  30  31
ENDBRANCH  28  30
ENDBRANCH   8  28
BRANCH  13  37
HETATM   37  O           1     -13.782   5.039 -34.496  0.00  0.00    -0.395 OA
HETATM   38  H           1     -14.715   5.277 -34.480  0.00  0.00     0.210 HD
ENDBRANCH  13  37
TORSDOF 11
ENDMDL
MODEL 8
REMARK VINA RESULT:      -7.4      2.938      7.362
REMARK  11 active torsions:
REMARK  status: ('A' for Active; 'I' for Inactive)
REMARK    1  A    between atoms: C_1  and  C_7 
REMARK    2  A    between atoms: C_1  and  C_11 
REMARK    3  A    between atoms: C_8  and  C_13 
REMARK    4  A    between atoms: C_8  and  O_14 
REMARK       I    between atoms: C_11  and  N_12 
REMARK    5  A    between atoms: N_12  and  C_13 
REMARK    6  A    between atoms: C_18  and  N_19 
REMARK    7  A    between atoms: N_19  and  C_20 
REMARK    8  A    between atoms: C_20  and  C_21 
REMARK    9  A    between atoms: C_28  and  C_29 
REMARK   10  A    between atoms: C_29  and  O_30 
REMARK   11  A    between atoms: C_31  and  O_32 
ROOT
HETATM    1  C           1      -5.372   5.589 -30.405  0.00  0.00     0.012 A 
HETATM    2  C           1      -3.791   5.589 -33.691  0.00  0.00     0.016 C 
HETATM    3  C           1      -3.193   5.267 -32.296  0.00  0.00    -0.030 C 
HETATM    4  C           1      -3.965   4.038 -31.717  0.00  0.00     0.056 C 
HETATM    5  C           1      -1.173   6.867 -29.921  0.00  0.00     0.020 C 
HETATM    6  C           1      -5.285   4.521 -31.194  0.00  0.00     0.056 A 
HETATM    7  S           1      -6.771   5.840 -30.050  0.00  0.00    -0.055 SA
HETATM    8  C           1      -7.285   4.690 -30.807  0.00  0.00     0.167 A 
HETATM    9  N           1      -6.412   4.013 -31.430  0.00  0.00    -0.228 NA
HETATM   10  C           1      -4.126   6.347 -30.072  0.00  0.00     0.055 C 
HETATM   11  C           1      -3.303   6.541 -31.372  0.00  0.00     0.012 C 
HETATM   12  C           1      -2.002   7.373 -31.127  0.00  0.00     0.008 C 
HETATM   13  C           1      -1.102   7.373 -32.377  0.00  0.00     0.128 C 
HETATM   14  C           1      -0.830   6.009 -33.010  0.00  0.00     0.033 C 
HETATM   15  C           1      -1.716   4.873 -32.491  0.00  0.00     0.013 C 
ENDROOT
BRANCH   4  16
HETATM   16  C           1      -4.143   2.796 -32.616  0.00  0.00     0.114 C 
BRANCH  16  17
HETATM   17  C           1      -3.497   1.537 -32.049  0.00  0.00     0.218 C 
HETATM   18  N           1      -3.765   0.402 -32.765  0.00  0.00    -0.359 N 
HETATM   19  H           1      -4.316   0.489 -33.618  0.00  0.00     0.162 HD
HETATM   20  O           1      -2.819   1.545 -31.050  0.00  0.00    -0.274 OA
BRANCH  18  21
HETATM   21  C           1      -3.307  -0.935 -32.365  0.00  0.00     0.148 C 
BRANCH  21  22
HETATM   22  C           1      -4.174  -1.986 -33.058  0.00  0.00     0.186 C 
BRANCH  22  23
HETATM   23  O           1      -5.467  -1.465 -33.242  0.00  0.00    -0.394 OA
HETATM   24  C           1      -6.037  -1.871 -34.468  0.00  0.00     0.201 C 
ENDBRANCH  22  23
ENDBRANCH  21  22
ENDBRANCH  18  21
ENDBRANCH  16  17
ENDBRANCH   4  16
BRANCH  12  25
HETATM   25  C           1      -2.399   8.835 -30.792  0.00  0.00     0.176 C 
BRANCH  25  26
HETATM   26  O           1      -3.514   9.246 -31.557  0.00  0.00    -0.400 OA
HETATM   27  H           1      -4.322   9.078 -31.066  0.00  0.00     0.209 HD
ENDBRANCH  25  26
ENDBRANCH  12  25
BRANCH   8  28
HETATM   28  N           1      -8.533   4.474 -30.802  0.00  0.00    -0.365 N 
HETATM   29  H           1      -9.168   5.247 -31.125  0.00  0.00     0.162 HD
BRANCH  28  30
HETATM   30  C           1      -9.153   3.201 -30.374  0.00  0.00     0.160 C 
BRANCH  30  31
HETATM   31  C           1      -9.375   2.301 -31.568  0.00  0.00    -0.041 A 
HETATM   32  C           1      -8.814   1.079 -31.618  0.00  0.00     0.009 A 
HETATM   33  C           1      -8.981   0.280 -32.682  0.00  0.00     0.001 A 
HETATM   34  C           1      -9.721   0.694 -33.720  0.00  0.00     0.000 A 
HETATM   35  C           1     -10.292   1.907 -33.684  0.00  0.00     0.001 A 
HETATM   36  C           1     -10.117   2.702 -32.617  0.00  0.00     0.009 A 
ENDBRANCH  30  31
ENDBRANCH  28  30
ENDBRANCH   8  28
BRANCH  13  37
HETATM   37  O           1      -1.649   8.247 -33.338  0.00  0.00    -0.395 OA
HETATM   38  H           1      -2.527   7.921 -33.564  0.00  0.00     0.210 HD
ENDBRANCH  13  37
TORSDOF 11
ENDMDL
MODEL 9
REMARK VINA RESULT:      -7.4      2.623      5.323
REMARK  11 active torsions:
REMARK  status: ('A' for Active; 'I' for Inactive)
REMARK    1  A    between atoms: C_1  and  C_7 
REMARK    2  A    between atoms: C_1  and  C_11 
REMARK    3  A    between atoms: C_8  and  C_13 
REMARK    4  A    between atoms: C_8  and  O_14 
REMARK       I    between atoms: C_11  and  N_12 
REMARK    5  A    between atoms: N_12  and  C_13 
REMARK    6  A    between atoms: C_18  and  N_19 
REMARK    7  A    between atoms: N_19  and  C_20 
REMARK    8  A    between atoms: C_20  and  C_21 
REMARK    9  A    between atoms: C_28  and  C_29 
REMARK   10  A    between atoms: C_29  and  O_30 
REMARK   11  A    between atoms: C_31  and  O_32 
ROOT
HETATM    1  C           1      -3.761   3.289 -32.431  0.00  0.00     0.012 A 
HETATM    2  C           1      -6.928   2.723 -34.151  0.00  0.00     0.016 C 
HETATM    3  C           1      -6.456   2.255 -32.748  0.00  0.00    -0.030 C 
HETATM    4  C           1      -6.162   3.530 -31.893  0.00  0.00     0.056 C 
HETATM    5  C           1      -5.274  -0.695 -31.273  0.00  0.00     0.020 C 
HETATM    6  C           1      -4.829   4.075 -32.313  0.00  0.00     0.056 A 
HETATM    7  S           1      -2.602   4.075 -32.859  0.00  0.00    -0.055 SA
HETATM    8  C           1      -3.339   5.346 -32.896  0.00  0.00     0.167 A 
HETATM    9  N           1      -4.570   5.273 -32.599  0.00  0.00    -0.228 NA
HETATM   10  C           1      -3.912   1.821 -32.181  0.00  0.00     0.055 C 
HETATM   11  C           1      -5.191   1.326 -32.904  0.00  0.00     0.012 C 
HETATM   12  C           1      -5.401  -0.215 -32.740  0.00  0.00     0.008 C 
HETATM   13  C           1      -6.777  -0.646 -33.282  0.00  0.00     0.128 C 
HETATM   14  C           1      -7.975   0.174 -32.806  0.00  0.00     0.033 C 
HETATM   15  C           1      -7.615   1.480 -32.092  0.00  0.00     0.013 C 
ENDROOT
BRANCH   4  16
HETATM   16  C           1      -7.229   4.644 -31.848  0.00  0.00     0.114 C 
BRANCH  16  17
HETATM   17  C           1      -7.510   5.161 -30.441  0.00  0.00     0.218 C 
HETATM   18  N           1      -6.565   6.030 -29.968  0.00  0.00    -0.359 N 
HETATM   19  H           1      -5.799   6.293 -30.587  0.00  0.00     0.162 HD
HETATM   20  O           1      -8.477   4.821 -29.803  0.00  0.00    -0.274 OA
BRANCH  18  21
HETATM   21  C           1      -6.593   6.597 -28.614  0.00  0.00     0.148 C 
BRANCH  21  22
HETATM   22  C           1      -5.707   5.749 -27.701  0.00  0.00     0.186 C 
BRANCH  22  23
HETATM   23  O           1      -5.247   6.548 -26.638  0.00  0.00    -0.394 OA
HETATM   24  C           1      -3.922   6.992 -26.838  0.00  0.00     0.201 C 
ENDBRANCH  22  23
ENDBRANCH  21  22
ENDBRANCH  18  21
ENDBRANCH  16  17
ENDBRANCH   4  16
BRANCH  12  25
HETATM   25  C           1      -4.292  -0.957 -33.532  0.00  0.00     0.176 C 
BRANCH  25  26
HETATM   26  O           1      -3.558  -1.821 -32.689  0.00  0.00    -0.400 OA
HETATM   27  H           1      -3.427  -2.664 -33.127  0.00  0.00     0.209 HD
ENDBRANCH  25  26
ENDBRANCH  12  25
BRANCH   8  28
HETATM   28  N           1      -2.714   6.395 -33.234  0.00  0.00    -0.365 N 
HETATM   29  H           1      -2.240   6.406 -34.171  0.00  0.00     0.162 HD
BRANCH  28  30
HETATM   30  C           1      -2.614   7.608 -32.393  0.00  0.00     0.160 C 
BRANCH  30  31
HETATM   31  C           1      -1.499   7.452 -31.383  0.00  0.00    -0.041 A 
HETATM   32  C           1      -1.676   7.833 -30.105  0.00  0.00     0.009 A 
HETATM   33  C           1      -0.688   7.725 -29.204  0.00  0.00     0.001 A 
HETATM   34  C           1       0.501   7.226 -29.572  0.00  0.00     0.000 A 
HETATM   35  C           1       0.692   6.836 -30.841  0.00  0.00     0.001 A 
HETATM   36  C           1      -0.301   6.951 -31.737  0.00  0.00     0.009 A 
ENDBRANCH  30  31
ENDBRANCH  28  30
ENDBRANCH   8  28
BRANCH  13  37
HETATM   37  O           1      -6.734  -0.659 -34.691  0.00  0.00    -0.395 OA
HETATM   38  H           1      -6.088  -0.003 -34.970  0.00  0.00     0.210 HD
ENDBRANCH  13  37
TORSDOF 11
ENDMDL
MODEL 10
REMARK VINA RESULT:      -7.3      3.063      7.799
REMARK  11 active torsions:
REMARK  status: ('A' for Active; 'I' for Inactive)
REMARK    1  A    between atoms: C_1  and  C_7 
REMARK    2  A    between atoms: C_1  and  C_11 
REMARK    3  A    between atoms: C_8  and  C_13 
REMARK    4  A    between atoms: C_8  and  O_14 
REMARK       I    between atoms: C_11  and  N_12 
REMARK    5  A    between atoms: N_12  and  C_13 
REMARK    6  A    between atoms: C_18  and  N_19 
REMARK    7  A    between atoms: N_19  and  C_20 
REMARK    8  A    between atoms: C_20  and  C_21 
REMARK    9  A    between atoms: C_28  and  C_29 
REMARK   10  A    between atoms: C_29  and  O_30 
REMARK   11  A    between atoms: C_31  and  O_32 
ROOT
HETATM    1  C           1      -5.803   4.955 -31.729  0.00  0.00     0.012 A 
HETATM    2  C           1      -2.916   5.118 -33.952  0.00  0.00     0.016 C 
HETATM    3  C           1      -2.980   5.016 -32.404  0.00  0.00    -0.030 C 
HETATM    4  C           1      -3.708   3.682 -32.043  0.00  0.00     0.056 C 
HETATM    5  C           1      -2.583   7.156 -29.658  0.00  0.00     0.020 C 
HETATM    6  C           1      -5.182   3.890 -32.229  0.00  0.00     0.056 A 
HETATM    7  S           1      -7.228   4.911 -32.063  0.00  0.00    -0.055 SA
HETATM    8  C           1      -7.131   3.633 -32.785  0.00  0.00     0.167 A 
HETATM    9  N           1      -5.969   3.132 -32.854  0.00  0.00    -0.228 NA
HETATM   10  C           1      -4.998   5.988 -31.004  0.00  0.00     0.055 C 
HETATM   11  C           1      -3.718   6.285 -31.827  0.00  0.00     0.012 C 
HETATM   12  C           1      -2.839   7.396 -31.167  0.00  0.00     0.008 C 
HETATM   13  C           1      -1.481   7.524 -31.882  0.00  0.00     0.128 C 
HETATM   14  C           1      -0.719   6.221 -32.117  0.00  0.00     0.033 C 
HETATM   15  C           1      -1.534   4.948 -31.873  0.00  0.00     0.013 C 
ENDROOT
BRANCH   4  16
HETATM   16  C           1      -3.238   2.382 -32.730  0.00  0.00     0.114 C 
BRANCH  16  17
HETATM   17  C           1      -3.788   1.117 -32.080  0.00  0.00     0.218 C 
HETATM   18  N           1      -4.753   0.486 -32.818  0.00  0.00    -0.359 N 
HETATM   19  H           1      -4.987   0.869 -33.733  0.00  0.00     0.162 HD
HETATM   20  O           1      -3.410   0.719 -31.006  0.00  0.00    -0.274 OA
BRANCH  18  21
HETATM   21  C           1      -5.472  -0.709 -32.356  0.00  0.00     0.148 C 
BRANCH  21  22
HETATM   22  C           1      -6.574  -1.045 -33.361  0.00  0.00     0.186 C 
BRANCH  22  23
HETATM   23  O           1      -7.193   0.148 -33.778  0.00  0.00    -0.394 OA
HETATM   24  C           1      -7.616   0.088 -35.123  0.00  0.00     0.201 C 
ENDBRANCH  22  23
ENDBRANCH  21  22
ENDBRANCH  18  21
ENDBRANCH  16  17
ENDBRANCH   4  16
BRANCH  12  25
HETATM   25  C           1      -3.589   8.751 -31.264  0.00  0.00     0.176 C 
BRANCH  25  26
HETATM   26  O           1      -2.688   9.837 -31.193  0.00  0.00    -0.400 OA
HETATM   27  H           1      -1.994   9.724 -31.847  0.00  0.00     0.209 HD
ENDBRANCH  25  26
ENDBRANCH  12  25
BRANCH   8  28
HETATM   28  N           1      -8.185   3.147 -33.294  0.00  0.00    -0.365 N 
HETATM   29  H           1      -8.307   2.104 -33.270  0.00  0.00     0.162 HD
BRANCH  28  30
HETATM   30  C           1      -9.255   3.956 -33.916  0.00  0.00     0.160 C 
BRANCH  30  31
HETATM   31  C           1     -10.425   3.075 -34.290  0.00  0.00    -0.041 A 
HETATM   32  C           1     -11.279   3.448 -35.261  0.00  0.00     0.009 A 
HETATM   33  C           1     -12.336   2.688 -35.586  0.00  0.00     0.001 A 
HETATM   34  C           1     -12.554   1.534 -34.941  0.00  0.00     0.000 A 
HETATM   35  C           1     -11.709   1.145 -33.975  0.00  0.00     0.001 A 
HETATM   36  C           1     -10.656   1.912 -33.653  0.00  0.00     0.009 A 
ENDBRANCH  30  31
ENDBRANCH  28  30
ENDBRANCH   8  28
BRANCH  13  37
HETATM   37  O           1      -1.666   8.199 -33.106  0.00  0.00    -0.395 OA
HETATM   38  H           1      -1.516   7.566 -33.815  0.00  0.00     0.210 HD
ENDBRANCH  13  37
TORSDOF 11
ENDMDL
