MODEL 1
REMARK VINA RESULT:      -8.8      0.000      0.000
REMARK  6 active torsions:
REMARK  status: ('A' for Active; 'I' for Inactive)
REMARK    1  A    between atoms: C_5  and  C_6 
REMARK    2  A    between atoms: C_6  and  S_7 
REMARK    3  A    between atoms: S_7  and  C_8 
REMARK    4  A    between atoms: C_10  and  N_11 
REMARK       I    between atoms: N_11  and  C_12 
REMARK    5  A    between atoms: C_12  and  C_13 
REMARK    6  A    between atoms: C_14  and  C_15 
ROOT
HETATM    1  C   UNL     1      -4.759   6.165 -32.183  1.00  0.00     0.160 A 
HETATM    2  S   UNL     1      -4.999   4.588 -31.566  1.00  0.00    -0.022 SA
HETATM    3  C   UNL     1      -5.444   4.113 -33.140  1.00  0.00     0.197 A 
HETATM    4  N   UNL     1      -5.426   5.087 -34.025  1.00  0.00    -0.122 NA
HETATM    5  N   UNL     1      -5.029   6.288 -33.466  1.00  0.00    -0.133 NA
ENDROOT
BRANCH   3   6
HETATM    6  N   UNL     1      -5.767   2.820 -33.480  1.00  0.00    -0.301 N 
HETATM    7  C   UNL     1      -7.034   2.308 -33.610  1.00  0.00     0.247 C 
HETATM    8  O   UNL     1      -8.093   2.916 -33.521  1.00  0.00    -0.268 OA
HETATM    9  H   UNL     1      -4.958   2.230 -33.614  1.00  0.00     0.171 HD
BRANCH   7  10
HETATM   10  C   UNL     1      -7.020   0.840 -33.878  1.00  0.00     0.075 C 
HETATM   11  C   UNL     1      -5.855   0.177 -33.806  1.00  0.00     0.017 C 
BRANCH  11  12
HETATM   12  C   UNL     1      -5.674  -1.259 -34.074  1.00  0.00    -0.033 A 
HETATM   13  C   UNL     1      -4.512  -1.954 -33.709  1.00  0.00     0.051 A 
HETATM   14  C   UNL     1      -4.465  -3.313 -33.943  1.00  0.00     0.105 A 
HETATM   15  C   UNL     1      -5.518  -3.992 -34.509  1.00  0.00     0.105 A 
HETATM   16  O   UNL     1      -3.423  -4.133 -33.641  1.00  0.00    -0.323 OA
HETATM   17  O   UNL     1      -5.270  -5.322 -34.638  1.00  0.00    -0.323 OA
HETATM   18  C   UNL     1      -6.677  -3.349 -34.876  1.00  0.00     0.040 A 
HETATM   19  C   UNL     1      -3.946  -5.408 -34.070  1.00  0.00     0.352 A 
HETATM   20  C   UNL     1      -6.753  -1.970 -34.650  1.00  0.00     0.014 A 
ENDBRANCH  11  12
ENDBRANCH   7  10
ENDBRANCH   3   6
BRANCH   1  21
HETATM   21  S   UNL     1      -4.185   7.479 -31.189  1.00  0.00    -0.096 SA
BRANCH  21  22
HETATM   22  C   UNL     1      -2.583   7.831 -31.973  1.00  0.00     0.123 C 
BRANCH  22  23
HETATM   23  C   UNL     1      -1.471   7.063 -31.295  1.00  0.00    -0.005 A 
HETATM   24  C   UNL     1      -0.903   7.512 -30.085  1.00  0.00     0.042 A 
HETATM   25  C   UNL     1       0.149   6.819 -29.474  1.00  0.00     0.024 A 
HETATM   26 CL   UNL     1      -1.454   8.946 -29.286  1.00  0.00    -0.084 Cl
HETATM   27  C   UNL     1       0.664   5.667 -30.060  1.00  0.00     0.003 A 
HETATM   28  C   UNL     1       0.128   5.208 -31.259  1.00  0.00     0.024 A 
HETATM   29  C   UNL     1      -0.926   5.898 -31.873  1.00  0.00     0.042 A 
HETATM   30 CL   UNL     1      -1.508   5.253 -33.369  1.00  0.00    -0.084 Cl
ENDBRANCH  22  23
ENDBRANCH  21  22
ENDBRANCH   1  21
TORSDOF 6
ENDMDL
MODEL 2
REMARK VINA RESULT:      -8.5      5.131     11.342
REMARK  6 active torsions:
REMARK  status: ('A' for Active; 'I' for Inactive)
REMARK    1  A    between atoms: C_5  and  C_6 
REMARK    2  A    between atoms: C_6  and  S_7 
REMARK    3  A    between atoms: S_7  and  C_8 
REMARK    4  A    between atoms: C_10  and  N_11 
REMARK       I    between atoms: N_11  and  C_12 
REMARK    5  A    between atoms: C_12  and  C_13 
REMARK    6  A    between atoms: C_14  and  C_15 
ROOT
HETATM    1  C   UNL     1      -4.382   3.067 -32.269  1.00  0.00     0.160 A 
HETATM    2  S   UNL     1      -4.512   4.656 -31.650  1.00  0.00    -0.022 SA
HETATM    3  C   UNL     1      -2.857   4.565 -31.257  1.00  0.00     0.197 A 
HETATM    4  N   UNL     1      -2.291   3.415 -31.558  1.00  0.00    -0.122 NA
HETATM    5  N   UNL     1      -3.184   2.537 -32.146  1.00  0.00    -0.133 NA
ENDROOT
BRANCH   3   6
HETATM    6  N   UNL     1      -2.149   5.606 -30.703  1.00  0.00    -0.301 N 
HETATM    7  C   UNL     1      -1.216   6.383 -31.342  1.00  0.00     0.247 C 
HETATM    8  O   UNL     1      -0.900   6.342 -32.524  1.00  0.00    -0.268 OA
HETATM    9  H   UNL     1      -2.359   5.753 -29.726  1.00  0.00     0.171 HD
BRANCH   7  10
HETATM   10  C   UNL     1      -0.558   7.347 -30.412  1.00  0.00     0.075 C 
HETATM   11  C   UNL     1      -0.277   6.954 -29.159  1.00  0.00     0.017 C 
BRANCH  11  12
HETATM   12  C   UNL     1       0.337   7.795 -28.119  1.00  0.00    -0.033 A 
HETATM   13  C   UNL     1      -0.036   9.131 -27.912  1.00  0.00     0.051 A 
HETATM   14  C   UNL     1       0.550   9.817 -26.867  1.00  0.00     0.105 A 
HETATM   15  C   UNL     1       1.470   9.227 -26.034  1.00  0.00     0.105 A 
HETATM   16  O   UNL     1       0.293  11.108 -26.525  1.00  0.00    -0.323 OA
HETATM   17  O   UNL     1       1.910  10.072 -25.065  1.00  0.00    -0.323 OA
HETATM   18  C   UNL     1       1.858   7.918 -26.199  1.00  0.00     0.040 A 
HETATM   19  C   UNL     1       1.148  11.258 -25.372  1.00  0.00     0.352 A 
HETATM   20  C   UNL     1       1.280   7.197 -27.251  1.00  0.00     0.014 A 
ENDBRANCH  11  12
ENDBRANCH   7  10
ENDBRANCH   3   6
BRANCH   1  21
HETATM   21  S   UNL     1      -5.729   2.244 -33.015  1.00  0.00    -0.096 SA
BRANCH  21  22
HETATM   22  C   UNL     1      -5.741   0.685 -32.078  1.00  0.00     0.123 C 
BRANCH  22  23
HETATM   23  C   UNL     1      -5.723  -0.504 -33.012  1.00  0.00    -0.005 A 
HETATM   24  C   UNL     1      -6.907  -0.986 -33.606  1.00  0.00     0.042 A 
HETATM   25  C   UNL     1      -6.896  -2.107 -34.444  1.00  0.00     0.024 A 
HETATM   26 CL   UNL     1      -8.445  -0.239 -33.333  1.00  0.00    -0.084 Cl
HETATM   27  C   UNL     1      -5.705  -2.779 -34.703  1.00  0.00     0.003 A 
HETATM   28  C   UNL     1      -4.524  -2.329 -34.120  1.00  0.00     0.024 A 
HETATM   29  C   UNL     1      -4.531  -1.207 -33.282  1.00  0.00     0.042 A 
HETATM   30 CL   UNL     1      -3.012  -0.741 -32.595  1.00  0.00    -0.084 Cl
ENDBRANCH  22  23
ENDBRANCH  21  22
ENDBRANCH   1  21
TORSDOF 6
ENDMDL
MODEL 3
REMARK VINA RESULT:      -8.5      5.031     11.209
REMARK  6 active torsions:
REMARK  status: ('A' for Active; 'I' for Inactive)
REMARK    1  A    between atoms: C_5  and  C_6 
REMARK    2  A    between atoms: C_6  and  S_7 
REMARK    3  A    between atoms: S_7  and  C_8 
REMARK    4  A    between atoms: C_10  and  N_11 
REMARK       I    between atoms: N_11  and  C_12 
REMARK    5  A    between atoms: C_12  and  C_13 
REMARK    6  A    between atoms: C_14  and  C_15 
ROOT
HETATM    1  C   UNL     1      -4.567   2.918 -32.313  1.00  0.00     0.160 A 
HETATM    2  S   UNL     1      -4.806   4.455 -31.602  1.00  0.00    -0.022 SA
HETATM    3  C   UNL     1      -3.135   4.488 -31.275  1.00  0.00     0.197 A 
HETATM    4  N   UNL     1      -2.486   3.409 -31.660  1.00  0.00    -0.122 NA
HETATM    5  N   UNL     1      -3.324   2.489 -32.263  1.00  0.00    -0.133 NA
ENDROOT
BRANCH   3   6
HETATM    6  N   UNL     1      -2.496   5.556 -30.689  1.00  0.00    -0.301 N 
HETATM    7  C   UNL     1      -1.808   6.547 -31.343  1.00  0.00     0.247 C 
HETATM    8  O   UNL     1      -1.700   6.702 -32.552  1.00  0.00    -0.268 OA
HETATM    9  H   UNL     1      -2.552   5.548 -29.681  1.00  0.00     0.171 HD
BRANCH   7  10
HETATM   10  C   UNL     1      -1.142   7.486 -30.394  1.00  0.00     0.075 C 
HETATM   11  C   UNL     1      -0.841   7.057 -29.158  1.00  0.00     0.017 C 
BRANCH  11  12
HETATM   12  C   UNL     1      -0.217   7.870 -28.102  1.00  0.00    -0.033 A 
HETATM   13  C   UNL     1      -0.909   8.273 -26.951  1.00  0.00     0.051 A 
HETATM   14  C   UNL     1      -0.217   8.976 -25.986  1.00  0.00     0.105 A 
HETATM   15  C   UNL     1       1.117   9.280 -26.122  1.00  0.00     0.105 A 
HETATM   16  O   UNL     1      -0.734   9.429 -24.811  1.00  0.00    -0.323 OA
HETATM   17  O   UNL     1       1.606   9.963 -25.054  1.00  0.00    -0.323 OA
HETATM   18  C   UNL     1       1.834   8.898 -27.232  1.00  0.00     0.040 A 
HETATM   19  C   UNL     1       0.432  10.040 -24.220  1.00  0.00     0.352 A 
HETATM   20  C   UNL     1       1.157   8.183 -28.227  1.00  0.00     0.014 A 
ENDBRANCH  11  12
ENDBRANCH   7  10
ENDBRANCH   3   6
BRANCH   1  21
HETATM   21  S   UNL     1      -5.868   2.020 -33.054  1.00  0.00    -0.096 SA
BRANCH  21  22
HETATM   22  C   UNL     1      -5.812   0.476 -32.096  1.00  0.00     0.123 C 
BRANCH  22  23
HETATM   23  C   UNL     1      -5.779  -0.726 -33.013  1.00  0.00    -0.005 A 
HETATM   24  C   UNL     1      -4.574  -1.404 -33.287  1.00  0.00     0.042 A 
HETATM   25  C   UNL     1      -4.538  -2.497 -34.162  1.00  0.00     0.024 A 
HETATM   26 CL   UNL     1      -3.067  -0.929 -32.579  1.00  0.00    -0.084 Cl
HETATM   27  C   UNL     1      -5.701  -2.933 -34.789  1.00  0.00     0.003 A 
HETATM   28  C   UNL     1      -6.901  -2.275 -34.542  1.00  0.00     0.024 A 
HETATM   29  C   UNL     1      -6.942  -1.182 -33.666  1.00  0.00     0.042 A 
HETATM   30 CL   UNL     1      -8.481  -0.424 -33.441  1.00  0.00    -0.084 Cl
ENDBRANCH  22  23
ENDBRANCH  21  22
ENDBRANCH   1  21
TORSDOF 6
ENDMDL
MODEL 4
REMARK VINA RESULT:      -8.4      2.549      3.138
REMARK  6 active torsions:
REMARK  status: ('A' for Active; 'I' for Inactive)
REMARK    1  A    between atoms: C_5  and  C_6 
REMARK    2  A    between atoms: C_6  and  S_7 
REMARK    3  A    between atoms: S_7  and  C_8 
REMARK    4  A    between atoms: C_10  and  N_11 
REMARK       I    between atoms: N_11  and  C_12 
REMARK    5  A    between atoms: C_12  and  C_13 
REMARK    6  A    between atoms: C_14  and  C_15 
ROOT
HETATM    1  C   UNL     1      -2.327   6.232 -30.975  1.00  0.00     0.160 A 
HETATM    2  S   UNL     1      -3.934   5.724 -31.263  1.00  0.00    -0.022 SA
HETATM    3  C   UNL     1      -3.308   4.185 -31.641  1.00  0.00     0.197 A 
HETATM    4  N   UNL     1      -1.996   4.102 -31.569  1.00  0.00    -0.122 NA
HETATM    5  N   UNL     1      -1.421   5.300 -31.184  1.00  0.00    -0.133 NA
ENDROOT
BRANCH   3   6
HETATM    6  N   UNL     1      -4.093   3.104 -31.963  1.00  0.00    -0.301 N 
HETATM    7  C   UNL     1      -4.936   2.432 -31.114  1.00  0.00     0.247 C 
HETATM    8  O   UNL     1      -5.197   2.713 -29.952  1.00  0.00    -0.268 OA
HETATM    9  H   UNL     1      -3.983   2.804 -32.922  1.00  0.00     0.171 HD
BRANCH   7  10
HETATM   10  C   UNL     1      -5.549   1.236 -31.763  1.00  0.00     0.075 C 
HETATM   11  C   UNL     1      -4.817   0.522 -32.634  1.00  0.00     0.017 C 
BRANCH  11  12
HETATM   12  C   UNL     1      -5.289  -0.657 -33.377  1.00  0.00    -0.033 A 
HETATM   13  C   UNL     1      -4.560  -1.855 -33.432  1.00  0.00     0.051 A 
HETATM   14  C   UNL     1      -5.119  -2.927 -34.098  1.00  0.00     0.105 A 
HETATM   15  C   UNL     1      -6.355  -2.852 -34.694  1.00  0.00     0.105 A 
HETATM   16  O   UNL     1      -4.552  -4.157 -34.235  1.00  0.00    -0.323 OA
HETATM   17  O   UNL     1      -6.721  -4.021 -35.281  1.00  0.00    -0.323 OA
HETATM   18  C   UNL     1      -7.104  -1.698 -34.658  1.00  0.00     0.040 A 
HETATM   19  C   UNL     1      -5.581  -4.849 -34.973  1.00  0.00     0.352 A 
HETATM   20  C   UNL     1      -6.563  -0.594 -33.988  1.00  0.00     0.014 A 
ENDBRANCH  11  12
ENDBRANCH   7  10
ENDBRANCH   3   6
BRANCH   1  21
HETATM   21  S   UNL     1      -1.942   7.846 -30.431  1.00  0.00    -0.096 SA
BRANCH  21  22
HETATM   22  C   UNL     1      -1.980   7.620 -28.628  1.00  0.00     0.123 C 
BRANCH  22  23
HETATM   23  C   UNL     1      -0.755   8.229 -27.983  1.00  0.00    -0.005 A 
HETATM   24  C   UNL     1      -0.747   9.571 -27.551  1.00  0.00     0.042 A 
HETATM   25  C   UNL     1       0.397  10.146 -26.984  1.00  0.00     0.024 A 
HETATM   26 CL   UNL     1      -2.134  10.597 -27.703  1.00  0.00    -0.084 Cl
HETATM   27  C   UNL     1       1.561   9.397 -26.842  1.00  0.00     0.003 A 
HETATM   28  C   UNL     1       1.582   8.074 -27.269  1.00  0.00     0.024 A 
HETATM   29  C   UNL     1       0.439   7.494 -27.835  1.00  0.00     0.042 A 
HETATM   30 CL   UNL     1       0.575   5.847 -28.348  1.00  0.00    -0.084 Cl
ENDBRANCH  22  23
ENDBRANCH  21  22
ENDBRANCH   1  21
TORSDOF 6
ENDMDL
MODEL 5
REMARK VINA RESULT:      -8.4      1.110      2.042
REMARK  6 active torsions:
REMARK  status: ('A' for Active; 'I' for Inactive)
REMARK    1  A    between atoms: C_5  and  C_6 
REMARK    2  A    between atoms: C_6  and  S_7 
REMARK    3  A    between atoms: S_7  and  C_8 
REMARK    4  A    between atoms: C_10  and  N_11 
REMARK       I    between atoms: N_11  and  C_12 
REMARK    5  A    between atoms: C_12  and  C_13 
REMARK    6  A    between atoms: C_14  and  C_15 
ROOT
HETATM    1  C   UNL     1      -4.445   6.183 -31.380  1.00  0.00     0.160 A 
HETATM    2  S   UNL     1      -4.498   5.414 -32.907  1.00  0.00    -0.022 SA
HETATM    3  C   UNL     1      -5.021   4.006 -32.103  1.00  0.00     0.197 A 
HETATM    4  N   UNL     1      -5.115   4.132 -30.796  1.00  0.00    -0.122 NA
HETATM    5  N   UNL     1      -4.774   5.403 -30.372  1.00  0.00    -0.133 NA
ENDROOT
BRANCH   3   6
HETATM    6  N   UNL     1      -5.353   2.839 -32.751  1.00  0.00    -0.301 N 
HETATM    7  C   UNL     1      -6.456   2.636 -33.542  1.00  0.00     0.247 C 
HETATM    8  O   UNL     1      -7.296   3.464 -33.870  1.00  0.00    -0.268 OA
HETATM    9  H   UNL     1      -4.700   2.088 -32.577  1.00  0.00     0.171 HD
BRANCH   7  10
HETATM   10  C   UNL     1      -6.567   1.219 -33.995  1.00  0.00     0.075 C 
HETATM   11  C   UNL     1      -5.670   0.322 -33.554  1.00  0.00     0.017 C 
BRANCH  11  12
HETATM   12  C   UNL     1      -5.627  -1.098 -33.935  1.00  0.00    -0.033 A 
HETATM   13  C   UNL     1      -4.517  -1.915 -33.677  1.00  0.00     0.051 A 
HETATM   14  C   UNL     1      -4.599  -3.252 -34.012  1.00  0.00     0.105 A 
HETATM   15  C   UNL     1      -5.729  -3.794 -34.576  1.00  0.00     0.105 A 
HETATM   16  O   UNL     1      -3.621  -4.178 -33.820  1.00  0.00    -0.323 OA
HETATM   17  O   UNL     1      -5.605  -5.126 -34.813  1.00  0.00    -0.323 OA
HETATM   18  C   UNL     1      -6.842  -3.028 -34.839  1.00  0.00     0.040 A 
HETATM   19  C   UNL     1      -4.272  -5.367 -34.317  1.00  0.00     0.352 A 
HETATM   20  C   UNL     1      -6.787  -1.669 -34.510  1.00  0.00     0.014 A 
ENDBRANCH  11  12
ENDBRANCH   7  10
ENDBRANCH   3   6
BRANCH   1  21
HETATM   21  S   UNL     1      -4.011   7.864 -31.197  1.00  0.00    -0.096 SA
BRANCH  21  22
HETATM   22  C   UNL     1      -2.292   7.843 -31.791  1.00  0.00     0.123 C 
BRANCH  22  23
HETATM   23  C   UNL     1      -1.359   7.327 -30.719  1.00  0.00    -0.005 A 
HETATM   24  C   UNL     1      -0.755   6.057 -30.824  1.00  0.00     0.042 A 
HETATM   25  C   UNL     1       0.083   5.565 -29.816  1.00  0.00     0.024 A 
HETATM   26 CL   UNL     1      -1.016   5.022 -32.187  1.00  0.00    -0.084 Cl
HETATM   27  C   UNL     1       0.332   6.325 -28.677  1.00  0.00     0.003 A 
HETATM   28  C   UNL     1      -0.259   7.577 -28.546  1.00  0.00     0.024 A 
HETATM   29  C   UNL     1      -1.098   8.073 -29.552  1.00  0.00     0.042 A 
HETATM   30 CL   UNL     1      -1.796   9.634 -29.282  1.00  0.00    -0.084 Cl
ENDBRANCH  22  23
ENDBRANCH  21  22
ENDBRANCH   1  21
TORSDOF 6
ENDMDL
MODEL 6
REMARK VINA RESULT:      -7.9      3.346      4.330
REMARK  6 active torsions:
REMARK  status: ('A' for Active; 'I' for Inactive)
REMARK    1  A    between atoms: C_5  and  C_6 
REMARK    2  A    between atoms: C_6  and  S_7 
REMARK    3  A    between atoms: S_7  and  C_8 
REMARK    4  A    between atoms: C_10  and  N_11 
REMARK       I    between atoms: N_11  and  C_12 
REMARK    5  A    between atoms: C_12  and  C_13 
REMARK    6  A    between atoms: C_14  and  C_15 
ROOT
HETATM    1  C   UNL     1      -1.238   6.402 -30.161  1.00  0.00     0.160 A 
HETATM    2  S   UNL     1      -2.786   6.068 -30.806  1.00  0.00    -0.022 SA
HETATM    3  C   UNL     1      -2.141   4.619 -31.427  1.00  0.00     0.197 A 
HETATM    4  N   UNL     1      -0.862   4.444 -31.173  1.00  0.00    -0.122 NA
HETATM    5  N   UNL     1      -0.332   5.488 -30.436  1.00  0.00    -0.133 NA
ENDROOT
BRANCH   3   6
HETATM    6  N   UNL     1      -2.886   3.687 -32.110  1.00  0.00    -0.301 N 
HETATM    7  C   UNL     1      -3.990   3.025 -31.634  1.00  0.00     0.247 C 
HETATM    8  O   UNL     1      -4.550   3.193 -30.558  1.00  0.00    -0.268 OA
HETATM    9  H   UNL     1      -2.530   3.493 -33.035  1.00  0.00     0.171 HD
BRANCH   7  10
HETATM   10  C   UNL     1      -4.486   1.998 -32.596  1.00  0.00     0.075 C 
HETATM   11  C   UNL     1      -4.915   0.817 -32.124  1.00  0.00     0.017 C 
BRANCH  11  12
HETATM   12  C   UNL     1      -5.400  -0.304 -32.944  1.00  0.00    -0.033 A 
HETATM   13  C   UNL     1      -4.595  -1.407 -33.266  1.00  0.00     0.051 A 
HETATM   14  C   UNL     1      -5.163  -2.440 -33.985  1.00  0.00     0.105 A 
HETATM   15  C   UNL     1      -6.479  -2.417 -34.380  1.00  0.00     0.105 A 
HETATM   16  O   UNL     1      -4.527  -3.581 -34.368  1.00  0.00    -0.323 OA
HETATM   17  O   UNL     1      -6.837  -3.536 -35.062  1.00  0.00    -0.323 OA
HETATM   18  C   UNL     1      -7.303  -1.357 -34.079  1.00  0.00     0.040 A 
HETATM   19  C   UNL     1      -5.600  -4.277 -35.037  1.00  0.00     0.352 A 
HETATM   20  C   UNL     1      -6.755  -0.295 -33.351  1.00  0.00     0.014 A 
ENDBRANCH  11  12
ENDBRANCH   7  10
ENDBRANCH   3   6
BRANCH   1  21
HETATM   21  S   UNL     1      -0.912   7.825 -29.205  1.00  0.00    -0.096 SA
BRANCH  21  22
HETATM   22  C   UNL     1      -0.753   7.098 -27.546  1.00  0.00     0.123 C 
BRANCH  22  23
HETATM   23  C   UNL     1      -0.673   8.177 -26.490  1.00  0.00    -0.005 A 
HETATM   24  C   UNL     1       0.506   8.926 -26.299  1.00  0.00     0.042 A 
HETATM   25  C   UNL     1       0.593   9.903 -25.300  1.00  0.00     0.024 A 
HETATM   26 CL   UNL     1       1.920   8.683 -27.268  1.00  0.00    -0.084 Cl
HETATM   27  C   UNL     1      -0.492  10.150 -24.463  1.00  0.00     0.003 A 
HETATM   28  C   UNL     1      -1.663   9.417 -24.626  1.00  0.00     0.024 A 
HETATM   29  C   UNL     1      -1.754   8.440 -25.625  1.00  0.00     0.042 A 
HETATM   30 CL   UNL     1      -3.249   7.575 -25.732  1.00  0.00    -0.084 Cl
ENDBRANCH  22  23
ENDBRANCH  21  22
ENDBRANCH   1  21
TORSDOF 6
ENDMDL
MODEL 7
REMARK VINA RESULT:      -7.9      7.155      9.700
REMARK  6 active torsions:
REMARK  status: ('A' for Active; 'I' for Inactive)
REMARK    1  A    between atoms: C_5  and  C_6 
REMARK    2  A    between atoms: C_6  and  S_7 
REMARK    3  A    between atoms: S_7  and  C_8 
REMARK    4  A    between atoms: C_10  and  N_11 
REMARK       I    between atoms: N_11  and  C_12 
REMARK    5  A    between atoms: C_12  and  C_13 
REMARK    6  A    between atoms: C_14  and  C_15 
ROOT
HETATM    1  C   UNL     1     -12.684   3.753 -33.907  1.00  0.00     0.160 A 
HETATM    2  S   UNL     1     -11.542   3.118 -32.803  1.00  0.00    -0.022 SA
HETATM    3  C   UNL     1     -11.250   1.872 -33.927  1.00  0.00     0.197 A 
HETATM    4  N   UNL     1     -11.983   1.944 -35.018  1.00  0.00    -0.122 NA
HETATM    5  N   UNL     1     -12.825   3.042 -35.005  1.00  0.00    -0.133 NA
ENDROOT
BRANCH   3   6
HETATM    6  N   UNL     1     -10.311   0.885 -33.740  1.00  0.00    -0.301 N 
HETATM    7  C   UNL     1      -8.962   0.998 -33.964  1.00  0.00     0.247 C 
HETATM    8  O   UNL     1      -8.346   2.002 -34.295  1.00  0.00    -0.268 OA
HETATM    9  H   UNL     1     -10.710   0.010 -33.430  1.00  0.00     0.171 HD
BRANCH   7  10
HETATM   10  C   UNL     1      -8.251  -0.300 -33.770  1.00  0.00     0.075 C 
HETATM   11  C   UNL     1      -7.304  -0.662 -34.650  1.00  0.00     0.017 C 
BRANCH  11  12
HETATM   12  C   UNL     1      -6.542  -1.919 -34.613  1.00  0.00    -0.033 A 
HETATM   13  C   UNL     1      -5.275  -2.017 -34.018  1.00  0.00     0.051 A 
HETATM   14  C   UNL     1      -4.670  -3.257 -33.974  1.00  0.00     0.105 A 
HETATM   15  C   UNL     1      -5.273  -4.381 -34.486  1.00  0.00     0.105 A 
HETATM   16  O   UNL     1      -3.453  -3.525 -33.427  1.00  0.00    -0.323 OA
HETATM   17  O   UNL     1      -4.513  -5.496 -34.327  1.00  0.00    -0.323 OA
HETATM   18  C   UNL     1      -6.516  -4.329 -35.072  1.00  0.00     0.040 A 
HETATM   19  C   UNL     1      -3.368  -4.950 -33.641  1.00  0.00     0.352 A 
HETATM   20  C   UNL     1      -7.155  -3.085 -35.130  1.00  0.00     0.014 A 
ENDBRANCH  11  12
ENDBRANCH   7  10
ENDBRANCH   3   6
BRANCH   1  21
HETATM   21  S   UNL     1     -13.562   5.230 -33.595  1.00  0.00    -0.096 SA
BRANCH  21  22
HETATM   22  C   UNL     1     -14.217   4.897 -31.932  1.00  0.00     0.123 C 
BRANCH  22  23
HETATM   23  C   UNL     1     -15.691   4.565 -31.991  1.00  0.00    -0.005 A 
HETATM   24  C   UNL     1     -16.672   5.576 -31.921  1.00  0.00     0.042 A 
HETATM   25  C   UNL     1     -18.037   5.266 -31.942  1.00  0.00     0.024 A 
HETATM   26 CL   UNL     1     -16.260   7.253 -31.793  1.00  0.00    -0.084 Cl
HETATM   27  C   UNL     1     -18.456   3.942 -32.025  1.00  0.00     0.003 A 
HETATM   28  C   UNL     1     -17.508   2.926 -32.085  1.00  0.00     0.024 A 
HETATM   29  C   UNL     1     -16.140   3.231 -32.066  1.00  0.00     0.042 A 
HETATM   30 CL   UNL     1     -15.045   1.893 -32.128  1.00  0.00    -0.084 Cl
ENDBRANCH  22  23
ENDBRANCH  21  22
ENDBRANCH   1  21
TORSDOF 6
ENDMDL
MODEL 8
REMARK VINA RESULT:      -7.9      6.562     10.440
REMARK  6 active torsions:
REMARK  status: ('A' for Active; 'I' for Inactive)
REMARK    1  A    between atoms: C_5  and  C_6 
REMARK    2  A    between atoms: C_6  and  S_7 
REMARK    3  A    between atoms: S_7  and  C_8 
REMARK    4  A    between atoms: C_10  and  N_11 
REMARK       I    between atoms: N_11  and  C_12 
REMARK    5  A    between atoms: C_12  and  C_13 
REMARK    6  A    between atoms: C_14  and  C_15 
ROOT
HETATM    1  C   UNL     1      -7.355   1.253 -31.384  1.00  0.00     0.160 A 
HETATM    2  S   UNL     1      -8.865   0.570 -31.803  1.00  0.00    -0.022 SA
HETATM    3  C   UNL     1      -9.502   2.150 -31.810  1.00  0.00     0.197 A 
HETATM    4  N   UNL     1      -8.631   3.085 -31.496  1.00  0.00    -0.122 NA
HETATM    5  N   UNL     1      -7.376   2.562 -31.243  1.00  0.00    -0.133 NA
ENDROOT
BRANCH   3   6
HETATM    6  N   UNL     1     -10.803   2.444 -32.143  1.00  0.00    -0.301 N 
HETATM    7  C   UNL     1     -11.286   2.664 -33.409  1.00  0.00     0.247 C 
HETATM    8  O   UNL     1     -10.673   2.567 -34.464  1.00  0.00    -0.268 OA
HETATM    9  H   UNL     1     -11.413   2.514 -31.341  1.00  0.00     0.171 HD
BRANCH   7  10
HETATM   10  C   UNL     1     -12.721   3.071 -33.398  1.00  0.00     0.075 C 
HETATM   11  C   UNL     1     -13.399   3.036 -32.239  1.00  0.00     0.017 C 
BRANCH  11  12
HETATM   12  C   UNL     1     -14.821   3.374 -32.073  1.00  0.00    -0.033 A 
HETATM   13  C   UNL     1     -15.274   4.696 -31.953  1.00  0.00     0.051 A 
HETATM   14  C   UNL     1     -16.634   4.914 -31.869  1.00  0.00     0.105 A 
HETATM   15  C   UNL     1     -17.542   3.882 -31.908  1.00  0.00     0.105 A 
HETATM   16  O   UNL     1     -17.236   6.129 -31.760  1.00  0.00    -0.323 OA
HETATM   17  O   UNL     1     -18.826   4.316 -31.826  1.00  0.00    -0.323 OA
HETATM   18  C   UNL     1     -17.140   2.572 -32.031  1.00  0.00     0.040 A 
HETATM   19  C   UNL     1     -18.627   5.743 -31.748  1.00  0.00     0.352 A 
HETATM   20  C   UNL     1     -15.765   2.321 -32.119  1.00  0.00     0.014 A 
ENDBRANCH  11  12
ENDBRANCH   7  10
ENDBRANCH   3   6
BRANCH   1  21
HETATM   21  S   UNL     1      -5.916   0.285 -31.185  1.00  0.00    -0.096 SA
BRANCH  21  22
HETATM   22  C   UNL     1      -5.251   0.304 -32.878  1.00  0.00     0.123 C 
BRANCH  22  23
HETATM   23  C   UNL     1      -5.138  -1.100 -33.428  1.00  0.00    -0.005 A 
HETATM   24  C   UNL     1      -4.080  -1.951 -33.047  1.00  0.00     0.042 A 
HETATM   25  C   UNL     1      -3.956  -3.239 -33.581  1.00  0.00     0.024 A 
HETATM   26 CL   UNL     1      -2.865  -1.462 -31.914  1.00  0.00    -0.084 Cl
HETATM   27  C   UNL     1      -4.879  -3.705 -34.512  1.00  0.00     0.003 A 
HETATM   28  C   UNL     1      -5.926  -2.881 -34.911  1.00  0.00     0.024 A 
HETATM   29  C   UNL     1      -6.055  -1.592 -34.379  1.00  0.00     0.042 A 
HETATM   30 CL   UNL     1      -7.382  -0.643 -34.954  1.00  0.00    -0.084 Cl
ENDBRANCH  22  23
ENDBRANCH  21  22
ENDBRANCH   1  21
TORSDOF 6
ENDMDL
MODEL 9
REMARK VINA RESULT:      -7.9      1.555      1.897
REMARK  6 active torsions:
REMARK  status: ('A' for Active; 'I' for Inactive)
REMARK    1  A    between atoms: C_5  and  C_6 
REMARK    2  A    between atoms: C_6  and  S_7 
REMARK    3  A    between atoms: S_7  and  C_8 
REMARK    4  A    between atoms: C_10  and  N_11 
REMARK       I    between atoms: N_11  and  C_12 
REMARK    5  A    between atoms: C_12  and  C_13 
REMARK    6  A    between atoms: C_14  and  C_15 
ROOT
HETATM    1  C   UNL     1      -4.136   6.728 -31.280  1.00  0.00     0.160 A 
HETATM    2  S   UNL     1      -5.046   5.316 -30.959  1.00  0.00    -0.022 SA
HETATM    3  C   UNL     1      -4.662   4.792 -32.534  1.00  0.00     0.197 A 
HETATM    4  N   UNL     1      -3.930   5.642 -33.223  1.00  0.00    -0.122 NA
HETATM    5  N   UNL     1      -3.625   6.776 -32.492  1.00  0.00    -0.133 NA
ENDROOT
BRANCH   3   6
HETATM    6  N   UNL     1      -5.047   3.576 -33.045  1.00  0.00    -0.301 N 
HETATM    7  C   UNL     1      -6.326   3.204 -33.377  1.00  0.00     0.247 C 
HETATM    8  O   UNL     1      -7.332   3.901 -33.349  1.00  0.00    -0.268 OA
HETATM    9  H   UNL     1      -4.281   2.925 -33.145  1.00  0.00     0.171 HD
BRANCH   7  10
HETATM   10  C   UNL     1      -6.404   1.774 -33.796  1.00  0.00     0.075 C 
HETATM   11  C   UNL     1      -5.425   0.934 -33.425  1.00  0.00     0.017 C 
BRANCH  11  12
HETATM   12  C   UNL     1      -5.343  -0.490 -33.786  1.00  0.00    -0.033 A 
HETATM   13  C   UNL     1      -4.313  -1.326 -33.329  1.00  0.00     0.051 A 
HETATM   14  C   UNL     1      -4.360  -2.664 -33.667  1.00  0.00     0.105 A 
HETATM   15  C   UNL     1      -5.381  -3.189 -34.423  1.00  0.00     0.105 A 
HETATM   16  O   UNL     1      -3.451  -3.606 -33.298  1.00  0.00    -0.323 OA
HETATM   17  O   UNL     1      -5.243  -4.524 -34.627  1.00  0.00    -0.323 OA
HETATM   18  C   UNL     1      -6.412  -2.404 -34.886  1.00  0.00     0.040 A 
HETATM   19  C   UNL     1      -4.026  -4.786 -33.898  1.00  0.00     0.352 A 
HETATM   20  C   UNL     1      -6.391  -1.044 -34.557  1.00  0.00     0.014 A 
ENDBRANCH  11  12
ENDBRANCH   7  10
ENDBRANCH   3   6
BRANCH   1  21
HETATM   21  S   UNL     1      -3.899   7.977 -30.084  1.00  0.00    -0.096 SA
BRANCH  21  22
HETATM   22  C   UNL     1      -3.120   7.027 -28.743  1.00  0.00     0.123 C 
BRANCH  22  23
HETATM   23  C   UNL     1      -1.688   7.466 -28.535  1.00  0.00    -0.005 A 
HETATM   24  C   UNL     1      -1.364   8.502 -27.636  1.00  0.00     0.042 A 
HETATM   25  C   UNL     1      -0.042   8.931 -27.466  1.00  0.00     0.024 A 
HETATM   26 CL   UNL     1      -2.568   9.317 -26.696  1.00  0.00    -0.084 Cl
HETATM   27  C   UNL     1       0.986   8.342 -28.196  1.00  0.00     0.003 A 
HETATM   28  C   UNL     1       0.691   7.325 -29.097  1.00  0.00     0.024 A 
HETATM   29  C   UNL     1      -0.630   6.891 -29.269  1.00  0.00     0.042 A 
HETATM   30 CL   UNL     1      -0.891   5.631 -30.426  1.00  0.00    -0.084 Cl
ENDBRANCH  22  23
ENDBRANCH  21  22
ENDBRANCH   1  21
TORSDOF 6
ENDMDL
MODEL 10
REMARK VINA RESULT:      -7.8      6.645     10.601
REMARK  6 active torsions:
REMARK  status: ('A' for Active; 'I' for Inactive)
REMARK    1  A    between atoms: C_5  and  C_6 
REMARK    2  A    between atoms: C_6  and  S_7 
REMARK    3  A    between atoms: S_7  and  C_8 
REMARK    4  A    between atoms: C_10  and  N_11 
REMARK       I    between atoms: N_11  and  C_12 
REMARK    5  A    between atoms: C_12  and  C_13 
REMARK    6  A    between atoms: C_14  and  C_15 
ROOT
HETATM    1  C   UNL     1      -7.357   0.952 -32.017  1.00  0.00     0.160 A 
HETATM    2  S   UNL     1      -8.966   0.678 -31.509  1.00  0.00    -0.022 SA
HETATM    3  C   UNL     1      -9.433   1.965 -32.522  1.00  0.00     0.197 A 
HETATM    4  N   UNL     1      -8.435   2.544 -33.156  1.00  0.00    -0.122 NA
HETATM    5  N   UNL     1      -7.220   1.955 -32.858  1.00  0.00    -0.133 NA
ENDROOT
BRANCH   3   6
HETATM    6  N   UNL     1     -10.739   2.358 -32.699  1.00  0.00    -0.301 N 
HETATM    7  C   UNL     1     -11.584   1.937 -33.695  1.00  0.00     0.247 C 
HETATM    8  O   UNL     1     -11.359   1.091 -34.551  1.00  0.00    -0.268 OA
HETATM    9  H   UNL     1     -11.046   3.038 -32.018  1.00  0.00     0.171 HD
BRANCH   7  10
HETATM   10  C   UNL     1     -12.894   2.651 -33.657  1.00  0.00     0.075 C 
HETATM   11  C   UNL     1     -13.639   2.585 -32.542  1.00  0.00     0.017 C 
BRANCH  11  12
HETATM   12  C   UNL     1     -14.962   3.204 -32.363  1.00  0.00    -0.033 A 
HETATM   13  C   UNL     1     -16.158   2.488 -32.518  1.00  0.00     0.051 A 
HETATM   14  C   UNL     1     -17.347   3.141 -32.263  1.00  0.00     0.105 A 
HETATM   15  C   UNL     1     -17.385   4.454 -31.858  1.00  0.00     0.105 A 
HETATM   16  O   UNL     1     -18.588   2.591 -32.355  1.00  0.00    -0.323 OA
HETATM   17  O   UNL     1     -18.652   4.896 -31.648  1.00  0.00    -0.323 OA
HETATM   18  C   UNL     1     -16.235   5.190 -31.689  1.00  0.00     0.040 A 
HETATM   19  C   UNL     1     -19.409   3.706 -31.949  1.00  0.00     0.352 A 
HETATM   20  C   UNL     1     -15.014   4.553 -31.940  1.00  0.00     0.014 A 
ENDBRANCH  11  12
ENDBRANCH   7  10
ENDBRANCH   3   6
BRANCH   1  21
HETATM   21  S   UNL     1      -6.026  -0.038 -31.473  1.00  0.00    -0.096 SA
BRANCH  21  22
HETATM   22  C   UNL     1      -5.014  -0.115 -32.982  1.00  0.00     0.123 C 
BRANCH  22  23
HETATM   23  C   UNL     1      -5.018  -1.511 -33.562  1.00  0.00    -0.005 A 
HETATM   24  C   UNL     1      -5.987  -1.909 -34.506  1.00  0.00     0.042 A 
HETATM   25  C   UNL     1      -6.012  -3.211 -35.019  1.00  0.00     0.024 A 
HETATM   26 CL   UNL     1      -7.212  -0.827 -35.080  1.00  0.00    -0.084 Cl
HETATM   27  C   UNL     1      -5.075  -4.149 -34.597  1.00  0.00     0.003 A 
HETATM   28  C   UNL     1      -4.115  -3.785 -33.659  1.00  0.00     0.024 A 
HETATM   29  C   UNL     1      -4.085  -2.482 -33.144  1.00  0.00     0.042 A 
HETATM   30 CL   UNL     1      -2.861  -2.137 -31.972  1.00  0.00    -0.084 Cl
ENDBRANCH  22  23
ENDBRANCH  21  22
ENDBRANCH   1  21
TORSDOF 6
ENDMDL
