MODEL 1
REMARK VINA RESULT:      -8.9      0.000      0.000
REMARK  4 active torsions:
REMARK  status: ('A' for Active; 'I' for Inactive)
REMARK    1  A    between atoms: C_2  and  C_3 
REMARK    2  A    between atoms: C_3  and  N_4 
REMARK    3  A    between atoms: N_8  and  C_9 
REMARK    4  A    between atoms: C_9  and  C_10 
ROOT
HETATM    1  N   UNL     1      -6.236   2.041 -33.228  1.00  0.00    -0.061 N 
HETATM    2  H   UNL     1      -5.291   1.739 -33.487  1.00  0.00     0.280 HD
HETATM    3  C   UNL     1      -6.174   2.352 -31.731  1.00  0.00     0.216 C 
HETATM    4  C   UNL     1      -4.827   3.055 -31.389  1.00  0.00     0.305 C 
HETATM    5  N   UNL     1      -4.809   4.510 -31.548  1.00  0.00     0.095 N 
HETATM    6  C   UNL     1      -5.216   5.000 -32.866  1.00  0.00     0.279 C 
HETATM    7  C   UNL     1      -6.613   4.534 -33.319  1.00  0.00     0.040 C 
HETATM    8  C   UNL     1      -6.561   3.228 -34.099  1.00  0.00     0.242 C 
HETATM    9  C   UNL     1      -7.406   3.161 -31.317  1.00  0.00     0.035 C 
HETATM   10  C   UNL     1      -7.617   4.422 -32.162  1.00  0.00     0.010 C 
ENDROOT
BRANCH   1  11
HETATM   11  C   UNL     1      -7.116   0.852 -33.577  1.00  0.00     0.274 C 
BRANCH  11  12
HETATM   12  C   UNL     1      -6.357  -0.431 -33.782  1.00  0.00    -0.032 A 
HETATM   13  C   UNL     1      -4.989  -0.498 -33.481  1.00  0.00     0.011 A 
HETATM   14  C   UNL     1      -4.257  -1.676 -33.662  1.00  0.00     0.031 A 
HETATM   15  C   UNL     1      -4.939  -2.792 -34.153  1.00  0.00     0.042 A 
HETATM   16  C   UNL     1      -6.298  -2.769 -34.463  1.00  0.00    -0.008 A 
HETATM   17  N   UNL     1      -4.485  -4.067 -34.412  1.00  0.00    -0.365 N 
HETATM   18  C   UNL     1      -7.018  -1.572 -34.275  1.00  0.00     0.022 A 
HETATM   19  C   UNL     1      -6.647  -4.069 -34.918  1.00  0.00     0.030 A 
HETATM   20  C   UNL     1      -5.512  -4.846 -34.877  1.00  0.00     0.089 A 
HETATM   21  H   UNL     1      -3.535  -4.385 -34.267  1.00  0.00     0.165 HD
ENDBRANCH  11  12
ENDBRANCH   1  11
BRANCH   5  22
HETATM   22  C   UNL     1      -3.514   5.077 -31.115  1.00  0.00     0.311 C 
BRANCH  22  23
HETATM   23  C   UNL     1      -2.689   5.620 -32.259  1.00  0.00    -0.027 A 
HETATM   24  C   UNL     1      -2.409   6.989 -32.355  1.00  0.00     0.028 A 
HETATM   25  C   UNL     1      -1.656   7.441 -33.426  1.00  0.00     0.116 A 
HETATM   26  N   UNL     1      -1.166   6.635 -34.390  1.00  0.00    -0.273 NA
HETATM   27  C   UNL     1      -1.429   5.318 -34.274  1.00  0.00     0.116 A 
HETATM   28  C   UNL     1      -2.175   4.768 -33.241  1.00  0.00     0.028 A 
ENDBRANCH  22  23
ENDBRANCH   5  22
TORSDOF 4
ENDMDL
MODEL 2
REMARK VINA RESULT:      -8.8      1.783      2.149
REMARK  4 active torsions:
REMARK  status: ('A' for Active; 'I' for Inactive)
REMARK    1  A    between atoms: C_2  and  C_3 
REMARK    2  A    between atoms: C_3  and  N_4 
REMARK    3  A    between atoms: N_8  and  C_9 
REMARK    4  A    between atoms: C_9  and  C_10 
ROOT
HETATM    1  N   UNL     1      -5.464   2.343 -33.284  1.00  0.00    -0.061 N 
HETATM    2  H   UNL     1      -4.695   1.909 -33.805  1.00  0.00     0.280 HD
HETATM    3  C   UNL     1      -4.835   2.891 -32.002  1.00  0.00     0.216 C 
HETATM    4  C   UNL     1      -3.437   3.502 -32.315  1.00  0.00     0.305 C 
HETATM    5  N   UNL     1      -3.435   4.901 -32.745  1.00  0.00     0.095 N 
HETATM    6  C   UNL     1      -4.291   5.203 -33.893  1.00  0.00     0.279 C 
HETATM    7  C   UNL     1      -5.770   4.811 -33.709  1.00  0.00     0.040 C 
HETATM    8  C   UNL     1      -6.056   3.395 -34.188  1.00  0.00     0.242 C 
HETATM    9  C   UNL     1      -5.795   3.878 -31.332  1.00  0.00     0.035 C 
HETATM   10  C   UNL     1      -6.269   4.994 -32.268  1.00  0.00     0.010 C 
ENDROOT
BRANCH   1  11
HETATM   11  C   UNL     1      -6.447   1.207 -33.054  1.00  0.00     0.274 C 
BRANCH  11  12
HETATM   12  C   UNL     1      -5.914  -0.148 -33.431  1.00  0.00    -0.032 A 
HETATM   13  C   UNL     1      -4.557  -0.451 -33.245  1.00  0.00     0.011 A 
HETATM   14  C   UNL     1      -4.033  -1.701 -33.587  1.00  0.00     0.031 A 
HETATM   15  C   UNL     1      -4.912  -2.648 -34.120  1.00  0.00     0.042 A 
HETATM   16  C   UNL     1      -6.267  -2.389 -34.319  1.00  0.00    -0.008 A 
HETATM   17  N   UNL     1      -4.682  -3.944 -34.525  1.00  0.00    -0.365 N 
HETATM   18  C   UNL     1      -6.776  -1.123 -33.970  1.00  0.00     0.022 A 
HETATM   19  C   UNL     1      -6.845  -3.570 -34.858  1.00  0.00     0.030 A 
HETATM   20  C   UNL     1      -5.846  -4.509 -34.975  1.00  0.00     0.089 A 
HETATM   21  H   UNL     1      -3.787  -4.414 -34.484  1.00  0.00     0.165 HD
ENDBRANCH  11  12
ENDBRANCH   1  11
BRANCH   5  22
HETATM   22  C   UNL     1      -2.055   5.400 -32.930  1.00  0.00     0.311 C 
BRANCH  22  23
HETATM   23  C   UNL     1      -1.356   5.718 -31.628  1.00  0.00    -0.027 A 
HETATM   24  C   UNL     1      -0.087   5.199 -31.350  1.00  0.00     0.028 A 
HETATM   25  C   UNL     1       0.510   5.511 -30.140  1.00  0.00     0.116 A 
HETATM   26  N   UNL     1      -0.060   6.297 -29.204  1.00  0.00    -0.273 NA
HETATM   27  C   UNL     1      -1.275   6.805 -29.495  1.00  0.00     0.116 A 
HETATM   28  C   UNL     1      -1.956   6.549 -30.677  1.00  0.00     0.028 A 
ENDBRANCH  22  23
ENDBRANCH   5  22
TORSDOF 4
ENDMDL
MODEL 3
REMARK VINA RESULT:      -8.6      3.780      6.947
REMARK  4 active torsions:
REMARK  status: ('A' for Active; 'I' for Inactive)
REMARK    1  A    between atoms: C_2  and  C_3 
REMARK    2  A    between atoms: C_3  and  N_4 
REMARK    3  A    between atoms: N_8  and  C_9 
REMARK    4  A    between atoms: C_9  and  C_10 
ROOT
HETATM    1  N   UNL     1      -6.901   1.005 -33.118  1.00  0.00    -0.061 N 
HETATM    2  H   UNL     1      -6.952   0.478 -33.997  1.00  0.00     0.280 HD
HETATM    3  C   UNL     1      -7.514   2.373 -33.421  1.00  0.00     0.216 C 
HETATM    4  C   UNL     1      -8.748   2.207 -34.358  1.00  0.00     0.305 C 
HETATM    5  N   UNL     1     -10.023   1.941 -33.690  1.00  0.00     0.095 N 
HETATM    6  C   UNL     1     -10.027   0.792 -32.783  1.00  0.00     0.279 C 
HETATM    7  C   UNL     1      -8.962   0.852 -31.671  1.00  0.00     0.040 C 
HETATM    8  C   UNL     1      -7.652   0.199 -32.090  1.00  0.00     0.242 C 
HETATM    9  C   UNL     1      -7.836   3.101 -32.113  1.00  0.00     0.035 C 
HETATM   10  C   UNL     1      -8.704   2.276 -31.157  1.00  0.00     0.010 C 
ENDROOT
BRANCH   1  11
HETATM   11  C   UNL     1      -5.416   1.051 -32.796  1.00  0.00     0.274 C 
BRANCH  11  12
HETATM   12  C   UNL     1      -4.755  -0.300 -32.767  1.00  0.00    -0.032 A 
HETATM   13  C   UNL     1      -3.773  -0.587 -31.808  1.00  0.00     0.011 A 
HETATM   14  C   UNL     1      -3.142  -1.833 -31.757  1.00  0.00     0.031 A 
HETATM   15  C   UNL     1      -3.526  -2.792 -32.698  1.00  0.00     0.042 A 
HETATM   16  C   UNL     1      -4.499  -2.550 -33.666  1.00  0.00    -0.008 A 
HETATM   17  N   UNL     1      -3.093  -4.088 -32.873  1.00  0.00    -0.365 N 
HETATM   18  C   UNL     1      -5.123  -1.287 -33.702  1.00  0.00     0.022 A 
HETATM   19  C   UNL     1      -4.637  -3.740 -34.430  1.00  0.00     0.030 A 
HETATM   20  C   UNL     1      -3.759  -4.669 -33.920  1.00  0.00     0.089 A 
HETATM   21  H   UNL     1      -2.395  -4.548 -32.302  1.00  0.00     0.165 HD
ENDBRANCH  11  12
ENDBRANCH   1  11
BRANCH   5  22
HETATM   22  C   UNL     1     -11.134   1.888 -34.665  1.00  0.00     0.311 C 
BRANCH  22  23
HETATM   23  C   UNL     1     -12.496   1.817 -34.013  1.00  0.00    -0.027 A 
HETATM   24  C   UNL     1     -12.901   2.789 -33.091  1.00  0.00     0.028 A 
HETATM   25  C   UNL     1     -14.155   2.678 -32.513  1.00  0.00     0.116 A 
HETATM   26  N   UNL     1     -15.022   1.683 -32.791  1.00  0.00    -0.273 NA
HETATM   27  C   UNL     1     -14.624   0.764 -33.695  1.00  0.00     0.116 A 
HETATM   28  C   UNL     1     -13.388   0.787 -34.326  1.00  0.00     0.028 A 
ENDBRANCH  22  23
ENDBRANCH   5  22
TORSDOF 4
ENDMDL
MODEL 4
REMARK VINA RESULT:      -8.5      3.272      7.426
REMARK  4 active torsions:
REMARK  status: ('A' for Active; 'I' for Inactive)
REMARK    1  A    between atoms: C_2  and  C_3 
REMARK    2  A    between atoms: C_3  and  N_4 
REMARK    3  A    between atoms: N_8  and  C_9 
REMARK    4  A    between atoms: C_9  and  C_10 
ROOT
HETATM    1  N   UNL     1      -6.853   2.221 -32.338  1.00  0.00    -0.061 N 
HETATM    2  H   UNL     1      -6.472   2.594 -33.214  1.00  0.00     0.280 HD
HETATM    3  C   UNL     1      -7.277   0.784 -32.653  1.00  0.00     0.216 C 
HETATM    4  C   UNL     1      -6.231   0.116 -33.594  1.00  0.00     0.305 C 
HETATM    5  N   UNL     1      -5.089  -0.516 -32.931  1.00  0.00     0.095 N 
HETATM    6  C   UNL     1      -4.340   0.347 -32.018  1.00  0.00     0.279 C 
HETATM    7  C   UNL     1      -5.188   0.986 -30.901  1.00  0.00     0.040 C 
HETATM    8  C   UNL     1      -5.758   2.337 -31.308  1.00  0.00     0.242 C 
HETATM    9  C   UNL     1      -7.506   0.012 -31.351  1.00  0.00     0.035 C 
HETATM   10  C   UNL     1      -6.310   0.068 -30.394  1.00  0.00     0.010 C 
ENDROOT
BRANCH   1  11
HETATM   11  C   UNL     1      -8.012   3.148 -32.009  1.00  0.00     0.274 C 
BRANCH  11  12
HETATM   12  C   UNL     1      -9.175   3.033 -32.956  1.00  0.00    -0.032 A 
HETATM   13  C   UNL     1      -9.270   3.885 -34.066  1.00  0.00     0.011 A 
HETATM   14  C   UNL     1     -10.339   3.801 -34.963  1.00  0.00     0.031 A 
HETATM   15  C   UNL     1     -11.315   2.830 -34.718  1.00  0.00     0.042 A 
HETATM   16  C   UNL     1     -11.257   1.962 -33.629  1.00  0.00    -0.008 A 
HETATM   17  N   UNL     1     -12.451   2.514 -35.430  1.00  0.00    -0.365 N 
HETATM   18  C   UNL     1     -10.172   2.064 -32.735  1.00  0.00     0.022 A 
HETATM   19  C   UNL     1     -12.395   1.115 -33.706  1.00  0.00     0.030 A 
HETATM   20  C   UNL     1     -13.112   1.479 -34.823  1.00  0.00     0.089 A 
HETATM   21  H   UNL     1     -12.748   2.972 -36.282  1.00  0.00     0.165 HD
ENDBRANCH  11  12
ENDBRANCH   1  11
BRANCH   5  22
HETATM   22  C   UNL     1      -4.210  -1.190 -33.911  1.00  0.00     0.311 C 
BRANCH  22  23
HETATM   23  C   UNL     1      -4.598  -2.628 -34.169  1.00  0.00    -0.027 A 
HETATM   24  C   UNL     1      -3.837  -3.680 -33.646  1.00  0.00     0.028 A 
HETATM   25  C   UNL     1      -4.226  -4.982 -33.916  1.00  0.00     0.116 A 
HETATM   26  N   UNL     1      -5.308  -5.302 -34.656  1.00  0.00    -0.273 NA
HETATM   27  C   UNL     1      -6.041  -4.277 -35.137  1.00  0.00     0.116 A 
HETATM   28  C   UNL     1      -5.732  -2.942 -34.924  1.00  0.00     0.028 A 
ENDBRANCH  22  23
ENDBRANCH   5  22
TORSDOF 4
ENDMDL
MODEL 5
REMARK VINA RESULT:      -8.5      1.449      8.059
REMARK  4 active torsions:
REMARK  status: ('A' for Active; 'I' for Inactive)
REMARK    1  A    between atoms: C_2  and  C_3 
REMARK    2  A    between atoms: C_3  and  N_4 
REMARK    3  A    between atoms: N_8  and  C_9 
REMARK    4  A    between atoms: C_9  and  C_10 
ROOT
HETATM    1  N   UNL     1      -4.927   1.774 -31.593  1.00  0.00    -0.061 N 
HETATM    2  H   UNL     1      -4.110   1.663 -32.203  1.00  0.00     0.280 HD
HETATM    3  C   UNL     1      -6.112   2.018 -32.530  1.00  0.00     0.216 C 
HETATM    4  C   UNL     1      -5.986   1.113 -33.792  1.00  0.00     0.305 C 
HETATM    5  N   UNL     1      -6.544  -0.234 -33.668  1.00  0.00     0.095 N 
HETATM    6  C   UNL     1      -6.042  -1.018 -32.538  1.00  0.00     0.279 C 
HETATM    7  C   UNL     1      -6.224  -0.347 -31.163  1.00  0.00     0.040 C 
HETATM    8  C   UNL     1      -5.028   0.511 -30.775  1.00  0.00     0.242 C 
HETATM    9  C   UNL     1      -7.426   1.823 -31.769  1.00  0.00     0.035 C 
HETATM   10  C   UNL     1      -7.520   0.470 -31.056  1.00  0.00     0.010 C 
ENDROOT
BRANCH   1  11
HETATM   11  C   UNL     1      -4.578   2.965 -30.715  1.00  0.00     0.274 C 
BRANCH  11  12
HETATM   12  C   UNL     1      -4.013   4.136 -31.472  1.00  0.00    -0.032 A 
HETATM   13  C   UNL     1      -4.635   5.391 -31.399  1.00  0.00     0.011 A 
HETATM   14  C   UNL     1      -4.133   6.497 -32.092  1.00  0.00     0.031 A 
HETATM   15  C   UNL     1      -2.981   6.311 -32.861  1.00  0.00     0.042 A 
HETATM   16  C   UNL     1      -2.331   5.082 -32.959  1.00  0.00    -0.008 A 
HETATM   17  N   UNL     1      -2.268   7.210 -33.624  1.00  0.00    -0.365 N 
HETATM   18  C   UNL     1      -2.854   3.979 -32.255  1.00  0.00     0.022 A 
HETATM   19  C   UNL     1      -1.205   5.268 -33.806  1.00  0.00     0.030 A 
HETATM   20  C   UNL     1      -1.193   6.587 -34.201  1.00  0.00     0.089 A 
HETATM   21  H   UNL     1      -2.498   8.189 -33.732  1.00  0.00     0.165 HD
ENDBRANCH  11  12
ENDBRANCH   1  11
BRANCH   5  22
HETATM   22  C   UNL     1      -6.447  -0.971 -34.947  1.00  0.00     0.311 C 
BRANCH  22  23
HETATM   23  C   UNL     1      -5.956  -2.391 -34.781  1.00  0.00    -0.027 A 
HETATM   24  C   UNL     1      -6.827  -3.474 -34.948  1.00  0.00     0.028 A 
HETATM   25  C   UNL     1      -6.333  -4.757 -34.777  1.00  0.00     0.116 A 
HETATM   26  N   UNL     1      -5.051  -5.031 -34.462  1.00  0.00    -0.273 NA
HETATM   27  C   UNL     1      -4.220  -3.977 -34.323  1.00  0.00     0.116 A 
HETATM   28  C   UNL     1      -4.619  -2.656 -34.470  1.00  0.00     0.028 A 
ENDBRANCH  22  23
ENDBRANCH   5  22
TORSDOF 4
ENDMDL
MODEL 6
REMARK VINA RESULT:      -8.4      2.909      5.908
REMARK  4 active torsions:
REMARK  status: ('A' for Active; 'I' for Inactive)
REMARK    1  A    between atoms: C_2  and  C_3 
REMARK    2  A    between atoms: C_3  and  N_4 
REMARK    3  A    between atoms: N_8  and  C_9 
REMARK    4  A    between atoms: C_9  and  C_10 
ROOT
HETATM    1  N   UNL     1      -6.213   1.263 -32.600  1.00  0.00    -0.061 N 
HETATM    2  H   UNL     1      -6.778   0.472 -32.273  1.00  0.00     0.280 HD
HETATM    3  C   UNL     1      -7.022   1.909 -33.727  1.00  0.00     0.216 C 
HETATM    4  C   UNL     1      -8.536   1.912 -33.360  1.00  0.00     0.305 C 
HETATM    5  N   UNL     1      -8.996   3.053 -32.566  1.00  0.00     0.095 N 
HETATM    6  C   UNL     1      -8.263   3.286 -31.322  1.00  0.00     0.279 C 
HETATM    7  C   UNL     1      -6.743   3.470 -31.500  1.00  0.00     0.040 C 
HETATM    8  C   UNL     1      -5.986   2.153 -31.405  1.00  0.00     0.242 C 
HETATM    9  C   UNL     1      -6.466   3.303 -34.033  1.00  0.00     0.035 C 
HETATM   10  C   UNL     1      -6.371   4.203 -32.797  1.00  0.00     0.010 C 
ENDROOT
BRANCH   1  11
HETATM   11  C   UNL     1      -4.911   0.626 -33.061  1.00  0.00     0.274 C 
BRANCH  11  12
HETATM   12  C   UNL     1      -5.059  -0.796 -33.527  1.00  0.00    -0.032 A 
HETATM   13  C   UNL     1      -6.124  -1.159 -34.364  1.00  0.00     0.011 A 
HETATM   14  C   UNL     1      -6.287  -2.473 -34.813  1.00  0.00     0.031 A 
HETATM   15  C   UNL     1      -5.345  -3.420 -34.400  1.00  0.00     0.042 A 
HETATM   16  C   UNL     1      -4.271  -3.101 -33.571  1.00  0.00    -0.008 A 
HETATM   17  N   UNL     1      -5.247  -4.762 -34.694  1.00  0.00    -0.365 N 
HETATM   18  C   UNL     1      -4.125  -1.772 -33.128  1.00  0.00     0.022 A 
HETATM   19  C   UNL     1      -3.524  -4.294 -33.373  1.00  0.00     0.030 A 
HETATM   20  C   UNL     1      -4.150  -5.299 -34.075  1.00  0.00     0.089 A 
HETATM   21  H   UNL     1      -5.886  -5.273 -35.289  1.00  0.00     0.165 HD
ENDBRANCH  11  12
ENDBRANCH   1  11
BRANCH   5  22
HETATM   22  C   UNL     1     -10.459   2.996 -32.351  1.00  0.00     0.311 C 
BRANCH  22  23
HETATM   23  C   UNL     1     -11.239   2.764 -33.624  1.00  0.00    -0.027 A 
HETATM   24  C   UNL     1     -11.933   1.566 -33.831  1.00  0.00     0.028 A 
HETATM   25  C   UNL     1     -12.628   1.396 -35.017  1.00  0.00     0.116 A 
HETATM   26  N   UNL     1     -12.682   2.324 -35.994  1.00  0.00    -0.273 NA
HETATM   27  C   UNL     1     -12.024   3.480 -35.772  1.00  0.00     0.116 A 
HETATM   28  C   UNL     1     -11.298   3.745 -34.619  1.00  0.00     0.028 A 
ENDBRANCH  22  23
ENDBRANCH   5  22
TORSDOF 4
ENDMDL
MODEL 7
REMARK VINA RESULT:      -8.1      3.332      9.156
REMARK  4 active torsions:
REMARK  status: ('A' for Active; 'I' for Inactive)
REMARK    1  A    between atoms: C_2  and  C_3 
REMARK    2  A    between atoms: C_3  and  N_4 
REMARK    3  A    between atoms: N_8  and  C_9 
REMARK    4  A    between atoms: C_9  and  C_10 
ROOT
HETATM    1  N   UNL     1      -2.778   5.835 -31.711  1.00  0.00    -0.061 N 
HETATM    2  H   UNL     1      -3.119   5.684 -30.756  1.00  0.00     0.280 HD
HETATM    3  C   UNL     1      -2.436   4.444 -32.251  1.00  0.00     0.216 C 
HETATM    4  C   UNL     1      -3.503   3.413 -31.777  1.00  0.00     0.305 C 
HETATM    5  N   UNL     1      -4.693   3.293 -32.621  1.00  0.00     0.095 N 
HETATM    6  C   UNL     1      -5.405   4.545 -32.878  1.00  0.00     0.279 C 
HETATM    7  C   UNL     1      -4.541   5.656 -33.506  1.00  0.00     0.040 C 
HETATM    8  C   UNL     1      -3.882   6.539 -32.457  1.00  0.00     0.242 C 
HETATM    9  C   UNL     1      -2.278   4.501 -33.773  1.00  0.00     0.035 C 
HETATM   10  C   UNL     1      -3.486   5.120 -34.485  1.00  0.00     0.010 C 
ENDROOT
BRANCH   1  11
HETATM   11  C   UNL     1      -1.571   6.743 -31.537  1.00  0.00     0.274 C 
BRANCH  11  12
HETATM   12  C   UNL     1      -1.276   7.099 -30.105  1.00  0.00    -0.032 A 
HETATM   13  C   UNL     1      -2.301   7.082 -29.147  1.00  0.00     0.011 A 
HETATM   14  C   UNL     1      -2.056   7.409 -27.810  1.00  0.00     0.031 A 
HETATM   15  C   UNL     1      -0.748   7.750 -27.455  1.00  0.00     0.042 A 
HETATM   16  C   UNL     1       0.299   7.777 -28.375  1.00  0.00    -0.008 A 
HETATM   17  N   UNL     1      -0.222   8.096 -26.230  1.00  0.00    -0.365 N 
HETATM   18  C   UNL     1       0.032   7.447 -29.719  1.00  0.00     0.022 A 
HETATM   19  C   UNL     1       1.472   8.151 -27.665  1.00  0.00     0.030 A 
HETATM   20  C   UNL     1       1.121   8.342 -26.348  1.00  0.00     0.089 A 
HETATM   21  H   UNL     1      -0.748   8.148 -25.367  1.00  0.00     0.165 HD
ENDBRANCH  11  12
ENDBRANCH   1  11
BRANCH   5  22
HETATM   22  C   UNL     1      -5.593   2.229 -32.125  1.00  0.00     0.311 C 
BRANCH  22  23
HETATM   23  C   UNL     1      -5.928   1.195 -33.175  1.00  0.00    -0.027 A 
HETATM   24  C   UNL     1      -5.405  -0.101 -33.098  1.00  0.00     0.028 A 
HETATM   25  C   UNL     1      -5.734  -1.012 -34.088  1.00  0.00     0.116 A 
HETATM   26  N   UNL     1      -6.539  -0.726 -35.131  1.00  0.00    -0.273 NA
HETATM   27  C   UNL     1      -7.050   0.522 -35.182  1.00  0.00     0.116 A 
HETATM   28  C   UNL     1      -6.778   1.505 -34.241  1.00  0.00     0.028 A 
ENDBRANCH  22  23
ENDBRANCH   5  22
TORSDOF 4
ENDMDL
MODEL 8
REMARK VINA RESULT:      -8.1      2.657      4.222
REMARK  4 active torsions:
REMARK  status: ('A' for Active; 'I' for Inactive)
REMARK    1  A    between atoms: C_2  and  C_3 
REMARK    2  A    between atoms: C_3  and  N_4 
REMARK    3  A    between atoms: N_8  and  C_9 
REMARK    4  A    between atoms: C_9  and  C_10 
ROOT
HETATM    1  N   UNL     1      -3.935   3.849 -30.916  1.00  0.00    -0.061 N 
HETATM    2  H   UNL     1      -3.388   3.861 -30.048  1.00  0.00     0.280 HD
HETATM    3  C   UNL     1      -4.190   5.317 -31.263  1.00  0.00     0.216 C 
HETATM    4  C   UNL     1      -2.920   6.164 -30.955  1.00  0.00     0.305 C 
HETATM    5  N   UNL     1      -1.924   6.231 -32.026  1.00  0.00     0.095 N 
HETATM    6  C   UNL     1      -1.455   4.938 -32.525  1.00  0.00     0.279 C 
HETATM    7  C   UNL     1      -2.571   4.004 -33.032  1.00  0.00     0.040 C 
HETATM    8  C   UNL     1      -3.113   3.101 -31.933  1.00  0.00     0.242 C 
HETATM    9  C   UNL     1      -4.664   5.434 -32.714  1.00  0.00     0.035 C 
HETATM   10  C   UNL     1      -3.723   4.756 -33.716  1.00  0.00     0.010 C 
ENDROOT
BRANCH   1  11
HETATM   11  C   UNL     1      -5.192   3.073 -30.553  1.00  0.00     0.274 C 
BRANCH  11  12
HETATM   12  C   UNL     1      -5.442   1.874 -31.426  1.00  0.00    -0.032 A 
HETATM   13  C   UNL     1      -5.074   0.593 -30.991  1.00  0.00     0.011 A 
HETATM   14  C   UNL     1      -5.294  -0.539 -31.781  1.00  0.00     0.031 A 
HETATM   15  C   UNL     1      -5.901  -0.352 -33.026  1.00  0.00     0.042 A 
HETATM   16  C   UNL     1      -6.285   0.903 -33.496  1.00  0.00    -0.008 A 
HETATM   17  N   UNL     1      -6.249  -1.271 -33.992  1.00  0.00    -0.365 N 
HETATM   18  C   UNL     1      -6.053   2.032 -32.686  1.00  0.00     0.022 A 
HETATM   19  C   UNL     1      -6.872   0.712 -34.776  1.00  0.00     0.030 A 
HETATM   20  C   UNL     1      -6.835  -0.636 -35.055  1.00  0.00     0.089 A 
HETATM   21  H   UNL     1      -6.103  -2.270 -33.921  1.00  0.00     0.165 HD
ENDBRANCH  11  12
ENDBRANCH   1  11
BRANCH   5  22
HETATM   22  C   UNL     1      -0.806   7.127 -31.659  1.00  0.00     0.311 C 
BRANCH  22  23
HETATM   23  C   UNL     1      -0.349   6.955 -30.228  1.00  0.00    -0.027 A 
HETATM   24  C   UNL     1       0.334   5.801 -29.828  1.00  0.00     0.028 A 
HETATM   25  C   UNL     1       0.726   5.684 -28.505  1.00  0.00     0.116 A 
HETATM   26  N   UNL     1       0.492   6.626 -27.568  1.00  0.00    -0.273 NA
HETATM   27  C   UNL     1      -0.151   7.741 -27.974  1.00  0.00     0.116 A 
HETATM   28  C   UNL     1      -0.586   7.950 -29.275  1.00  0.00     0.028 A 
ENDBRANCH  22  23
ENDBRANCH   5  22
TORSDOF 4
ENDMDL
MODEL 9
REMARK VINA RESULT:      -8.0      3.985      8.597
REMARK  4 active torsions:
REMARK  status: ('A' for Active; 'I' for Inactive)
REMARK    1  A    between atoms: C_2  and  C_3 
REMARK    2  A    between atoms: C_3  and  N_4 
REMARK    3  A    between atoms: N_8  and  C_9 
REMARK    4  A    between atoms: C_9  and  C_10 
ROOT
HETATM    1  N   UNL     1      -7.244   2.286 -33.160  1.00  0.00    -0.061 N 
HETATM    2  H   UNL     1      -7.220   3.061 -33.831  1.00  0.00     0.280 HD
HETATM    3  C   UNL     1      -8.359   2.632 -32.170  1.00  0.00     0.216 C 
HETATM    4  C   UNL     1      -9.563   3.269 -32.927  1.00  0.00     0.305 C 
HETATM    5  N   UNL     1     -10.538   2.329 -33.479  1.00  0.00     0.095 N 
HETATM    6  C   UNL     1      -9.985   1.301 -34.362  1.00  0.00     0.279 C 
HETATM    7  C   UNL     1      -8.872   0.444 -33.728  1.00  0.00     0.040 C 
HETATM    8  C   UNL     1      -7.487   1.032 -33.960  1.00  0.00     0.242 C 
HETATM    9  C   UNL     1      -8.739   1.390 -31.359  1.00  0.00     0.035 C 
HETATM   10  C   UNL     1      -9.092   0.180 -32.231  1.00  0.00     0.010 C 
ENDROOT
BRANCH   1  11
HETATM   11  C   UNL     1      -5.853   2.280 -32.546  1.00  0.00     0.274 C 
BRANCH  11  12
HETATM   12  C   UNL     1      -4.931   3.324 -33.115  1.00  0.00    -0.032 A 
HETATM   13  C   UNL     1      -5.381   4.193 -34.119  1.00  0.00     0.011 A 
HETATM   14  C   UNL     1      -4.546   5.172 -34.666  1.00  0.00     0.031 A 
HETATM   15  C   UNL     1      -3.241   5.259 -34.174  1.00  0.00     0.042 A 
HETATM   16  C   UNL     1      -2.755   4.417 -33.175  1.00  0.00    -0.008 A 
HETATM   17  N   UNL     1      -2.221   6.122 -34.510  1.00  0.00    -0.365 N 
HETATM   18  C   UNL     1      -3.611   3.435 -32.638  1.00  0.00     0.022 A 
HETATM   19  C   UNL     1      -1.409   4.799 -32.922  1.00  0.00     0.030 A 
HETATM   20  C   UNL     1      -1.108   5.849 -33.758  1.00  0.00     0.089 A 
HETATM   21  H   UNL     1      -2.288   6.858 -35.201  1.00  0.00     0.165 HD
ENDBRANCH  11  12
ENDBRANCH   1  11
BRANCH   5  22
HETATM   22  C   UNL     1     -11.676   3.043 -34.097  1.00  0.00     0.311 C 
BRANCH  22  23
HETATM   23  C   UNL     1     -13.022   2.515 -33.657  1.00  0.00    -0.027 A 
HETATM   24  C   UNL     1     -13.650   1.479 -34.359  1.00  0.00     0.028 A 
HETATM   25  C   UNL     1     -14.886   1.033 -33.922  1.00  0.00     0.116 A 
HETATM   26  N   UNL     1     -15.528   1.537 -32.849  1.00  0.00    -0.273 NA
HETATM   27  C   UNL     1     -14.902   2.522 -32.172  1.00  0.00     0.116 A 
HETATM   28  C   UNL     1     -13.665   3.038 -32.531  1.00  0.00     0.028 A 
ENDBRANCH  22  23
ENDBRANCH   5  22
TORSDOF 4
ENDMDL
MODEL 10
REMARK VINA RESULT:      -8.0      3.024      3.913
REMARK  4 active torsions:
REMARK  status: ('A' for Active; 'I' for Inactive)
REMARK    1  A    between atoms: C_2  and  C_3 
REMARK    2  A    between atoms: C_3  and  N_4 
REMARK    3  A    between atoms: N_8  and  C_9 
REMARK    4  A    between atoms: C_9  and  C_10 
ROOT
HETATM    1  N   UNL     1      -7.395   1.679 -32.857  1.00  0.00    -0.061 N 
HETATM    2  H   UNL     1      -6.402   1.466 -32.713  1.00  0.00     0.280 HD
HETATM    3  C   UNL     1      -7.995   1.817 -31.456  1.00  0.00     0.216 C 
HETATM    4  C   UNL     1      -6.993   2.555 -30.519  1.00  0.00     0.305 C 
HETATM    5  N   UNL     1      -7.062   4.016 -30.538  1.00  0.00     0.095 N 
HETATM    6  C   UNL     1      -6.931   4.632 -31.859  1.00  0.00     0.279 C 
HETATM    7  C   UNL     1      -7.955   4.138 -32.899  1.00  0.00     0.040 C 
HETATM    8  C   UNL     1      -7.449   2.938 -33.685  1.00  0.00     0.242 C 
HETATM    9  C   UNL     1      -9.364   2.497 -31.541  1.00  0.00     0.035 C 
HETATM   10  C   UNL     1      -9.332   3.832 -32.292  1.00  0.00     0.010 C 
ENDROOT
BRANCH   1  11
HETATM   11  C   UNL     1      -7.922   0.488 -33.641  1.00  0.00     0.274 C 
BRANCH  11  12
HETATM   12  C   UNL     1      -6.918  -0.619 -33.818  1.00  0.00    -0.032 A 
HETATM   13  C   UNL     1      -5.568  -0.406 -33.504  1.00  0.00     0.011 A 
HETATM   14  C   UNL     1      -4.613  -1.415 -33.658  1.00  0.00     0.031 A 
HETATM   15  C   UNL     1      -5.052  -2.654 -34.135  1.00  0.00     0.042 A 
HETATM   16  C   UNL     1      -6.384  -2.908 -34.456  1.00  0.00    -0.008 A 
HETATM   17  N   UNL     1      -4.349  -3.815 -34.367  1.00  0.00    -0.365 N 
HETATM   18  C   UNL     1      -7.331  -1.878 -34.295  1.00  0.00     0.022 A 
HETATM   19  C   UNL     1      -6.461  -4.260 -34.890  1.00  0.00     0.030 A 
HETATM   20  C   UNL     1      -5.193  -4.792 -34.826  1.00  0.00     0.089 A 
HETATM   21  H   UNL     1      -3.356  -3.934 -34.209  1.00  0.00     0.165 HD
ENDBRANCH  11  12
ENDBRANCH   1  11
BRANCH   5  22
HETATM   22  C   UNL     1      -6.131   4.606 -29.552  1.00  0.00     0.311 C 
BRANCH  22  23
HETATM   23  C   UNL     1      -6.699   5.814 -28.844  1.00  0.00    -0.027 A 
HETATM   24  C   UNL     1      -5.863   6.847 -28.403  1.00  0.00     0.028 A 
HETATM   25  C   UNL     1      -6.428   7.931 -27.752  1.00  0.00     0.116 A 
HETATM   26  N   UNL     1      -7.751   8.056 -27.518  1.00  0.00    -0.273 NA
HETATM   27  C   UNL     1      -8.545   7.063 -27.964  1.00  0.00     0.116 A 
HETATM   28  C   UNL     1      -8.075   5.936 -28.624  1.00  0.00     0.028 A 
ENDBRANCH  22  23
ENDBRANCH   5  22
TORSDOF 4
ENDMDL
