MODEL 1
REMARK VINA RESULT:      -9.1      0.000      0.000
REMARK  3 active torsions:
REMARK  status: ('A' for Active; 'I' for Inactive)
REMARK    1  A    between atoms: C_9  and  C_10 
REMARK       I    between atoms: C_10  and  N_11 
REMARK    2  A    between atoms: N_11  and  C_12 
REMARK    3  A    between atoms: C_20  and  N_21 
ROOT
HETATM    1  C   UNL     1      -6.958   1.029 -33.916  1.00  0.00     0.258 C 
HETATM    2  N   UNL     1      -8.084   0.997 -33.116  1.00  0.00    -0.305 N 
HETATM    3  O   UNL     1      -6.590   1.938 -34.649  1.00  0.00    -0.267 OA
HETATM    4  H   UNL     1      -8.343   0.144 -32.649  1.00  0.00     0.170 HD
ENDROOT
BRANCH   2   5
HETATM    5  C   UNL     1      -8.960   2.055 -32.941  1.00  0.00     0.163 A 
HETATM    6  N   UNL     1      -8.610   3.282 -32.561  1.00  0.00    -0.155 NA
HETATM    7  N   UNL     1      -9.756   3.969 -32.517  1.00  0.00    -0.275 N 
HETATM    8  H   UNL     1      -9.715   4.948 -32.251  1.00  0.00     0.189 HD
HETATM    9  C   UNL     1     -10.863   3.232 -32.837  1.00  0.00     0.064 A 
HETATM   10  C   UNL     1     -10.374   1.961 -33.127  1.00  0.00     0.042 A 
HETATM   11  C   UNL     1     -12.219   3.572 -32.892  1.00  0.00     0.034 A 
HETATM   12  C   UNL     1     -11.284   0.951 -33.496  1.00  0.00     0.053 A 
HETATM   13  C   UNL     1     -12.655   1.273 -33.551  1.00  0.00     0.103 A 
HETATM   14  C   UNL     1     -13.116   2.562 -33.256  1.00  0.00     0.038 A 
BRANCH  13  15
HETATM   15  N   UNL     1     -13.617   0.227 -33.924  1.00  0.00    -0.116 N 
HETATM   16  O   UNL     1     -14.547   0.539 -34.681  1.00  0.00    -0.532 OA
HETATM   17  O   UNL     1     -13.442  -0.907 -33.453  1.00  0.00    -0.532 OA
ENDBRANCH  13  15
ENDBRANCH   2   5
BRANCH   1  18
HETATM   18  C   UNL     1      -6.125  -0.203 -33.892  1.00  0.00     0.051 A 
HETATM   19  C   UNL     1      -4.893  -0.153 -33.236  1.00  0.00     0.136 A 
HETATM   20  N   UNL     1      -4.011  -1.178 -33.116  1.00  0.00    -0.233 NA
HETATM   21  C   UNL     1      -4.448  -2.315 -33.690  1.00  0.00     0.206 A 
HETATM   22  O   UNL     1      -3.751  -3.485 -33.700  1.00  0.00    -0.192 OA
HETATM   23  C   UNL     1      -5.652  -2.505 -34.355  1.00  0.00     0.047 A 
HETATM   24  N   UNL     1      -4.479  -4.461 -34.366  1.00  0.00    -0.130 NA
HETATM   25  C   UNL     1      -5.617  -3.866 -34.749  1.00  0.00     0.073 A 
HETATM   26  C   UNL     1      -6.640  -4.629 -35.499  1.00  0.00     0.074 C 
HETATM   27  C   UNL     1      -6.536  -1.417 -34.461  1.00  0.00     0.036 A 
ENDBRANCH   1  18
TORSDOF 3
ENDMDL
MODEL 2
REMARK VINA RESULT:      -9.0      4.791      7.121
REMARK  3 active torsions:
REMARK  status: ('A' for Active; 'I' for Inactive)
REMARK    1  A    between atoms: C_9  and  C_10 
REMARK       I    between atoms: C_10  and  N_11 
REMARK    2  A    between atoms: N_11  and  C_12 
REMARK    3  A    between atoms: C_20  and  N_21 
ROOT
HETATM    1  C   UNL     1      -4.218   0.760 -32.243  1.00  0.00     0.258 C 
HETATM    2  N   UNL     1      -5.022   1.883 -32.219  1.00  0.00    -0.305 N 
HETATM    3  O   UNL     1      -3.125   0.614 -31.711  1.00  0.00    -0.267 OA
HETATM    4  H   UNL     1      -5.846   1.921 -32.796  1.00  0.00     0.170 HD
ENDROOT
BRANCH   2   5
HETATM    5  C   UNL     1      -4.755   3.031 -31.494  1.00  0.00     0.163 A 
HETATM    6  N   UNL     1      -5.267   3.317 -30.298  1.00  0.00    -0.155 NA
HETATM    7  N   UNL     1      -4.751   4.507 -29.977  1.00  0.00    -0.275 N 
HETATM    8  H   UNL     1      -5.010   4.913 -29.084  1.00  0.00     0.189 HD
HETATM    9  C   UNL     1      -3.925   5.034 -30.931  1.00  0.00     0.064 A 
HETATM   10  C   UNL     1      -3.901   4.084 -31.948  1.00  0.00     0.042 A 
HETATM   11  C   UNL     1      -3.217   6.240 -30.981  1.00  0.00     0.034 A 
HETATM   12  C   UNL     1      -3.126   4.337 -33.098  1.00  0.00     0.053 A 
HETATM   13  C   UNL     1      -2.411   5.548 -33.168  1.00  0.00     0.103 A 
HETATM   14  C   UNL     1      -2.453   6.485 -32.127  1.00  0.00     0.038 A 
BRANCH  13  15
HETATM   15  N   UNL     1      -1.608   5.832 -34.365  1.00  0.00    -0.116 N 
HETATM   16  O   UNL     1      -0.883   6.837 -34.352  1.00  0.00    -0.532 OA
HETATM   17  O   UNL     1      -1.707   5.048 -35.321  1.00  0.00    -0.532 OA
ENDBRANCH  13  15
ENDBRANCH   2   5
BRANCH   1  18
HETATM   18  C   UNL     1      -4.744  -0.384 -33.036  1.00  0.00     0.051 A 
HETATM   19  C   UNL     1      -5.872  -0.171 -33.831  1.00  0.00     0.136 A 
HETATM   20  N   UNL     1      -6.480  -1.096 -34.617  1.00  0.00    -0.233 NA
HETATM   21  C   UNL     1      -5.866  -2.294 -34.585  1.00  0.00     0.206 A 
HETATM   22  O   UNL     1      -6.279  -3.384 -35.291  1.00  0.00    -0.192 OA
HETATM   23  C   UNL     1      -4.735  -2.634 -33.856  1.00  0.00     0.047 A 
HETATM   24  N   UNL     1      -5.431  -4.454 -35.042  1.00  0.00    -0.130 NA
HETATM   25  C   UNL     1      -4.508  -3.994 -34.186  1.00  0.00     0.073 A 
HETATM   26  C   UNL     1      -3.432  -4.887 -33.700  1.00  0.00     0.074 C 
HETATM   27  C   UNL     1      -4.138  -1.648 -33.052  1.00  0.00     0.036 A 
ENDBRANCH   1  18
TORSDOF 3
ENDMDL
MODEL 3
REMARK VINA RESULT:      -8.8      1.884      7.703
REMARK  3 active torsions:
REMARK  status: ('A' for Active; 'I' for Inactive)
REMARK    1  A    between atoms: C_9  and  C_10 
REMARK       I    between atoms: C_10  and  N_11 
REMARK    2  A    between atoms: N_11  and  C_12 
REMARK    3  A    between atoms: C_20  and  N_21 
ROOT
HETATM    1  C   UNL     1      -8.412   1.371 -32.932  1.00  0.00     0.258 C 
HETATM    2  N   UNL     1      -7.621   0.485 -33.639  1.00  0.00    -0.305 N 
HETATM    3  O   UNL     1      -8.147   1.923 -31.872  1.00  0.00    -0.267 OA
HETATM    4  H   UNL     1      -7.998   0.005 -34.439  1.00  0.00     0.170 HD
ENDROOT
BRANCH   2   5
HETATM    5  C   UNL     1      -6.325   0.137 -33.299  1.00  0.00     0.163 A 
HETATM    6  N   UNL     1      -5.450   0.940 -32.696  1.00  0.00    -0.155 NA
HETATM    7  N   UNL     1      -4.341   0.206 -32.566  1.00  0.00    -0.275 N 
HETATM    8  H   UNL     1      -3.538   0.632 -32.117  1.00  0.00     0.189 HD
HETATM    9  C   UNL     1      -4.443  -1.057 -33.082  1.00  0.00     0.064 A 
HETATM   10  C   UNL     1      -5.743  -1.140 -33.572  1.00  0.00     0.042 A 
HETATM   11  C   UNL     1      -3.519  -2.105 -33.155  1.00  0.00     0.034 A 
HETATM   12  C   UNL     1      -6.165  -2.339 -34.180  1.00  0.00     0.053 A 
HETATM   13  C   UNL     1      -5.247  -3.403 -34.268  1.00  0.00     0.103 A 
HETATM   14  C   UNL     1      -3.945  -3.291 -33.764  1.00  0.00     0.038 A 
BRANCH  13  15
HETATM   15  N   UNL     1      -5.669  -4.656 -34.910  1.00  0.00    -0.116 N 
HETATM   16  O   UNL     1      -6.670  -4.624 -35.639  1.00  0.00    -0.532 OA
HETATM   17  O   UNL     1      -4.997  -5.672 -34.680  1.00  0.00    -0.532 OA
ENDBRANCH  13  15
ENDBRANCH   2   5
BRANCH   1  18
HETATM   18  C   UNL     1      -9.746   1.649 -33.528  1.00  0.00     0.051 A 
HETATM   19  C   UNL     1      -9.902   2.817 -34.278  1.00  0.00     0.136 A 
HETATM   20  N   UNL     1     -11.042   3.225 -34.892  1.00  0.00    -0.233 NA
HETATM   21  C   UNL     1     -12.061   2.358 -34.732  1.00  0.00     0.206 A 
HETATM   22  O   UNL     1     -13.306   2.537 -35.256  1.00  0.00    -0.192 OA
HETATM   23  C   UNL     1     -12.036   1.161 -34.031  1.00  0.00     0.047 A 
HETATM   24  N   UNL     1     -14.117   1.464 -34.912  1.00  0.00    -0.130 NA
HETATM   25  C   UNL     1     -13.347   0.645 -34.183  1.00  0.00     0.073 A 
HETATM   26  C   UNL     1     -13.905  -0.616 -33.643  1.00  0.00     0.074 C 
HETATM   27  C   UNL     1     -10.837   0.777 -33.406  1.00  0.00     0.036 A 
ENDBRANCH   1  18
TORSDOF 3
ENDMDL
MODEL 4
REMARK VINA RESULT:      -8.5      2.174      7.943
REMARK  3 active torsions:
REMARK  status: ('A' for Active; 'I' for Inactive)
REMARK    1  A    between atoms: C_9  and  C_10 
REMARK       I    between atoms: C_10  and  N_11 
REMARK    2  A    between atoms: N_11  and  C_12 
REMARK    3  A    between atoms: C_20  and  N_21 
ROOT
HETATM    1  C   UNL     1      -8.480   0.803 -32.988  1.00  0.00     0.258 C 
HETATM    2  N   UNL     1      -7.341   0.800 -33.770  1.00  0.00    -0.305 N 
HETATM    3  O   UNL     1      -8.622   0.306 -31.878  1.00  0.00    -0.267 OA
HETATM    4  H   UNL     1      -7.383   1.139 -34.717  1.00  0.00     0.170 HD
ENDROOT
BRANCH   2   5
HETATM    5  C   UNL     1      -6.113   0.297 -33.378  1.00  0.00     0.163 A 
HETATM    6  N   UNL     1      -5.179   0.984 -32.722  1.00  0.00    -0.155 NA
HETATM    7  N   UNL     1      -4.171   0.122 -32.555  1.00  0.00    -0.275 N 
HETATM    8  H   UNL     1      -3.345   0.445 -32.062  1.00  0.00     0.189 HD
HETATM    9  C   UNL     1      -4.396  -1.113 -33.097  1.00  0.00     0.064 A 
HETATM   10  C   UNL     1      -5.672  -1.036 -33.647  1.00  0.00     0.042 A 
HETATM   11  C   UNL     1      -3.599  -2.262 -33.147  1.00  0.00     0.034 A 
HETATM   12  C   UNL     1      -6.203  -2.169 -34.295  1.00  0.00     0.053 A 
HETATM   13  C   UNL     1      -5.413  -3.333 -34.360  1.00  0.00     0.103 A 
HETATM   14  C   UNL     1      -4.132  -3.382 -33.795  1.00  0.00     0.038 A 
BRANCH  13  15
HETATM   15  N   UNL     1      -5.948  -4.520 -35.043  1.00  0.00    -0.116 N 
HETATM   16  O   UNL     1      -5.298  -5.571 -34.971  1.00  0.00    -0.532 OA
HETATM   17  O   UNL     1      -7.020  -4.394 -35.653  1.00  0.00    -0.532 OA
ENDBRANCH  13  15
ENDBRANCH   2   5
BRANCH   1  18
HETATM   18  C   UNL     1      -9.667   1.465 -33.592  1.00  0.00     0.051 A 
HETATM   19  C   UNL     1     -10.873   0.761 -33.617  1.00  0.00     0.136 A 
HETATM   20  N   UNL     1     -12.049   1.210 -34.124  1.00  0.00    -0.233 NA
HETATM   21  C   UNL     1     -11.964   2.464 -34.609  1.00  0.00     0.206 A 
HETATM   22  O   UNL     1     -13.007   3.141 -35.165  1.00  0.00    -0.192 OA
HETATM   23  C   UNL     1     -10.839   3.277 -34.631  1.00  0.00     0.047 A 
HETATM   24  N   UNL     1     -12.590   4.405 -35.559  1.00  0.00    -0.130 NA
HETATM   25  C   UNL     1     -11.293   4.478 -35.231  1.00  0.00     0.073 A 
HETATM   26  C   UNL     1     -10.521   5.709 -35.516  1.00  0.00     0.074 C 
HETATM   27  C   UNL     1      -9.640   2.772 -34.099  1.00  0.00     0.036 A 
ENDBRANCH   1  18
TORSDOF 3
ENDMDL
MODEL 5
REMARK VINA RESULT:      -8.1      2.622      4.184
REMARK  3 active torsions:
REMARK  status: ('A' for Active; 'I' for Inactive)
REMARK    1  A    between atoms: C_9  and  C_10 
REMARK       I    between atoms: C_10  and  N_11 
REMARK    2  A    between atoms: N_11  and  C_12 
REMARK    3  A    between atoms: C_20  and  N_21 
ROOT
HETATM    1  C   UNL     1      -7.277   0.888 -33.588  1.00  0.00     0.258 C 
HETATM    2  N   UNL     1      -8.339   0.728 -32.719  1.00  0.00    -0.305 N 
HETATM    3  O   UNL     1      -7.031   1.858 -34.294  1.00  0.00    -0.267 OA
HETATM    4  H   UNL     1      -8.498  -0.164 -32.282  1.00  0.00     0.170 HD
ENDROOT
BRANCH   2   5
HETATM    5  C   UNL     1      -9.278   1.704 -32.429  1.00  0.00     0.163 A 
HETATM    6  N   UNL     1     -10.494   1.777 -32.966  1.00  0.00    -0.155 NA
HETATM    7  N   UNL     1     -11.050   2.860 -32.414  1.00  0.00    -0.275 N 
HETATM    8  H   UNL     1     -11.998   3.099 -32.684  1.00  0.00     0.189 HD
HETATM    9  C   UNL     1     -10.234   3.522 -31.539  1.00  0.00     0.064 A 
HETATM   10  C   UNL     1      -9.054   2.784 -31.521  1.00  0.00     0.042 A 
HETATM   11  C   UNL     1     -10.433   4.683 -30.782  1.00  0.00     0.034 A 
HETATM   12  C   UNL     1      -7.993   3.218 -30.702  1.00  0.00     0.053 A 
HETATM   13  C   UNL     1      -8.173   4.387 -29.937  1.00  0.00     0.103 A 
HETATM   14  C   UNL     1      -9.373   5.109 -29.975  1.00  0.00     0.038 A 
BRANCH  13  15
HETATM   15  N   UNL     1      -7.071   4.859 -29.087  1.00  0.00    -0.116 N 
HETATM   16  O   UNL     1      -5.917   4.546 -29.409  1.00  0.00    -0.532 OA
HETATM   17  O   UNL     1      -7.365   5.540 -28.093  1.00  0.00    -0.532 OA
ENDBRANCH  13  15
ENDBRANCH   2   5
BRANCH   1  18
HETATM   18  C   UNL     1      -6.353  -0.273 -33.686  1.00  0.00     0.051 A 
HETATM   19  C   UNL     1      -5.084  -0.157 -33.114  1.00  0.00     0.136 A 
HETATM   20  N   UNL     1      -4.121  -1.113 -33.108  1.00  0.00    -0.233 NA
HETATM   21  C   UNL     1      -4.512  -2.254 -33.709  1.00  0.00     0.206 A 
HETATM   22  O   UNL     1      -3.730  -3.362 -33.828  1.00  0.00    -0.192 OA
HETATM   23  C   UNL     1      -5.742  -2.507 -34.300  1.00  0.00     0.047 A 
HETATM   24  N   UNL     1      -4.428  -4.361 -34.493  1.00  0.00    -0.130 NA
HETATM   25  C   UNL     1      -5.632  -3.840 -34.766  1.00  0.00     0.073 A 
HETATM   26  C   UNL     1      -6.646  -4.647 -35.484  1.00  0.00     0.074 C 
HETATM   27  C   UNL     1      -6.711  -1.488 -34.288  1.00  0.00     0.036 A 
ENDBRANCH   1  18
TORSDOF 3
ENDMDL
MODEL 6
REMARK VINA RESULT:      -8.1      4.625      7.796
REMARK  3 active torsions:
REMARK  status: ('A' for Active; 'I' for Inactive)
REMARK    1  A    between atoms: C_9  and  C_10 
REMARK       I    between atoms: C_10  and  N_11 
REMARK    2  A    between atoms: N_11  and  C_12 
REMARK    3  A    between atoms: C_20  and  N_21 
ROOT
HETATM    1  C   UNL     1      -5.033   3.484 -32.874  1.00  0.00     0.258 C 
HETATM    2  N   UNL     1      -5.852   3.216 -33.954  1.00  0.00    -0.305 N 
HETATM    3  O   UNL     1      -5.088   2.990 -31.756  1.00  0.00    -0.267 OA
HETATM    4  H   UNL     1      -5.781   3.775 -34.788  1.00  0.00     0.170 HD
ENDROOT
BRANCH   2   5
HETATM    5  C   UNL     1      -6.845   2.251 -33.973  1.00  0.00     0.163 A 
HETATM    6  N   UNL     1      -8.153   2.500 -33.990  1.00  0.00    -0.155 NA
HETATM    7  N   UNL     1      -8.733   1.295 -34.000  1.00  0.00    -0.275 N 
HETATM    8  H   UNL     1      -9.747   1.255 -34.021  1.00  0.00     0.189 HD
HETATM    9  C   UNL     1      -7.851   0.251 -33.971  1.00  0.00     0.064 A 
HETATM   10  C   UNL     1      -6.593   0.844 -33.957  1.00  0.00     0.042 A 
HETATM   11  C   UNL     1      -8.055  -1.134 -33.956  1.00  0.00     0.034 A 
HETATM   12  C   UNL     1      -5.451   0.019 -33.923  1.00  0.00     0.053 A 
HETATM   13  C   UNL     1      -5.637  -1.378 -33.901  1.00  0.00     0.103 A 
HETATM   14  C   UNL     1      -6.917  -1.947 -33.918  1.00  0.00     0.038 A 
BRANCH  13  15
HETATM   15  N   UNL     1      -4.457  -2.252 -33.854  1.00  0.00    -0.116 N 
HETATM   16  O   UNL     1      -4.245  -2.992 -34.825  1.00  0.00    -0.532 OA
HETATM   17  O   UNL     1      -3.744  -2.198 -32.841  1.00  0.00    -0.532 OA
ENDBRANCH  13  15
ENDBRANCH   2   5
BRANCH   1  18
HETATM   18  C   UNL     1      -3.987   4.515 -33.109  1.00  0.00     0.051 A 
HETATM   19  C   UNL     1      -4.090   5.311 -34.252  1.00  0.00     0.136 A 
HETATM   20  N   UNL     1      -3.231   6.296 -34.619  1.00  0.00    -0.233 NA
HETATM   21  C   UNL     1      -2.228   6.471 -33.736  1.00  0.00     0.206 A 
HETATM   22  O   UNL     1      -1.242   7.400 -33.874  1.00  0.00    -0.192 OA
HETATM   23  C   UNL     1      -2.019   5.766 -32.560  1.00  0.00     0.047 A 
HETATM   24  N   UNL     1      -0.371   7.325 -32.796  1.00  0.00    -0.130 NA
HETATM   25  C   UNL     1      -0.848   6.347 -32.013  1.00  0.00     0.073 A 
HETATM   26  C   UNL     1      -0.149   5.992 -30.757  1.00  0.00     0.074 C 
HETATM   27  C   UNL     1      -2.929   4.750 -32.218  1.00  0.00     0.036 A 
ENDBRANCH   1  18
TORSDOF 3
ENDMDL
MODEL 7
REMARK VINA RESULT:      -8.0      2.054      2.416
REMARK  3 active torsions:
REMARK  status: ('A' for Active; 'I' for Inactive)
REMARK    1  A    between atoms: C_9  and  C_10 
REMARK       I    between atoms: C_10  and  N_11 
REMARK    2  A    between atoms: N_11  and  C_12 
REMARK    3  A    between atoms: C_20  and  N_21 
ROOT
HETATM    1  C   UNL     1      -8.631   0.706 -32.129  1.00  0.00     0.258 C 
HETATM    2  N   UNL     1      -8.488   2.062 -31.907  1.00  0.00    -0.305 N 
HETATM    3  O   UNL     1      -9.611   0.012 -31.894  1.00  0.00    -0.267 OA
HETATM    4  H   UNL     1      -7.589   2.498 -32.032  1.00  0.00     0.170 HD
ENDROOT
BRANCH   2   5
HETATM    5  C   UNL     1      -9.491   2.899 -31.450  1.00  0.00     0.163 A 
HETATM    6  N   UNL     1      -9.564   3.406 -30.220  1.00  0.00    -0.155 NA
HETATM    7  N   UNL     1     -10.680   4.143 -30.216  1.00  0.00    -0.275 N 
HETATM    8  H   UNL     1     -10.924   4.631 -29.362  1.00  0.00     0.189 HD
HETATM    9  C   UNL     1     -11.364   4.127 -31.401  1.00  0.00     0.064 A 
HETATM   10  C   UNL     1     -10.606   3.318 -32.241  1.00  0.00     0.042 A 
HETATM   11  C   UNL     1     -12.559   4.744 -31.788  1.00  0.00     0.034 A 
HETATM   12  C   UNL     1     -11.055   3.096 -33.559  1.00  0.00     0.053 A 
HETATM   13  C   UNL     1     -12.259   3.704 -33.965  1.00  0.00     0.103 A 
HETATM   14  C   UNL     1     -13.000   4.516 -33.096  1.00  0.00     0.038 A 
BRANCH  13  15
HETATM   15  N   UNL     1     -12.746   3.474 -35.332  1.00  0.00    -0.116 N 
HETATM   16  O   UNL     1     -13.000   2.308 -35.667  1.00  0.00    -0.532 OA
HETATM   17  O   UNL     1     -12.870   4.462 -36.071  1.00  0.00    -0.532 OA
ENDBRANCH  13  15
ENDBRANCH   2   5
BRANCH   1  18
HETATM   18  C   UNL     1      -7.436   0.023 -32.693  1.00  0.00     0.051 A 
HETATM   19  C   UNL     1      -6.183   0.603 -32.480  1.00  0.00     0.136 A 
HETATM   20  N   UNL     1      -4.994   0.117 -32.917  1.00  0.00    -0.233 NA
HETATM   21  C   UNL     1      -5.119  -1.043 -33.591  1.00  0.00     0.206 A 
HETATM   22  O   UNL     1      -4.073  -1.733 -34.125  1.00  0.00    -0.192 OA
HETATM   23  C   UNL     1      -6.294  -1.732 -33.857  1.00  0.00     0.047 A 
HETATM   24  N   UNL     1      -4.539  -2.883 -34.747  1.00  0.00    -0.130 NA
HETATM   25  C   UNL     1      -5.868  -2.875 -34.577  1.00  0.00     0.073 A 
HETATM   26  C   UNL     1      -6.696  -3.974 -35.126  1.00  0.00     0.074 C 
HETATM   27  C   UNL     1      -7.505  -1.192 -33.389  1.00  0.00     0.036 A 
ENDBRANCH   1  18
TORSDOF 3
ENDMDL
MODEL 8
REMARK VINA RESULT:      -8.0      4.730      6.736
REMARK  3 active torsions:
REMARK  status: ('A' for Active; 'I' for Inactive)
REMARK    1  A    between atoms: C_9  and  C_10 
REMARK       I    between atoms: C_10  and  N_11 
REMARK    2  A    between atoms: N_11  and  C_12 
REMARK    3  A    between atoms: C_20  and  N_21 
ROOT
HETATM    1  C   UNL     1      -4.681   3.018 -32.452  1.00  0.00     0.258 C 
HETATM    2  N   UNL     1      -5.522   2.463 -33.396  1.00  0.00    -0.305 N 
HETATM    3  O   UNL     1      -4.558   2.691 -31.279  1.00  0.00    -0.267 OA
HETATM    4  H   UNL     1      -5.619   2.897 -34.299  1.00  0.00     0.170 HD
ENDROOT
BRANCH   2   5
HETATM    5  C   UNL     1      -6.325   1.354 -33.186  1.00  0.00     0.163 A 
HETATM    6  N   UNL     1      -5.880   0.127 -32.919  1.00  0.00    -0.155 NA
HETATM    7  N   UNL     1      -6.981  -0.620 -32.797  1.00  0.00    -0.275 N 
HETATM    8  H   UNL     1      -6.866  -1.605 -32.582  1.00  0.00     0.189 HD
HETATM    9  C   UNL     1      -8.147   0.067 -32.993  1.00  0.00     0.064 A 
HETATM   10  C   UNL     1      -7.752   1.376 -33.249  1.00  0.00     0.042 A 
HETATM   11  C   UNL     1      -9.483  -0.349 -32.967  1.00  0.00     0.034 A 
HETATM   12  C   UNL     1      -8.742   2.348 -33.501  1.00  0.00     0.053 A 
HETATM   13  C   UNL     1     -10.092   1.947 -33.485  1.00  0.00     0.103 A 
HETATM   14  C   UNL     1     -10.459   0.621 -33.222  1.00  0.00     0.038 A 
BRANCH  13  15
HETATM   15  N   UNL     1     -11.135   2.946 -33.756  1.00  0.00    -0.116 N 
HETATM   16  O   UNL     1     -11.344   3.258 -34.937  1.00  0.00    -0.532 OA
HETATM   17  O   UNL     1     -11.741   3.420 -32.784  1.00  0.00    -0.532 OA
ENDBRANCH  13  15
ENDBRANCH   2   5
BRANCH   1  18
HETATM   18  C   UNL     1      -3.858   4.163 -32.927  1.00  0.00     0.051 A 
HETATM   19  C   UNL     1      -4.261   4.828 -34.086  1.00  0.00     0.136 A 
HETATM   20  N   UNL     1      -3.634   5.888 -34.657  1.00  0.00    -0.233 NA
HETATM   21  C   UNL     1      -2.546   6.285 -33.969  1.00  0.00     0.206 A 
HETATM   22  O   UNL     1      -1.751   7.330 -34.332  1.00  0.00    -0.192 OA
HETATM   23  C   UNL     1      -2.048   5.727 -32.800  1.00  0.00     0.047 A 
HETATM   24  N   UNL     1      -0.722   7.478 -33.412  1.00  0.00    -0.130 NA
HETATM   25  C   UNL     1      -0.912   6.517 -32.497  1.00  0.00     0.073 A 
HETATM   26  C   UNL     1       0.021   6.382 -31.355  1.00  0.00     0.074 C 
HETATM   27  C   UNL     1      -2.725   4.627 -32.244  1.00  0.00     0.036 A 
ENDBRANCH   1  18
TORSDOF 3
ENDMDL
MODEL 9
REMARK VINA RESULT:      -8.0      4.252      7.945
REMARK  3 active torsions:
REMARK  status: ('A' for Active; 'I' for Inactive)
REMARK    1  A    between atoms: C_9  and  C_10 
REMARK       I    between atoms: C_10  and  N_11 
REMARK    2  A    between atoms: N_11  and  C_12 
REMARK    3  A    between atoms: C_20  and  N_21 
ROOT
HETATM    1  C   UNL     1      -5.780   2.226 -32.324  1.00  0.00     0.258 C 
HETATM    2  N   UNL     1      -5.738   1.915 -33.670  1.00  0.00    -0.305 N 
HETATM    3  O   UNL     1      -6.422   1.661 -31.448  1.00  0.00    -0.267 OA
HETATM    4  H   UNL     1      -5.264   2.528 -34.311  1.00  0.00     0.170 HD
ENDROOT
BRANCH   2   5
HETATM    5  C   UNL     1      -6.366   0.825 -34.249  1.00  0.00     0.163 A 
HETATM    6  N   UNL     1      -7.484   0.882 -34.971  1.00  0.00    -0.155 NA
HETATM    7  N   UNL     1      -7.732  -0.383 -35.323  1.00  0.00    -0.275 N 
HETATM    8  H   UNL     1      -8.550  -0.567 -35.895  1.00  0.00     0.189 HD
HETATM    9  C   UNL     1      -6.823  -1.285 -34.841  1.00  0.00     0.064 A 
HETATM   10  C   UNL     1      -5.904  -0.522 -34.129  1.00  0.00     0.042 A 
HETATM   11  C   UNL     1      -6.741  -2.676 -34.971  1.00  0.00     0.034 A 
HETATM   12  C   UNL     1      -4.825  -1.171 -33.496  1.00  0.00     0.053 A 
HETATM   13  C   UNL     1      -4.729  -2.572 -33.611  1.00  0.00     0.103 A 
HETATM   14  C   UNL     1      -5.669  -3.314 -34.337  1.00  0.00     0.038 A 
BRANCH  13  15
HETATM   15  N   UNL     1      -3.616  -3.265 -32.947  1.00  0.00    -0.116 N 
HETATM   16  O   UNL     1      -3.346  -4.416 -33.319  1.00  0.00    -0.532 OA
HETATM   17  O   UNL     1      -3.016  -2.657 -32.049  1.00  0.00    -0.532 OA
ENDBRANCH  13  15
ENDBRANCH   2   5
BRANCH   1  18
HETATM   18  C   UNL     1      -4.967   3.403 -31.917  1.00  0.00     0.051 A 
HETATM   19  C   UNL     1      -5.321   4.076 -30.746  1.00  0.00     0.136 A 
HETATM   20  N   UNL     1      -4.692   5.162 -30.228  1.00  0.00    -0.233 NA
HETATM   21  C   UNL     1      -3.629   5.549 -30.959  1.00  0.00     0.206 A 
HETATM   22  O   UNL     1      -2.830   6.606 -30.646  1.00  0.00    -0.192 OA
HETATM   23  C   UNL     1      -3.159   4.962 -32.126  1.00  0.00     0.047 A 
HETATM   24  N   UNL     1      -1.825   6.733 -31.595  1.00  0.00    -0.130 NA
HETATM   25  C   UNL     1      -2.029   5.742 -32.473  1.00  0.00     0.073 A 
HETATM   26  C   UNL     1      -1.126   5.580 -33.636  1.00  0.00     0.074 C 
HETATM   27  C   UNL     1      -3.842   3.842 -32.631  1.00  0.00     0.036 A 
ENDBRANCH   1  18
TORSDOF 3
ENDMDL
MODEL 10
REMARK VINA RESULT:      -8.0     14.258     15.294
REMARK  3 active torsions:
REMARK  status: ('A' for Active; 'I' for Inactive)
REMARK    1  A    between atoms: C_9  and  C_10 
REMARK       I    between atoms: C_10  and  N_11 
REMARK    2  A    between atoms: N_11  and  C_12 
REMARK    3  A    between atoms: C_20  and  N_21 
ROOT
HETATM    1  C   UNL     1      -4.755 -14.460 -35.614  1.00  0.00     0.258 C 
HETATM    2  N   UNL     1      -4.621 -13.139 -35.995  1.00  0.00    -0.305 N 
HETATM    3  O   UNL     1      -4.835 -15.442 -36.341  1.00  0.00    -0.267 OA
HETATM    4  H   UNL     1      -4.685 -12.409 -35.305  1.00  0.00     0.170 HD
ENDROOT
BRANCH   2   5
HETATM    5  C   UNL     1      -4.461 -12.705 -37.300  1.00  0.00     0.163 A 
HETATM    6  N   UNL     1      -3.307 -12.319 -37.842  1.00  0.00    -0.155 NA
HETATM    7  N   UNL     1      -3.612 -11.982 -39.099  1.00  0.00    -0.275 N 
HETATM    8  H   UNL     1      -2.861 -11.661 -39.701  1.00  0.00     0.189 HD
HETATM    9  C   UNL     1      -4.938 -12.115 -39.407  1.00  0.00     0.064 A 
HETATM   10  C   UNL     1      -5.530 -12.594 -38.242  1.00  0.00     0.042 A 
HETATM   11  C   UNL     1      -5.645 -11.856 -40.586  1.00  0.00     0.034 A 
HETATM   12  C   UNL     1      -6.918 -12.835 -38.235  1.00  0.00     0.053 A 
HETATM   13  C   UNL     1      -7.648 -12.575 -39.411  1.00  0.00     0.103 A 
HETATM   14  C   UNL     1      -7.024 -12.095 -40.569  1.00  0.00     0.038 A 
BRANCH  13  15
HETATM   15  N   UNL     1      -9.099 -12.811 -39.415  1.00  0.00    -0.116 N 
HETATM   16  O   UNL     1      -9.551 -13.650 -38.624  1.00  0.00    -0.532 OA
HETATM   17  O   UNL     1      -9.783 -12.157 -40.216  1.00  0.00    -0.532 OA
ENDBRANCH  13  15
ENDBRANCH   2   5
BRANCH   1  18
HETATM   18  C   UNL     1      -4.840 -14.694 -34.147  1.00  0.00     0.051 A 
HETATM   19  C   UNL     1      -5.714 -13.900 -33.402  1.00  0.00     0.136 A 
HETATM   20  N   UNL     1      -5.919 -13.979 -32.062  1.00  0.00    -0.233 NA
HETATM   21  C   UNL     1      -5.190 -14.949 -31.478  1.00  0.00     0.206 A 
HETATM   22  O   UNL     1      -5.221 -15.232 -30.146  1.00  0.00    -0.192 OA
HETATM   23  C   UNL     1      -4.301 -15.815 -32.100  1.00  0.00     0.047 A 
HETATM   24  N   UNL     1      -4.360 -16.285 -29.869  1.00  0.00    -0.130 NA
HETATM   25  C   UNL     1      -3.819 -16.629 -31.045  1.00  0.00     0.073 A 
HETATM   26  C   UNL     1      -2.837 -17.735 -31.117  1.00  0.00     0.074 C 
HETATM   27  C   UNL     1      -4.115 -15.698 -33.488  1.00  0.00     0.036 A 
ENDBRANCH   1  18
TORSDOF 3
ENDMDL
