MODEL 1
REMARK VINA RESULT:      -8.7      0.000      0.000
REMARK  7 active torsions:
REMARK  status: ('A' for Active; 'I' for Inactive)
REMARK    1  A    between atoms: C_2  and  N_3 
REMARK    2  A    between atoms: C_2  and  C_10 
REMARK    3  A    between atoms: N_11  and  C_12 
REMARK    4  A    between atoms: C_19  and  S_20 
REMARK    5  A    between atoms: S_20  and  C_21 
REMARK    6  A    between atoms: C_21  and  C_22 
REMARK    7  A    between atoms: C_21  and  C_28 
REMARK       I    between atoms: C_22  and  N_23 
REMARK       I    between atoms: N_23  and  C_24 
REMARK       I    between atoms: C_24  and  N_25 
ROOT
HETATM    1  C   UNL     1      -3.671   3.947 -31.403  1.00  0.00     0.166 A 
HETATM    2  N   UNL     1      -4.665   2.971 -31.347  1.00  0.00    -0.274 N 
HETATM    3  C   UNL     1      -3.960   1.789 -31.206  1.00  0.00     0.197 A 
HETATM    4  N   UNL     1      -2.669   2.026 -31.226  1.00  0.00    -0.122 NA
HETATM    5  N   UNL     1      -2.488   3.366 -31.383  1.00  0.00    -0.131 NA
ENDROOT
BRANCH   3   6
HETATM    6  S   UNL     1      -4.626   0.198 -31.108  1.00  0.00    -0.070 SA
BRANCH   6   7
HETATM    7  C   UNL     1      -4.914  -0.208 -32.871  1.00  0.00     0.180 C 
BRANCH   7   8
HETATM    8  C   UNL     1      -4.425  -1.630 -33.181  1.00  0.00     0.244 C 
HETATM    9  N   UNL     1      -3.667  -2.219 -32.180  1.00  0.00    -0.278 N 
HETATM   10  C   UNL     1      -3.128  -3.472 -32.144  1.00  0.00     0.320 C 
HETATM   11  H   UNL     1      -3.435  -1.678 -31.359  1.00  0.00     0.173 HD
HETATM   12  N   UNL     1      -3.451  -4.310 -33.149  1.00  0.00    -0.352 N 
HETATM   13  O   UNL     1      -2.398  -3.821 -31.223  1.00  0.00    -0.247 OA
HETATM   14  H   UNL     1      -3.840  -3.933 -34.007  1.00  0.00     0.160 HD
HETATM   15  H   UNL     1      -2.985  -5.206 -33.181  1.00  0.00     0.160 HD
HETATM   16  O   UNL     1      -4.675  -2.159 -34.267  1.00  0.00    -0.271 OA
ENDBRANCH   7   8
BRANCH   7  17
HETATM   17  C   UNL     1      -6.338   0.023 -33.373  1.00  0.00    -0.035 A 
HETATM   18  C   UNL     1      -6.661   0.418 -34.683  1.00  0.00     0.009 A 
HETATM   19  C   UNL     1      -7.989   0.641 -35.060  1.00  0.00     0.001 A 
HETATM   20  C   UNL     1      -9.017   0.483 -34.136  1.00  0.00     0.000 A 
HETATM   21  C   UNL     1      -8.721   0.098 -32.833  1.00  0.00     0.001 A 
HETATM   22  C   UNL     1      -7.396  -0.133 -32.455  1.00  0.00     0.009 A 
ENDBRANCH   7  17
ENDBRANCH   6   7
ENDBRANCH   3   6
BRANCH   2  23
HETATM   23  C   UNL     1      -6.068   3.179 -31.358  1.00  0.00     0.043 A 
HETATM   24  C   UNL     1      -6.810   2.996 -30.181  1.00  0.00     0.033 A 
HETATM   25  C   UNL     1      -8.195   3.176 -30.198  1.00  0.00     0.044 A 
HETATM   26  C   UNL     1      -8.828   3.537 -31.382  1.00  0.00     0.116 A 
HETATM   27  F   UNL     1     -10.156   3.700 -31.394  1.00  0.00    -0.206 F 
HETATM   28  C   UNL     1      -8.103   3.731 -32.550  1.00  0.00     0.044 A 
HETATM   29  C   UNL     1      -6.717   3.556 -32.544  1.00  0.00     0.033 A 
ENDBRANCH   2  23
BRANCH   1  30
HETATM   30  C   UNL     1      -3.871   5.430 -31.312  1.00  0.00     0.255 C 
HETATM   31  C   UNL     1      -3.852   6.082 -32.696  1.00  0.00     0.049 C 
BRANCH  30  32
HETATM   32  N   UNL     1      -2.853   6.159 -30.401  1.00  0.00    -0.060 N 
HETATM   33  H   UNL     1      -2.364   5.414 -29.889  1.00  0.00     0.280 HD
HETATM   34  C   UNL     1      -1.803   6.896 -31.207  1.00  0.00     0.236 C 
HETATM   35  C   UNL     1      -0.692   7.369 -30.279  1.00  0.00     0.028 C 
HETATM   36  C   UNL     1      -1.230   8.231 -29.143  1.00  0.00     0.003 C 
HETATM   37  C   UNL     1      -2.355   7.523 -28.395  1.00  0.00     0.028 C 
HETATM   38  C   UNL     1      -3.458   7.074 -29.347  1.00  0.00     0.236 C 
ENDBRANCH  30  32
ENDBRANCH   1  30
TORSDOF 7
ENDMDL
MODEL 2
REMARK VINA RESULT:      -8.5      3.211      4.744
REMARK  7 active torsions:
REMARK  status: ('A' for Active; 'I' for Inactive)
REMARK    1  A    between atoms: C_2  and  N_3 
REMARK    2  A    between atoms: C_2  and  C_10 
REMARK    3  A    between atoms: N_11  and  C_12 
REMARK    4  A    between atoms: C_19  and  S_20 
REMARK    5  A    between atoms: S_20  and  C_21 
REMARK    6  A    between atoms: C_21  and  C_22 
REMARK    7  A    between atoms: C_21  and  C_28 
REMARK       I    between atoms: C_22  and  N_23 
REMARK       I    between atoms: N_23  and  C_24 
REMARK       I    between atoms: C_24  and  N_25 
ROOT
HETATM    1  C   UNL     1      -5.193   4.400 -30.558  1.00  0.00     0.166 A 
HETATM    2  N   UNL     1      -4.448   3.708 -31.512  1.00  0.00    -0.274 N 
HETATM    3  C   UNL     1      -4.891   2.403 -31.393  1.00  0.00     0.197 A 
HETATM    4  N   UNL     1      -5.776   2.309 -30.429  1.00  0.00    -0.122 NA
HETATM    5  N   UNL     1      -5.940   3.546 -29.885  1.00  0.00    -0.131 NA
ENDROOT
BRANCH   3   6
HETATM    6  S   UNL     1      -4.326   1.038 -32.291  1.00  0.00    -0.070 SA
BRANCH   6   7
HETATM    7  C   UNL     1      -5.887   0.170 -32.696  1.00  0.00     0.180 C 
BRANCH   7   8
HETATM    8  C   UNL     1      -6.868   1.128 -33.390  1.00  0.00     0.244 C 
HETATM    9  N   UNL     1      -8.033   1.385 -32.684  1.00  0.00    -0.278 N 
HETATM   10  C   UNL     1      -9.067   2.211 -33.016  1.00  0.00     0.320 C 
HETATM   11  H   UNL     1      -8.195   0.898 -31.814  1.00  0.00     0.173 HD
HETATM   12  N   UNL     1      -8.913   2.978 -34.115  1.00  0.00    -0.352 N 
HETATM   13  O   UNL     1     -10.081   2.265 -32.330  1.00  0.00    -0.247 OA
HETATM   14  H   UNL     1      -8.195   2.741 -34.791  1.00  0.00     0.160 HD
HETATM   15  H   UNL     1      -9.707   3.523 -34.421  1.00  0.00     0.160 HD
HETATM   16  O   UNL     1      -6.617   1.582 -34.510  1.00  0.00    -0.271 OA
ENDBRANCH   7   8
BRANCH   7  17
HETATM   17  C   UNL     1      -5.730  -1.138 -33.470  1.00  0.00    -0.035 A 
HETATM   18  C   UNL     1      -4.494  -1.729 -33.780  1.00  0.00     0.009 A 
HETATM   19  C   UNL     1      -4.430  -2.914 -34.521  1.00  0.00     0.001 A 
HETATM   20  C   UNL     1      -5.597  -3.522 -34.973  1.00  0.00     0.000 A 
HETATM   21  C   UNL     1      -6.831  -2.951 -34.684  1.00  0.00     0.001 A 
HETATM   22  C   UNL     1      -6.899  -1.773 -33.937  1.00  0.00     0.009 A 
ENDBRANCH   7  17
ENDBRANCH   6   7
ENDBRANCH   3   6
BRANCH   2  23
HETATM   23  C   UNL     1      -3.516   4.256 -32.429  1.00  0.00     0.043 A 
HETATM   24  C   UNL     1      -2.170   4.394 -32.057  1.00  0.00     0.033 A 
HETATM   25  C   UNL     1      -1.257   4.958 -32.950  1.00  0.00     0.044 A 
HETATM   26  C   UNL     1      -1.688   5.376 -34.204  1.00  0.00     0.116 A 
HETATM   27  F   UNL     1      -0.810   5.923 -35.053  1.00  0.00    -0.206 F 
HETATM   28  C   UNL     1      -3.015   5.235 -34.587  1.00  0.00     0.044 A 
HETATM   29  C   UNL     1      -3.936   4.671 -33.702  1.00  0.00     0.033 A 
ENDBRANCH   2  23
BRANCH   1  30
HETATM   30  C   UNL     1      -5.297   5.889 -30.413  1.00  0.00     0.255 C 
HETATM   31  C   UNL     1      -6.222   6.489 -31.475  1.00  0.00     0.049 C 
BRANCH  30  32
HETATM   32  N   UNL     1      -3.940   6.632 -30.452  1.00  0.00    -0.060 N 
HETATM   33  H   UNL     1      -3.258   5.937 -30.779  1.00  0.00     0.280 HD
HETATM   34  C   UNL     1      -3.941   7.753 -31.471  1.00  0.00     0.236 C 
HETATM   35  C   UNL     1      -2.522   8.274 -31.653  1.00  0.00     0.028 C 
HETATM   36  C   UNL     1      -1.907   8.721 -30.332  1.00  0.00     0.003 C 
HETATM   37  C   UNL     1      -1.996   7.621 -29.279  1.00  0.00     0.028 C 
HETATM   38  C   UNL     1      -3.430   7.131 -29.108  1.00  0.00     0.236 C 
ENDBRANCH  30  32
ENDBRANCH   1  30
TORSDOF 7
ENDMDL
MODEL 3
REMARK VINA RESULT:      -8.3      3.473      5.688
REMARK  7 active torsions:
REMARK  status: ('A' for Active; 'I' for Inactive)
REMARK    1  A    between atoms: C_2  and  N_3 
REMARK    2  A    between atoms: C_2  and  C_10 
REMARK    3  A    between atoms: N_11  and  C_12 
REMARK    4  A    between atoms: C_19  and  S_20 
REMARK    5  A    between atoms: S_20  and  C_21 
REMARK    6  A    between atoms: C_21  and  C_22 
REMARK    7  A    between atoms: C_21  and  C_28 
REMARK       I    between atoms: C_22  and  N_23 
REMARK       I    between atoms: N_23  and  C_24 
REMARK       I    between atoms: C_24  and  N_25 
ROOT
HETATM    1  C   UNL     1      -6.026   3.526 -30.812  1.00  0.00     0.166 A 
HETATM    2  N   UNL     1      -5.244   3.028 -31.854  1.00  0.00    -0.274 N 
HETATM    3  C   UNL     1      -5.641   1.707 -31.963  1.00  0.00     0.197 A 
HETATM    4  N   UNL     1      -6.535   1.424 -31.045  1.00  0.00    -0.122 NA
HETATM    5  N   UNL     1      -6.750   2.547 -30.305  1.00  0.00    -0.131 NA
ENDROOT
BRANCH   3   6
HETATM    6  S   UNL     1      -5.017   0.532 -33.066  1.00  0.00    -0.070 SA
BRANCH   6   7
HETATM    7  C   UNL     1      -6.448  -0.589 -33.286  1.00  0.00     0.180 C 
BRANCH   7   8
HETATM    8  C   UNL     1      -7.577   0.126 -34.043  1.00  0.00     0.244 C 
HETATM    9  N   UNL     1      -8.783   0.200 -33.362  1.00  0.00    -0.278 N 
HETATM   10  C   UNL     1      -9.947   0.797 -33.750  1.00  0.00     0.320 C 
HETATM   11  H   UNL     1      -8.868  -0.259 -32.466  1.00  0.00     0.173 HD
HETATM   12  N   UNL     1      -9.919   1.515 -34.891  1.00  0.00    -0.352 N 
HETATM   13  O   UNL     1     -10.965   0.698 -33.076  1.00  0.00    -0.247 OA
HETATM   14  H   UNL     1      -9.157   1.380 -35.547  1.00  0.00     0.160 HD
HETATM   15  H   UNL     1     -10.795   1.883 -35.235  1.00  0.00     0.160 HD
HETATM   16  O   UNL     1      -7.395   0.555 -35.186  1.00  0.00    -0.271 OA
ENDBRANCH   7   8
BRANCH   7  17
HETATM   17  C   UNL     1      -6.128  -1.950 -33.901  1.00  0.00    -0.035 A 
HETATM   18  C   UNL     1      -7.094  -2.835 -34.410  1.00  0.00     0.009 A 
HETATM   19  C   UNL     1      -6.725  -4.080 -34.929  1.00  0.00     0.001 A 
HETATM   20  C   UNL     1      -5.389  -4.468 -34.940  1.00  0.00     0.000 A 
HETATM   21  C   UNL     1      -4.417  -3.612 -34.435  1.00  0.00     0.001 A 
HETATM   22  C   UNL     1      -4.781  -2.364 -33.924  1.00  0.00     0.009 A 
ENDBRANCH   7  17
ENDBRANCH   6   7
ENDBRANCH   3   6
BRANCH   2  23
HETATM   23  C   UNL     1      -4.321   3.753 -32.649  1.00  0.00     0.043 A 
HETATM   24  C   UNL     1      -4.768   4.432 -33.793  1.00  0.00     0.033 A 
HETATM   25  C   UNL     1      -3.854   5.125 -34.591  1.00  0.00     0.044 A 
HETATM   26  C   UNL     1      -2.508   5.138 -34.245  1.00  0.00     0.116 A 
HETATM   27  F   UNL     1      -1.636   5.796 -35.017  1.00  0.00    -0.206 F 
HETATM   28  C   UNL     1      -2.055   4.478 -33.110  1.00  0.00     0.044 A 
HETATM   29  C   UNL     1      -2.961   3.784 -32.303  1.00  0.00     0.033 A 
ENDBRANCH   2  23
BRANCH   1  30
HETATM   30  C   UNL     1      -6.185   4.965 -30.423  1.00  0.00     0.255 C 
HETATM   31  C   UNL     1      -5.930   5.171 -28.928  1.00  0.00     0.049 C 
BRANCH  30  32
HETATM   32  N   UNL     1      -7.558   5.579 -30.788  1.00  0.00    -0.060 N 
HETATM   33  H   UNL     1      -7.401   6.593 -30.826  1.00  0.00     0.280 HD
HETATM   34  C   UNL     1      -8.015   5.155 -32.169  1.00  0.00     0.236 C 
HETATM   35  C   UNL     1      -9.226   5.983 -32.578  1.00  0.00     0.028 C 
HETATM   36  C   UNL     1     -10.355   5.877 -31.560  1.00  0.00     0.003 C 
HETATM   37  C   UNL     1      -9.867   6.210 -30.154  1.00  0.00     0.028 C 
HETATM   38  C   UNL     1      -8.665   5.356 -29.767  1.00  0.00     0.236 C 
ENDBRANCH  30  32
ENDBRANCH   1  30
TORSDOF 7
ENDMDL
MODEL 4
REMARK VINA RESULT:      -8.3      1.238      2.092
REMARK  7 active torsions:
REMARK  status: ('A' for Active; 'I' for Inactive)
REMARK    1  A    between atoms: C_2  and  N_3 
REMARK    2  A    between atoms: C_2  and  C_10 
REMARK    3  A    between atoms: N_11  and  C_12 
REMARK    4  A    between atoms: C_19  and  S_20 
REMARK    5  A    between atoms: S_20  and  C_21 
REMARK    6  A    between atoms: C_21  and  C_22 
REMARK    7  A    between atoms: C_21  and  C_28 
REMARK       I    between atoms: C_22  and  N_23 
REMARK       I    between atoms: N_23  and  C_24 
REMARK       I    between atoms: C_24  and  N_25 
ROOT
HETATM    1  C   UNL     1      -3.795   4.068 -31.484  1.00  0.00     0.166 A 
HETATM    2  N   UNL     1      -4.736   3.042 -31.410  1.00  0.00    -0.274 N 
HETATM    3  C   UNL     1      -3.969   1.900 -31.264  1.00  0.00     0.197 A 
HETATM    4  N   UNL     1      -2.692   2.202 -31.300  1.00  0.00    -0.122 NA
HETATM    5  N   UNL     1      -2.582   3.548 -31.471  1.00  0.00    -0.131 NA
ENDROOT
BRANCH   3   6
HETATM    6  S   UNL     1      -4.550   0.276 -31.146  1.00  0.00    -0.070 SA
BRANCH   6   7
HETATM    7  C   UNL     1      -4.850  -0.155 -32.900  1.00  0.00     0.180 C 
BRANCH   7   8
HETATM    8  C   UNL     1      -4.346  -1.575 -33.196  1.00  0.00     0.244 C 
HETATM    9  N   UNL     1      -3.639  -2.173 -32.164  1.00  0.00    -0.278 N 
HETATM   10  C   UNL     1      -3.102  -3.426 -32.111  1.00  0.00     0.320 C 
HETATM   11  H   UNL     1      -3.448  -1.638 -31.328  1.00  0.00     0.173 HD
HETATM   12  N   UNL     1      -3.375  -4.256 -33.138  1.00  0.00    -0.352 N 
HETATM   13  O   UNL     1      -2.420  -3.783 -31.158  1.00  0.00    -0.247 OA
HETATM   14  H   UNL     1      -3.721  -3.871 -34.011  1.00  0.00     0.160 HD
HETATM   15  H   UNL     1      -2.908  -5.151 -33.153  1.00  0.00     0.160 HD
HETATM   16  O   UNL     1      -4.541  -2.095 -34.298  1.00  0.00    -0.271 OA
ENDBRANCH   7   8
BRANCH   7  17
HETATM   17  C   UNL     1      -6.281   0.052 -33.392  1.00  0.00    -0.035 A 
HETATM   18  C   UNL     1      -6.618   0.465 -34.692  1.00  0.00     0.009 A 
HETATM   19  C   UNL     1      -7.953   0.664 -35.059  1.00  0.00     0.001 A 
HETATM   20  C   UNL     1      -8.973   0.464 -34.134  1.00  0.00     0.000 A 
HETATM   21  C   UNL     1      -8.662   0.061 -32.840  1.00  0.00     0.001 A 
HETATM   22  C   UNL     1      -7.331  -0.147 -32.473  1.00  0.00     0.009 A 
ENDBRANCH   7  17
ENDBRANCH   6   7
ENDBRANCH   3   6
BRANCH   2  23
HETATM   23  C   UNL     1      -6.147   3.177 -31.409  1.00  0.00     0.043 A 
HETATM   24  C   UNL     1      -6.812   3.567 -32.581  1.00  0.00     0.033 A 
HETATM   25  C   UNL     1      -8.199   3.725 -32.574  1.00  0.00     0.044 A 
HETATM   26  C   UNL     1      -8.913   3.492 -31.404  1.00  0.00     0.116 A 
HETATM   27  F   UNL     1     -10.241   3.652 -31.401  1.00  0.00    -0.206 F 
HETATM   28  C   UNL     1      -8.268   3.094 -30.240  1.00  0.00     0.044 A 
HETATM   29  C   UNL     1      -6.880   2.931 -30.237  1.00  0.00     0.033 A 
ENDBRANCH   2  23
BRANCH   1  30
HETATM   30  C   UNL     1      -4.070   5.539 -31.405  1.00  0.00     0.255 C 
HETATM   31  C   UNL     1      -2.806   6.325 -31.048  1.00  0.00     0.049 C 
BRANCH  30  32
HETATM   32  N   UNL     1      -5.197   5.927 -30.418  1.00  0.00    -0.060 N 
HETATM   33  H   UNL     1      -5.700   5.054 -30.221  1.00  0.00     0.280 HD
HETATM   34  C   UNL     1      -4.643   6.419 -29.096  1.00  0.00     0.236 C 
HETATM   35  C   UNL     1      -5.776   6.537 -28.084  1.00  0.00     0.028 C 
HETATM   36  C   UNL     1      -6.897   7.438 -28.590  1.00  0.00     0.003 C 
HETATM   37  C   UNL     1      -7.385   6.996 -29.966  1.00  0.00     0.028 C 
HETATM   38  C   UNL     1      -6.233   6.902 -30.960  1.00  0.00     0.236 C 
ENDBRANCH  30  32
ENDBRANCH   1  30
TORSDOF 7
ENDMDL
MODEL 5
REMARK VINA RESULT:      -8.2      3.689      5.231
REMARK  7 active torsions:
REMARK  status: ('A' for Active; 'I' for Inactive)
REMARK    1  A    between atoms: C_2  and  N_3 
REMARK    2  A    between atoms: C_2  and  C_10 
REMARK    3  A    between atoms: N_11  and  C_12 
REMARK    4  A    between atoms: C_19  and  S_20 
REMARK    5  A    between atoms: S_20  and  C_21 
REMARK    6  A    between atoms: C_21  and  C_22 
REMARK    7  A    between atoms: C_21  and  C_28 
REMARK       I    between atoms: C_22  and  N_23 
REMARK       I    between atoms: N_23  and  C_24 
REMARK       I    between atoms: C_24  and  N_25 
ROOT
HETATM    1  C   UNL     1      -8.186   3.441 -33.523  1.00  0.00     0.166 A 
HETATM    2  N   UNL     1      -8.588   2.188 -33.983  1.00  0.00    -0.274 N 
HETATM    3  C   UNL     1      -7.417   1.615 -34.446  1.00  0.00     0.197 A 
HETATM    4  N   UNL     1      -6.420   2.459 -34.325  1.00  0.00    -0.122 NA
HETATM    5  N   UNL     1      -6.904   3.610 -33.782  1.00  0.00    -0.131 NA
ENDROOT
BRANCH   3   6
HETATM    6  S   UNL     1      -7.251   0.057 -35.175  1.00  0.00    -0.070 SA
BRANCH   6   7
HETATM    7  C   UNL     1      -5.826  -0.645 -34.264  1.00  0.00     0.180 C 
BRANCH   7   8
HETATM    8  C   UNL     1      -5.859  -0.201 -32.794  1.00  0.00     0.244 C 
HETATM    9  N   UNL     1      -4.861   0.689 -32.429  1.00  0.00    -0.278 N 
HETATM   10  C   UNL     1      -4.650   1.285 -31.220  1.00  0.00     0.320 C 
HETATM   11  H   UNL     1      -4.156   0.939 -33.108  1.00  0.00     0.173 HD
HETATM   12  N   UNL     1      -5.584   1.091 -30.267  1.00  0.00    -0.352 N 
HETATM   13  O   UNL     1      -3.663   1.983 -31.021  1.00  0.00    -0.247 OA
HETATM   14  H   UNL     1      -6.245   0.328 -30.365  1.00  0.00     0.160 HD
HETATM   15  H   UNL     1      -5.393   1.450 -29.342  1.00  0.00     0.160 HD
HETATM   16  O   UNL     1      -6.704  -0.657 -32.018  1.00  0.00    -0.271 OA
ENDBRANCH   7   8
BRANCH   7  17
HETATM   17  C   UNL     1      -5.642  -2.156 -34.395  1.00  0.00    -0.035 A 
HETATM   18  C   UNL     1      -6.659  -3.046 -34.783  1.00  0.00     0.009 A 
HETATM   19  C   UNL     1      -6.422  -4.422 -34.849  1.00  0.00     0.001 A 
HETATM   20  C   UNL     1      -5.171  -4.936 -34.521  1.00  0.00     0.000 A 
HETATM   21  C   UNL     1      -4.152  -4.075 -34.129  1.00  0.00     0.001 A 
HETATM   22  C   UNL     1      -4.383  -2.699 -34.069  1.00  0.00     0.009 A 
ENDBRANCH   7  17
ENDBRANCH   6   7
ENDBRANCH   3   6
BRANCH   2  23
HETATM   23  C   UNL     1      -9.889   1.628 -33.908  1.00  0.00     0.043 A 
HETATM   24  C   UNL     1     -10.115   0.493 -33.114  1.00  0.00     0.033 A 
HETATM   25  C   UNL     1     -11.391  -0.074 -33.061  1.00  0.00     0.044 A 
HETATM   26  C   UNL     1     -12.428   0.492 -33.794  1.00  0.00     0.116 A 
HETATM   27  F   UNL     1     -13.645  -0.060 -33.745  1.00  0.00    -0.206 F 
HETATM   28  C   UNL     1     -12.218   1.622 -34.574  1.00  0.00     0.044 A 
HETATM   29  C   UNL     1     -10.947   2.198 -34.633  1.00  0.00     0.033 A 
ENDBRANCH   2  23
BRANCH   1  30
HETATM   30  C   UNL     1      -9.000   4.393 -32.699  1.00  0.00     0.255 C 
HETATM   31  C   UNL     1      -9.448   5.602 -33.524  1.00  0.00     0.049 C 
BRANCH  30  32
HETATM   32  N   UNL     1      -8.295   4.894 -31.416  1.00  0.00    -0.060 N 
HETATM   33  H   UNL     1      -7.400   5.287 -31.733  1.00  0.00     0.280 HD
HETATM   34  C   UNL     1      -9.059   6.026 -30.759  1.00  0.00     0.236 C 
HETATM   35  C   UNL     1      -8.201   6.649 -29.665  1.00  0.00     0.028 C 
HETATM   36  C   UNL     1      -7.746   5.614 -28.643  1.00  0.00     0.003 C 
HETATM   37  C   UNL     1      -7.063   4.429 -29.318  1.00  0.00     0.028 C 
HETATM   38  C   UNL     1      -7.951   3.818 -30.397  1.00  0.00     0.236 C 
ENDBRANCH  30  32
ENDBRANCH   1  30
TORSDOF 7
ENDMDL
MODEL 6
REMARK VINA RESULT:      -8.1      4.119      6.657
REMARK  7 active torsions:
REMARK  status: ('A' for Active; 'I' for Inactive)
REMARK    1  A    between atoms: C_2  and  N_3 
REMARK    2  A    between atoms: C_2  and  C_10 
REMARK    3  A    between atoms: N_11  and  C_12 
REMARK    4  A    between atoms: C_19  and  S_20 
REMARK    5  A    between atoms: S_20  and  C_21 
REMARK    6  A    between atoms: C_21  and  C_22 
REMARK    7  A    between atoms: C_21  and  C_28 
REMARK       I    between atoms: C_22  and  N_23 
REMARK       I    between atoms: N_23  and  C_24 
REMARK       I    between atoms: C_24  and  N_25 
ROOT
HETATM    1  C   UNL     1      -8.496   3.523 -33.415  1.00  0.00     0.166 A 
HETATM    2  N   UNL     1      -8.775   2.272 -33.962  1.00  0.00    -0.274 N 
HETATM    3  C   UNL     1      -7.543   1.823 -34.405  1.00  0.00     0.197 A 
HETATM    4  N   UNL     1      -6.624   2.736 -34.192  1.00  0.00    -0.122 NA
HETATM    5  N   UNL     1      -7.223   3.809 -33.606  1.00  0.00    -0.131 NA
ENDROOT
BRANCH   3   6
HETATM    6  S   UNL     1      -7.221   0.330 -35.213  1.00  0.00    -0.070 SA
BRANCH   6   7
HETATM    7  C   UNL     1      -5.981  -0.446 -34.110  1.00  0.00     0.180 C 
BRANCH   7   8
HETATM    8  C   UNL     1      -6.293  -0.121 -32.642  1.00  0.00     0.244 C 
HETATM    9  N   UNL     1      -5.523   0.891 -32.090  1.00  0.00    -0.278 N 
HETATM   10  C   UNL     1      -5.588   1.425 -30.836  1.00  0.00     0.320 C 
HETATM   11  H   UNL     1      -4.785   1.302 -32.644  1.00  0.00     0.173 HD
HETATM   12  N   UNL     1      -6.598   1.012 -30.043  1.00  0.00    -0.352 N 
HETATM   13  O   UNL     1      -4.773   2.258 -30.459  1.00  0.00    -0.247 OA
HETATM   14  H   UNL     1      -7.097   0.161 -30.275  1.00  0.00     0.160 HD
HETATM   15  H   UNL     1      -6.601   1.330 -29.084  1.00  0.00     0.160 HD
HETATM   16  O   UNL     1      -7.146  -0.763 -32.023  1.00  0.00    -0.271 OA
ENDBRANCH   7   8
BRANCH   7  17
HETATM   17  C   UNL     1      -5.756  -1.941 -34.324  1.00  0.00    -0.035 A 
HETATM   18  C   UNL     1      -6.740  -2.830 -34.789  1.00  0.00     0.009 A 
HETATM   19  C   UNL     1      -6.467  -4.195 -34.929  1.00  0.00     0.001 A 
HETATM   20  C   UNL     1      -5.213  -4.697 -34.598  1.00  0.00     0.000 A 
HETATM   21  C   UNL     1      -4.226  -3.837 -34.130  1.00  0.00     0.001 A 
HETATM   22  C   UNL     1      -4.492  -2.472 -33.997  1.00  0.00     0.009 A 
ENDBRANCH   7  17
ENDBRANCH   6   7
ENDBRANCH   3   6
BRANCH   2  23
HETATM   23  C   UNL     1     -10.027   1.607 -33.978  1.00  0.00     0.043 A 
HETATM   24  C   UNL     1     -11.023   2.016 -34.878  1.00  0.00     0.033 A 
HETATM   25  C   UNL     1     -12.265   1.378 -34.877  1.00  0.00     0.044 A 
HETATM   26  C   UNL     1     -12.506   0.340 -33.984  1.00  0.00     0.116 A 
HETATM   27  F   UNL     1     -13.700  -0.262 -33.981  1.00  0.00    -0.206 F 
HETATM   28  C   UNL     1     -11.524  -0.081 -33.096  1.00  0.00     0.044 A 
HETATM   29  C   UNL     1     -10.277   0.549 -33.091  1.00  0.00     0.033 A 
ENDBRANCH   2  23
BRANCH   1  30
HETATM   30  C   UNL     1      -9.418   4.356 -32.575  1.00  0.00     0.255 C 
HETATM   31  C   UNL     1      -9.472   3.847 -31.133  1.00  0.00     0.049 C 
BRANCH  30  32
HETATM   32  N   UNL     1     -10.861   4.465 -33.124  1.00  0.00    -0.060 N 
HETATM   33  H   UNL     1     -10.967   3.673 -33.770  1.00  0.00     0.280 HD
HETATM   34  C   UNL     1     -11.894   4.278 -32.032  1.00  0.00     0.236 C 
HETATM   35  C   UNL     1     -13.274   4.134 -32.659  1.00  0.00     0.028 C 
HETATM   36  C   UNL     1     -13.617   5.319 -33.555  1.00  0.00     0.003 C 
HETATM   37  C   UNL     1     -12.526   5.564 -34.592  1.00  0.00     0.028 C 
HETATM   38  C   UNL     1     -11.159   5.718 -33.934  1.00  0.00     0.236 C 
ENDBRANCH  30  32
ENDBRANCH   1  30
TORSDOF 7
ENDMDL
MODEL 7
REMARK VINA RESULT:      -8.0      4.271      8.305
REMARK  7 active torsions:
REMARK  status: ('A' for Active; 'I' for Inactive)
REMARK    1  A    between atoms: C_2  and  N_3 
REMARK    2  A    between atoms: C_2  and  C_10 
REMARK    3  A    between atoms: N_11  and  C_12 
REMARK    4  A    between atoms: C_19  and  S_20 
REMARK    5  A    between atoms: S_20  and  C_21 
REMARK    6  A    between atoms: C_21  and  C_22 
REMARK    7  A    between atoms: C_21  and  C_28 
REMARK       I    between atoms: C_22  and  N_23 
REMARK       I    between atoms: N_23  and  C_24 
REMARK       I    between atoms: C_24  and  N_25 
ROOT
HETATM    1  C   UNL     1     -10.209   3.476 -32.625  1.00  0.00     0.166 A 
HETATM    2  N   UNL     1      -9.049   2.866 -32.150  1.00  0.00    -0.274 N 
HETATM    3  C   UNL     1      -8.889   3.401 -30.884  1.00  0.00     0.197 A 
HETATM    4  N   UNL     1      -9.830   4.284 -30.642  1.00  0.00    -0.122 NA
HETATM    5  N   UNL     1     -10.633   4.356 -31.739  1.00  0.00    -0.131 NA
ENDROOT
BRANCH   3   6
HETATM    6  S   UNL     1      -7.604   3.065 -29.778  1.00  0.00    -0.070 SA
BRANCH   6   7
HETATM    7  C   UNL     1      -6.124   3.506 -30.762  1.00  0.00     0.180 C 
BRANCH   7   8
HETATM    8  C   UNL     1      -5.343   4.637 -30.077  1.00  0.00     0.244 C 
HETATM    9  N   UNL     1      -5.641   4.826 -28.736  1.00  0.00    -0.278 N 
HETATM   10  C   UNL     1      -5.095   5.715 -27.858  1.00  0.00     0.320 C 
HETATM   11  H   UNL     1      -6.373   4.271 -28.315  1.00  0.00     0.173 HD
HETATM   12  N   UNL     1      -4.046   6.444 -28.292  1.00  0.00    -0.352 N 
HETATM   13  O   UNL     1      -5.529   5.828 -26.718  1.00  0.00    -0.247 OA
HETATM   14  H   UNL     1      -3.868   6.516 -29.288  1.00  0.00     0.160 HD
HETATM   15  H   UNL     1      -3.695   7.168 -27.683  1.00  0.00     0.160 HD
HETATM   16  O   UNL     1      -4.547   5.330 -30.718  1.00  0.00    -0.271 OA
ENDBRANCH   7   8
BRANCH   7  17
HETATM   17  C   UNL     1      -5.214   2.338 -31.140  1.00  0.00    -0.035 A 
HETATM   18  C   UNL     1      -5.192   1.104 -30.469  1.00  0.00     0.009 A 
HETATM   19  C   UNL     1      -4.307   0.092 -30.855  1.00  0.00     0.001 A 
HETATM   20  C   UNL     1      -3.423   0.298 -31.909  1.00  0.00     0.000 A 
HETATM   21  C   UNL     1      -3.422   1.513 -32.584  1.00  0.00     0.001 A 
HETATM   22  C   UNL     1      -4.311   2.523 -32.207  1.00  0.00     0.009 A 
ENDBRANCH   7  17
ENDBRANCH   6   7
ENDBRANCH   3   6
BRANCH   2  23
HETATM   23  C   UNL     1      -8.277   1.874 -32.805  1.00  0.00     0.043 A 
HETATM   24  C   UNL     1      -7.508   2.217 -33.928  1.00  0.00     0.033 A 
HETATM   25  C   UNL     1      -6.767   1.234 -34.589  1.00  0.00     0.044 A 
HETATM   26  C   UNL     1      -6.795  -0.077 -34.128  1.00  0.00     0.116 A 
HETATM   27  F   UNL     1      -6.090  -1.015 -34.770  1.00  0.00    -0.206 F 
HETATM   28  C   UNL     1      -7.544  -0.426 -33.011  1.00  0.00     0.044 A 
HETATM   29  C   UNL     1      -8.287   0.549 -32.342  1.00  0.00     0.033 A 
ENDBRANCH   2  23
BRANCH   1  30
HETATM   30  C   UNL     1     -10.983   3.091 -33.850  1.00  0.00     0.255 C 
HETATM   31  C   UNL     1     -11.422   4.324 -34.643  1.00  0.00     0.049 C 
BRANCH  30  32
HETATM   32  N   UNL     1     -12.222   2.206 -33.573  1.00  0.00    -0.060 N 
HETATM   33  H   UNL     1     -11.997   1.683 -32.718  1.00  0.00     0.280 HD
HETATM   34  C   UNL     1     -13.450   3.037 -33.265  1.00  0.00     0.236 C 
HETATM   35  C   UNL     1     -14.560   2.131 -32.749  1.00  0.00     0.028 C 
HETATM   36  C   UNL     1     -14.877   1.008 -33.731  1.00  0.00     0.003 C 
HETATM   37  C   UNL     1     -13.620   0.234 -34.114  1.00  0.00     0.028 C 
HETATM   38  C   UNL     1     -12.534   1.166 -34.639  1.00  0.00     0.236 C 
ENDBRANCH  30  32
ENDBRANCH   1  30
TORSDOF 7
ENDMDL
MODEL 8
REMARK VINA RESULT:      -7.8      4.145      8.140
REMARK  7 active torsions:
REMARK  status: ('A' for Active; 'I' for Inactive)
REMARK    1  A    between atoms: C_2  and  N_3 
REMARK    2  A    between atoms: C_2  and  C_10 
REMARK    3  A    between atoms: N_11  and  C_12 
REMARK    4  A    between atoms: C_19  and  S_20 
REMARK    5  A    between atoms: S_20  and  C_21 
REMARK    6  A    between atoms: C_21  and  C_22 
REMARK    7  A    between atoms: C_21  and  C_28 
REMARK       I    between atoms: C_22  and  N_23 
REMARK       I    between atoms: N_23  and  C_24 
REMARK       I    between atoms: C_24  and  N_25 
ROOT
HETATM    1  C   UNL     1      -7.691   3.699 -32.038  1.00  0.00     0.166 A 
HETATM    2  N   UNL     1      -6.399   3.692 -31.515  1.00  0.00    -0.274 N 
HETATM    3  C   UNL     1      -6.221   4.986 -31.058  1.00  0.00     0.197 A 
HETATM    4  N   UNL     1      -7.280   5.712 -31.327  1.00  0.00    -0.122 NA
HETATM    5  N   UNL     1      -8.183   4.920 -31.967  1.00  0.00    -0.131 NA
ENDROOT
BRANCH   3   6
HETATM    6  S   UNL     1      -4.797   5.631 -30.321  1.00  0.00    -0.070 SA
BRANCH   6   7
HETATM    7  C   UNL     1      -4.185   6.783 -31.606  1.00  0.00     0.180 C 
BRANCH   7   8
HETATM    8  C   UNL     1      -3.441   7.961 -30.960  1.00  0.00     0.244 C 
HETATM    9  N   UNL     1      -3.113   7.784 -29.625  1.00  0.00    -0.278 N 
HETATM   10  C   UNL     1      -2.428   8.624 -28.796  1.00  0.00     0.320 C 
HETATM   11  H   UNL     1      -3.424   6.947 -29.151  1.00  0.00     0.173 HD
HETATM   12  N   UNL     1      -1.889   9.730 -29.350  1.00  0.00    -0.352 N 
HETATM   13  O   UNL     1      -2.293   8.369 -27.605  1.00  0.00    -0.247 OA
HETATM   14  H   UNL     1      -2.216  10.042 -30.257  1.00  0.00     0.160 HD
HETATM   15  H   UNL     1      -1.460  10.403 -28.730  1.00  0.00     0.160 HD
HETATM   16  O   UNL     1      -3.208   8.987 -31.605  1.00  0.00    -0.271 OA
ENDBRANCH   7   8
BRANCH   7  17
HETATM   17  C   UNL     1      -3.368   6.143 -32.727  1.00  0.00    -0.035 A 
HETATM   18  C   UNL     1      -1.982   5.918 -32.665  1.00  0.00     0.009 A 
HETATM   19  C   UNL     1      -1.296   5.356 -33.746  1.00  0.00     0.001 A 
HETATM   20  C   UNL     1      -1.979   5.018 -34.910  1.00  0.00     0.000 A 
HETATM   21  C   UNL     1      -3.349   5.237 -34.997  1.00  0.00     0.001 A 
HETATM   22  C   UNL     1      -4.038   5.791 -33.915  1.00  0.00     0.009 A 
ENDBRANCH   7  17
ENDBRANCH   6   7
ENDBRANCH   3   6
BRANCH   2  23
HETATM   23  C   UNL     1      -5.523   2.581 -31.417  1.00  0.00     0.043 A 
HETATM   24  C   UNL     1      -5.626   1.705 -30.327  1.00  0.00     0.033 A 
HETATM   25  C   UNL     1      -4.747   0.625 -30.217  1.00  0.00     0.044 A 
HETATM   26  C   UNL     1      -3.776   0.426 -31.192  1.00  0.00     0.116 A 
HETATM   27  F   UNL     1      -2.931  -0.605 -31.078  1.00  0.00    -0.206 F 
HETATM   28  C   UNL     1      -3.671   1.280 -32.282  1.00  0.00     0.044 A 
HETATM   29  C   UNL     1      -4.547   2.362 -32.402  1.00  0.00     0.033 A 
ENDBRANCH   2  23
BRANCH   1  30
HETATM   30  C   UNL     1      -8.493   2.502 -32.451  1.00  0.00     0.255 C 
HETATM   31  C   UNL     1      -9.167   1.840 -31.247  1.00  0.00     0.049 C 
BRANCH  30  32
HETATM   32  N   UNL     1      -7.691   1.430 -33.229  1.00  0.00    -0.060 N 
HETATM   33  H   UNL     1      -6.711   1.734 -33.179  1.00  0.00     0.280 HD
HETATM   34  C   UNL     1      -7.762   0.075 -32.555  1.00  0.00     0.236 C 
HETATM   35  C   UNL     1      -6.757  -0.867 -33.205  1.00  0.00     0.028 C 
HETATM   36  C   UNL     1      -6.976  -0.979 -34.709  1.00  0.00     0.003 C 
HETATM   37  C   UNL     1      -7.000   0.395 -35.370  1.00  0.00     0.028 C 
HETATM   38  C   UNL     1      -8.025   1.310 -34.708  1.00  0.00     0.236 C 
ENDBRANCH  30  32
ENDBRANCH   1  30
TORSDOF 7
ENDMDL
MODEL 9
REMARK VINA RESULT:      -7.6      2.835      3.929
REMARK  7 active torsions:
REMARK  status: ('A' for Active; 'I' for Inactive)
REMARK    1  A    between atoms: C_2  and  N_3 
REMARK    2  A    between atoms: C_2  and  C_10 
REMARK    3  A    between atoms: N_11  and  C_12 
REMARK    4  A    between atoms: C_19  and  S_20 
REMARK    5  A    between atoms: S_20  and  C_21 
REMARK    6  A    between atoms: C_21  and  C_22 
REMARK    7  A    between atoms: C_21  and  C_28 
REMARK       I    between atoms: C_22  and  N_23 
REMARK       I    between atoms: N_23  and  C_24 
REMARK       I    between atoms: C_24  and  N_25 
ROOT
HETATM    1  C   UNL     1      -3.963   4.283 -31.396  1.00  0.00     0.166 A 
HETATM    2  N   UNL     1      -5.032   3.803 -30.640  1.00  0.00    -0.274 N 
HETATM    3  C   UNL     1      -4.926   2.429 -30.754  1.00  0.00     0.197 A 
HETATM    4  N   UNL     1      -3.926   2.114 -31.542  1.00  0.00    -0.122 NA
HETATM    5  N   UNL     1      -3.346   3.269 -31.970  1.00  0.00    -0.131 NA
ENDROOT
BRANCH   3   6
HETATM    6  S   UNL     1      -5.987   1.253 -30.061  1.00  0.00    -0.070 SA
BRANCH   6   7
HETATM    7  C   UNL     1      -7.008   0.760 -31.499  1.00  0.00     0.180 C 
BRANCH   7   8
HETATM    8  C   UNL     1      -7.484   2.001 -32.269  1.00  0.00     0.244 C 
HETATM    9  N   UNL     1      -6.541   2.561 -33.116  1.00  0.00    -0.278 N 
HETATM   10  C   UNL     1      -6.673   3.633 -33.950  1.00  0.00     0.320 C 
HETATM   11  H   UNL     1      -5.607   2.175 -33.133  1.00  0.00     0.173 HD
HETATM   12  N   UNL     1      -7.904   4.169 -34.072  1.00  0.00    -0.352 N 
HETATM   13  O   UNL     1      -5.714   4.072 -34.574  1.00  0.00    -0.247 OA
HETATM   14  H   UNL     1      -8.610   3.959 -33.376  1.00  0.00     0.160 HD
HETATM   15  H   UNL     1      -7.994   5.018 -34.613  1.00  0.00     0.160 HD
HETATM   16  O   UNL     1      -8.617   2.457 -32.089  1.00  0.00    -0.271 OA
ENDBRANCH   7   8
BRANCH   7  17
HETATM   17  C   UNL     1      -6.378  -0.276 -32.428  1.00  0.00    -0.035 A 
HETATM   18  C   UNL     1      -5.093  -0.817 -32.253  1.00  0.00     0.009 A 
HETATM   19  C   UNL     1      -4.571  -1.739 -33.166  1.00  0.00     0.001 A 
HETATM   20  C   UNL     1      -5.318  -2.129 -34.273  1.00  0.00     0.000 A 
HETATM   21  C   UNL     1      -6.590  -1.602 -34.470  1.00  0.00     0.001 A 
HETATM   22  C   UNL     1      -7.117  -0.688 -33.555  1.00  0.00     0.009 A 
ENDBRANCH   7  17
ENDBRANCH   6   7
ENDBRANCH   3   6
BRANCH   2  23
HETATM   23  C   UNL     1      -5.952   4.569 -29.879  1.00  0.00     0.043 A 
HETATM   24  C   UNL     1      -5.609   4.985 -28.583  1.00  0.00     0.033 A 
HETATM   25  C   UNL     1      -6.525   5.717 -27.824  1.00  0.00     0.044 A 
HETATM   26  C   UNL     1      -7.768   6.031 -28.359  1.00  0.00     0.116 A 
HETATM   27  F   UNL     1      -8.644   6.726 -27.624  1.00  0.00    -0.206 F 
HETATM   28  C   UNL     1      -8.115   5.635 -29.644  1.00  0.00     0.044 A 
HETATM   29  C   UNL     1      -7.205   4.904 -30.413  1.00  0.00     0.033 A 
ENDBRANCH   2  23
BRANCH   1  30
HETATM   30  C   UNL     1      -3.454   5.693 -31.427  1.00  0.00     0.255 C 
HETATM   31  C   UNL     1      -3.305   6.201 -32.863  1.00  0.00     0.049 C 
BRANCH  30  32
HETATM   32  N   UNL     1      -2.116   5.907 -30.678  1.00  0.00    -0.060 N 
HETATM   33  H   UNL     1      -1.962   5.043 -30.144  1.00  0.00     0.280 HD
HETATM   34  C   UNL     1      -0.950   6.041 -31.636  1.00  0.00     0.236 C 
HETATM   35  C   UNL     1       0.356   5.987 -30.855  1.00  0.00     0.028 C 
HETATM   36  C   UNL     1       0.407   7.047 -29.761  1.00  0.00     0.003 C 
HETATM   37  C   UNL     1      -0.818   6.971 -28.857  1.00  0.00     0.028 C 
HETATM   38  C   UNL     1      -2.109   7.042 -29.665  1.00  0.00     0.236 C 
ENDBRANCH  30  32
ENDBRANCH   1  30
TORSDOF 7
ENDMDL
MODEL 10
REMARK VINA RESULT:      -7.6      3.605      4.882
REMARK  7 active torsions:
REMARK  status: ('A' for Active; 'I' for Inactive)
REMARK    1  A    between atoms: C_2  and  N_3 
REMARK    2  A    between atoms: C_2  and  C_10 
REMARK    3  A    between atoms: N_11  and  C_12 
REMARK    4  A    between atoms: C_19  and  S_20 
REMARK    5  A    between atoms: S_20  and  C_21 
REMARK    6  A    between atoms: C_21  and  C_22 
REMARK    7  A    between atoms: C_21  and  C_28 
REMARK       I    between atoms: C_22  and  N_23 
REMARK       I    between atoms: N_23  and  C_24 
REMARK       I    between atoms: C_24  and  N_25 
ROOT
HETATM    1  C   UNL     1      -3.581   5.737 -33.363  1.00  0.00     0.166 A 
HETATM    2  N   UNL     1      -4.833   5.449 -32.822  1.00  0.00    -0.274 N 
HETATM    3  C   UNL     1      -5.539   4.918 -33.887  1.00  0.00     0.197 A 
HETATM    4  N   UNL     1      -4.802   4.933 -34.972  1.00  0.00    -0.122 NA
HETATM    5  N   UNL     1      -3.594   5.474 -34.655  1.00  0.00    -0.131 NA
ENDROOT
BRANCH   3   6
HETATM    6  S   UNL     1      -7.183   4.386 -33.870  1.00  0.00    -0.070 SA
BRANCH   6   7
HETATM    7  C   UNL     1      -7.089   2.874 -32.841  1.00  0.00     0.180 C 
BRANCH   7   8
HETATM    8  C   UNL     1      -8.243   2.843 -31.828  1.00  0.00     0.244 C 
HETATM    9  N   UNL     1      -8.609   4.080 -31.319  1.00  0.00    -0.278 N 
HETATM   10  C   UNL     1      -9.609   4.380 -30.441  1.00  0.00     0.320 C 
HETATM   11  H   UNL     1      -8.075   4.896 -31.586  1.00  0.00     0.173 HD
HETATM   12  N   UNL     1     -10.440   3.377 -30.090  1.00  0.00    -0.352 N 
HETATM   13  O   UNL     1      -9.753   5.517 -30.009  1.00  0.00    -0.247 OA
HETATM   14  H   UNL     1     -10.159   2.417 -30.255  1.00  0.00     0.160 HD
HETATM   15  H   UNL     1     -11.124   3.566 -29.371  1.00  0.00     0.160 HD
HETATM   16  O   UNL     1      -8.753   1.772 -31.488  1.00  0.00    -0.271 OA
ENDBRANCH   7   8
BRANCH   7  17
HETATM   17  C   UNL     1      -6.977   1.561 -33.612  1.00  0.00    -0.035 A 
HETATM   18  C   UNL     1      -7.857   1.167 -34.635  1.00  0.00     0.009 A 
HETATM   19  C   UNL     1      -7.709  -0.068 -35.274  1.00  0.00     0.001 A 
HETATM   20  C   UNL     1      -6.688  -0.935 -34.897  1.00  0.00     0.000 A 
HETATM   21  C   UNL     1      -5.810  -0.570 -33.883  1.00  0.00     0.001 A 
HETATM   22  C   UNL     1      -5.950   0.667 -33.249  1.00  0.00     0.009 A 
ENDBRANCH   7  17
ENDBRANCH   6   7
ENDBRANCH   3   6
BRANCH   2  23
HETATM   23  C   UNL     1      -5.236   5.605 -31.471  1.00  0.00     0.043 A 
HETATM   24  C   UNL     1      -5.043   4.556 -30.560  1.00  0.00     0.033 A 
HETATM   25  C   UNL     1      -5.463   4.699 -29.236  1.00  0.00     0.044 A 
HETATM   26  C   UNL     1      -6.068   5.883 -28.829  1.00  0.00     0.116 A 
HETATM   27  F   UNL     1      -6.476   6.011 -27.562  1.00  0.00    -0.206 F 
HETATM   28  C   UNL     1      -6.255   6.932 -29.719  1.00  0.00     0.044 A 
HETATM   29  C   UNL     1      -5.837   6.800 -31.046  1.00  0.00     0.033 A 
ENDBRANCH   2  23
BRANCH   1  30
HETATM   30  C   UNL     1      -2.344   6.108 -32.602  1.00  0.00     0.255 C 
HETATM   31  C   UNL     1      -1.665   4.873 -32.004  1.00  0.00     0.049 C 
BRANCH  30  32
HETATM   32  N   UNL     1      -2.570   7.149 -31.479  1.00  0.00    -0.060 N 
HETATM   33  H   UNL     1      -3.590   7.233 -31.387  1.00  0.00     0.280 HD
HETATM   34  C   UNL     1      -2.051   6.658 -30.143  1.00  0.00     0.236 C 
HETATM   35  C   UNL     1      -2.527   7.592 -29.039  1.00  0.00     0.028 C 
HETATM   36  C   UNL     1      -2.115   9.036 -29.302  1.00  0.00     0.003 C 
HETATM   37  C   UNL     1      -2.556   9.496 -30.688  1.00  0.00     0.028 C 
HETATM   38  C   UNL     1      -2.052   8.549 -31.772  1.00  0.00     0.236 C 
ENDBRANCH  30  32
ENDBRANCH   1  30
TORSDOF 7
ENDMDL
