MODEL 1
REMARK VINA RESULT:      -9.4      0.000      0.000
REMARK  4 active torsions:
REMARK  status: ('A' for Active; 'I' for Inactive)
REMARK    1  A    between atoms: C_2  and  C_3 
REMARK    2  A    between atoms: C_6  and  C_7 
REMARK       I    between atoms: C_7  and  N_8 
REMARK    3  A    between atoms: N_8  and  N_9 
REMARK       I    between atoms: N_9  and  C_10 
REMARK    4  A    between atoms: C_10  and  C_11 
ROOT
HETATM    1  N   UNL     1      -4.272   3.032 -32.715  1.00  0.00    -0.263 N 
HETATM    2  C   UNL     1      -4.729   1.804 -32.284  1.00  0.00     0.272 C 
HETATM    3  O   UNL     1      -4.468   1.352 -31.170  1.00  0.00    -0.266 OA
HETATM    4  H   UNL     1      -4.295   3.339 -33.686  1.00  0.00     0.190 HD
ENDROOT
BRANCH   1   5
HETATM    5  N   UNL     1      -3.407   3.744 -31.880  1.00  0.00    -0.263 N 
HETATM    6  C   UNL     1      -2.374   4.444 -32.466  1.00  0.00     0.270 C 
HETATM    7  O   UNL     1      -2.158   4.409 -33.677  1.00  0.00    -0.266 OA
HETATM    8  H   UNL     1      -3.705   3.853 -30.913  1.00  0.00     0.190 HD
BRANCH   6   9
HETATM    9  C   UNL     1      -1.539   5.284 -31.565  1.00  0.00     0.033 A 
HETATM   10  C   UNL     1      -0.139   5.256 -31.596  1.00  0.00     0.017 A 
HETATM   11  C   UNL     1       0.596   6.060 -30.721  1.00  0.00     0.008 A 
HETATM   12  C   UNL     1      -0.054   6.900 -29.808  1.00  0.00    -0.059 A 
HETATM   13  C   UNL     1      -1.454   6.942 -29.796  1.00  0.00     0.008 A 
HETATM   14  C   UNL     1      -2.191   6.141 -30.671  1.00  0.00     0.017 A 
BRANCH  12  15
HETATM   15  C   UNL     1       0.741   7.777 -28.873  1.00  0.00     0.034 C 
HETATM   16  C   UNL     1       0.975   7.105 -27.529  1.00  0.00     0.010 C 
ENDBRANCH  12  15
ENDBRANCH   6   9
ENDBRANCH   1   5
BRANCH   2  17
HETATM   17  C   UNL     1      -5.530   1.016 -33.261  1.00  0.00     0.061 A 
HETATM   18  C   UNL     1      -5.251  -0.351 -33.445  1.00  0.00     0.059 A 
HETATM   19  C   UNL     1      -5.934  -1.149 -34.360  1.00  0.00    -0.001 A 
HETATM   20  N   UNL     1      -4.320  -1.155 -32.827  1.00  0.00    -0.358 N 
HETATM   21  C   UNL     1      -5.366  -2.464 -34.293  1.00  0.00    -0.027 A 
HETATM   22  C   UNL     1      -6.966  -0.562 -35.121  1.00  0.00     0.014 A 
HETATM   23  C   UNL     1      -5.765  -3.649 -35.101  1.00  0.00     0.051 C 
HETATM   24  C   UNL     1      -4.365  -2.428 -33.334  1.00  0.00     0.012 A 
HETATM   25  C   UNL     1      -3.439  -3.477 -32.838  1.00  0.00     0.068 C 
HETATM   26  C   UNL     1      -7.283   0.789 -34.936  1.00  0.00     0.002 A 
HETATM   27  C   UNL     1      -6.576   1.566 -34.019  1.00  0.00     0.019 A 
HETATM   28  H   UNL     1      -3.704  -0.823 -32.093  1.00  0.00     0.166 HD
ENDBRANCH   2  17
TORSDOF 4
ENDMDL
MODEL 2
REMARK VINA RESULT:      -8.8      1.542      9.343
REMARK  4 active torsions:
REMARK  status: ('A' for Active; 'I' for Inactive)
REMARK    1  A    between atoms: C_2  and  C_3 
REMARK    2  A    between atoms: C_6  and  C_7 
REMARK       I    between atoms: C_7  and  N_8 
REMARK    3  A    between atoms: N_8  and  N_9 
REMARK       I    between atoms: N_9  and  C_10 
REMARK    4  A    between atoms: C_10  and  C_11 
ROOT
HETATM    1  N   UNL     1      -2.823   3.182 -31.481  1.00  0.00    -0.263 N 
HETATM    2  C   UNL     1      -2.473   4.354 -32.118  1.00  0.00     0.272 C 
HETATM    3  O   UNL     1      -2.853   4.630 -33.255  1.00  0.00    -0.266 OA
HETATM    4  H   UNL     1      -2.366   2.835 -30.639  1.00  0.00     0.190 HD
ENDROOT
BRANCH   1   5
HETATM    5  N   UNL     1      -3.566   2.239 -32.195  1.00  0.00    -0.263 N 
HETATM    6  C   UNL     1      -3.420   0.911 -31.856  1.00  0.00     0.270 C 
HETATM    7  O   UNL     1      -2.621   0.534 -30.999  1.00  0.00    -0.266 OA
HETATM    8  H   UNL     1      -4.304   2.607 -32.791  1.00  0.00     0.190 HD
BRANCH   6   9
HETATM    9  C   UNL     1      -4.306  -0.059 -32.554  1.00  0.00     0.033 A 
HETATM   10  C   UNL     1      -3.808  -1.183 -33.224  1.00  0.00     0.017 A 
HETATM   11  C   UNL     1      -4.686  -2.057 -33.871  1.00  0.00     0.008 A 
HETATM   12  C   UNL     1      -6.067  -1.823 -33.856  1.00  0.00    -0.059 A 
HETATM   13  C   UNL     1      -6.562  -0.710 -33.165  1.00  0.00     0.008 A 
HETATM   14  C   UNL     1      -5.688   0.164 -32.516  1.00  0.00     0.017 A 
BRANCH  12  15
HETATM   15  C   UNL     1      -7.014  -2.775 -34.543  1.00  0.00     0.034 C 
HETATM   16  C   UNL     1      -6.315  -4.055 -34.974  1.00  0.00     0.010 C 
ENDBRANCH  12  15
ENDBRANCH   6   9
ENDBRANCH   1   5
BRANCH   2  17
HETATM   17  C   UNL     1      -1.562   5.267 -31.373  1.00  0.00     0.061 A 
HETATM   18  C   UNL     1      -2.084   6.096 -30.364  1.00  0.00     0.059 A 
HETATM   19  C   UNL     1      -1.304   6.998 -29.643  1.00  0.00    -0.001 A 
HETATM   20  N   UNL     1      -3.371   6.212 -29.891  1.00  0.00    -0.358 N 
HETATM   21  C   UNL     1      -2.171   7.684 -28.730  1.00  0.00    -0.027 A 
HETATM   22  C   UNL     1       0.076   7.064 -29.926  1.00  0.00     0.014 A 
HETATM   23  C   UNL     1      -1.784   8.750 -27.765  1.00  0.00     0.051 C 
HETATM   24  C   UNL     1      -3.446   7.173 -28.916  1.00  0.00     0.012 A 
HETATM   25  C   UNL     1      -4.741   7.495 -28.263  1.00  0.00     0.068 C 
HETATM   26  C   UNL     1       0.625   6.229 -30.905  1.00  0.00     0.002 A 
HETATM   27  C   UNL     1      -0.182   5.342 -31.618  1.00  0.00     0.019 A 
HETATM   28  H   UNL     1      -4.138   5.643 -30.231  1.00  0.00     0.166 HD
ENDBRANCH   2  17
TORSDOF 4
ENDMDL
MODEL 3
REMARK VINA RESULT:      -8.8      1.518      9.062
REMARK  4 active torsions:
REMARK  status: ('A' for Active; 'I' for Inactive)
REMARK    1  A    between atoms: C_2  and  C_3 
REMARK    2  A    between atoms: C_6  and  C_7 
REMARK       I    between atoms: C_7  and  N_8 
REMARK    3  A    between atoms: N_8  and  N_9 
REMARK       I    between atoms: N_9  and  C_10 
REMARK    4  A    between atoms: C_10  and  C_11 
ROOT
HETATM    1  N   UNL     1      -4.511   3.837 -31.901  1.00  0.00    -0.263 N 
HETATM    2  C   UNL     1      -3.227   4.247 -32.193  1.00  0.00     0.272 C 
HETATM    3  O   UNL     1      -2.411   3.522 -32.761  1.00  0.00    -0.266 OA
HETATM    4  H   UNL     1      -5.133   4.328 -31.260  1.00  0.00     0.190 HD
ENDROOT
BRANCH   1   5
HETATM    5  N   UNL     1      -4.863   2.516 -32.189  1.00  0.00    -0.263 N 
HETATM    6  C   UNL     1      -5.712   2.292 -33.253  1.00  0.00     0.270 C 
HETATM    7  O   UNL     1      -6.208   3.209 -33.905  1.00  0.00    -0.266 OA
HETATM    8  H   UNL     1      -4.326   1.795 -31.714  1.00  0.00     0.190 HD
BRANCH   6   9
HETATM    9  C   UNL     1      -5.979   0.871 -33.606  1.00  0.00     0.033 A 
HETATM   10  C   UNL     1      -5.347  -0.196 -32.955  1.00  0.00     0.017 A 
HETATM   11  C   UNL     1      -5.630  -1.511 -33.333  1.00  0.00     0.008 A 
HETATM   12  C   UNL     1      -6.544  -1.778 -34.360  1.00  0.00    -0.059 A 
HETATM   13  C   UNL     1      -7.192  -0.708 -34.992  1.00  0.00     0.008 A 
HETATM   14  C   UNL     1      -6.913   0.607 -34.615  1.00  0.00     0.017 A 
BRANCH  12  15
HETATM   15  C   UNL     1      -6.857  -3.199 -34.757  1.00  0.00     0.034 C 
HETATM   16  C   UNL     1      -5.595  -4.025 -34.950  1.00  0.00     0.010 C 
ENDBRANCH  12  15
ENDBRANCH   6   9
ENDBRANCH   1   5
BRANCH   2  17
HETATM   17  C   UNL     1      -2.850   5.615 -31.741  1.00  0.00     0.061 A 
HETATM   18  C   UNL     1      -1.708   5.790 -30.938  1.00  0.00     0.059 A 
HETATM   19  C   UNL     1      -1.306   7.032 -30.450  1.00  0.00    -0.001 A 
HETATM   20  N   UNL     1      -0.799   4.865 -30.478  1.00  0.00    -0.358 N 
HETATM   21  C   UNL     1      -0.131   6.822 -29.655  1.00  0.00    -0.027 A 
HETATM   22  C   UNL     1      -2.069   8.166 -30.796  1.00  0.00     0.014 A 
HETATM   23  C   UNL     1       0.643   7.860 -28.920  1.00  0.00     0.051 C 
HETATM   24  C   UNL     1       0.151   5.465 -29.693  1.00  0.00     0.012 A 
HETATM   25  C   UNL     1       1.233   4.667 -29.062  1.00  0.00     0.068 C 
HETATM   26  C   UNL     1      -3.192   8.023 -31.618  1.00  0.00     0.002 A 
HETATM   27  C   UNL     1      -3.577   6.766 -32.085  1.00  0.00     0.019 A 
HETATM   28  H   UNL     1      -0.846   3.880 -30.713  1.00  0.00     0.166 HD
ENDBRANCH   2  17
TORSDOF 4
ENDMDL
MODEL 4
REMARK VINA RESULT:      -8.5      1.859      3.091
REMARK  4 active torsions:
REMARK  status: ('A' for Active; 'I' for Inactive)
REMARK    1  A    between atoms: C_2  and  C_3 
REMARK    2  A    between atoms: C_6  and  C_7 
REMARK       I    between atoms: C_7  and  N_8 
REMARK    3  A    between atoms: N_8  and  N_9 
REMARK       I    between atoms: N_9  and  C_10 
REMARK    4  A    between atoms: C_10  and  C_11 
ROOT
HETATM    1  N   UNL     1      -3.038   3.052 -31.760  1.00  0.00    -0.263 N 
HETATM    2  C   UNL     1      -4.071   2.203 -31.425  1.00  0.00     0.272 C 
HETATM    3  O   UNL     1      -5.055   2.575 -30.787  1.00  0.00    -0.266 OA
HETATM    4  H   UNL     1      -2.130   2.736 -32.101  1.00  0.00     0.190 HD
ENDROOT
BRANCH   1   5
HETATM    5  N   UNL     1      -3.077   4.362 -31.278  1.00  0.00    -0.263 N 
HETATM    6  C   UNL     1      -1.915   5.104 -31.330  1.00  0.00     0.270 C 
HETATM    7  O   UNL     1      -0.850   4.633 -31.726  1.00  0.00    -0.266 OA
HETATM    8  H   UNL     1      -4.001   4.745 -31.092  1.00  0.00     0.190 HD
BRANCH   6   9
HETATM    9  C   UNL     1      -2.014   6.530 -30.916  1.00  0.00     0.033 A 
HETATM   10  C   UNL     1      -2.396   7.544 -31.802  1.00  0.00     0.017 A 
HETATM   11  C   UNL     1      -2.464   8.869 -31.361  1.00  0.00     0.008 A 
HETATM   12  C   UNL     1      -2.155   9.197 -30.034  1.00  0.00    -0.059 A 
HETATM   13  C   UNL     1      -1.796   8.175 -29.146  1.00  0.00     0.008 A 
HETATM   14  C   UNL     1      -1.729   6.850 -29.583  1.00  0.00     0.017 A 
BRANCH  12  15
HETATM   15  C   UNL     1      -2.242  10.625 -29.557  1.00  0.00     0.034 C 
HETATM   16  C   UNL     1      -1.676  10.789 -28.155  1.00  0.00     0.010 C 
ENDBRANCH  12  15
ENDBRANCH   6   9
ENDBRANCH   1   5
BRANCH   2  17
HETATM   17  C   UNL     1      -3.921   0.780 -31.838  1.00  0.00     0.061 A 
HETATM   18  C   UNL     1      -4.786   0.244 -32.809  1.00  0.00     0.059 A 
HETATM   19  C   UNL     1      -4.729  -1.084 -33.227  1.00  0.00    -0.001 A 
HETATM   20  N   UNL     1      -5.805   0.842 -33.513  1.00  0.00    -0.358 N 
HETATM   21  C   UNL     1      -5.769  -1.277 -34.194  1.00  0.00    -0.027 A 
HETATM   22  C   UNL     1      -3.744  -1.921 -32.663  1.00  0.00     0.014 A 
HETATM   23  C   UNL     1      -6.101  -2.542 -34.905  1.00  0.00     0.051 C 
HETATM   24  C   UNL     1      -6.419  -0.060 -34.342  1.00  0.00     0.012 A 
HETATM   25  C   UNL     1      -7.566   0.345 -35.194  1.00  0.00     0.068 C 
HETATM   26  C   UNL     1      -2.852  -1.405 -31.716  1.00  0.00     0.002 A 
HETATM   27  C   UNL     1      -2.938  -0.073 -31.310  1.00  0.00     0.019 A 
HETATM   28  H   UNL     1      -6.042   1.824 -33.416  1.00  0.00     0.166 HD
ENDBRANCH   2  17
TORSDOF 4
ENDMDL
MODEL 5
REMARK VINA RESULT:      -8.2      6.185      9.506
REMARK  4 active torsions:
REMARK  status: ('A' for Active; 'I' for Inactive)
REMARK    1  A    between atoms: C_2  and  C_3 
REMARK    2  A    between atoms: C_6  and  C_7 
REMARK       I    between atoms: C_7  and  N_8 
REMARK    3  A    between atoms: N_8  and  N_9 
REMARK       I    between atoms: N_9  and  C_10 
REMARK    4  A    between atoms: C_10  and  C_11 
ROOT
HETATM    1  N   UNL     1      -8.917   1.978 -34.578  1.00  0.00    -0.263 N 
HETATM    2  C   UNL     1      -9.842   2.193 -33.578  1.00  0.00     0.272 C 
HETATM    3  O   UNL     1     -10.109   1.345 -32.727  1.00  0.00    -0.266 OA
HETATM    4  H   UNL     1      -8.825   2.567 -35.404  1.00  0.00     0.190 HD
ENDROOT
BRANCH   1   5
HETATM    5  N   UNL     1      -8.328   0.714 -34.671  1.00  0.00    -0.263 N 
HETATM    6  C   UNL     1      -6.987   0.603 -34.370  1.00  0.00     0.270 C 
HETATM    7  O   UNL     1      -6.293   1.578 -34.086  1.00  0.00    -0.266 OA
HETATM    8  H   UNL     1      -8.966  -0.072 -34.774  1.00  0.00     0.190 HD
BRANCH   6   9
HETATM    9  C   UNL     1      -6.414  -0.770 -34.368  1.00  0.00     0.033 A 
HETATM   10  C   UNL     1      -5.130  -1.047 -33.885  1.00  0.00     0.017 A 
HETATM   11  C   UNL     1      -4.638  -2.355 -33.914  1.00  0.00     0.008 A 
HETATM   12  C   UNL     1      -5.420  -3.400 -34.423  1.00  0.00    -0.059 A 
HETATM   13  C   UNL     1      -6.713  -3.122 -34.884  1.00  0.00     0.008 A 
HETATM   14  C   UNL     1      -7.208  -1.817 -34.854  1.00  0.00     0.017 A 
BRANCH  12  15
HETATM   15  C   UNL     1      -4.892  -4.813 -34.441  1.00  0.00     0.034 C 
HETATM   16  C   UNL     1      -3.564  -4.931 -33.711  1.00  0.00     0.010 C 
ENDBRANCH  12  15
ENDBRANCH   6   9
ENDBRANCH   1   5
BRANCH   2  17
HETATM   17  C   UNL     1     -10.549   3.503 -33.601  1.00  0.00     0.061 A 
HETATM   18  C   UNL     1     -11.891   3.575 -33.182  1.00  0.00     0.059 A 
HETATM   19  C   UNL     1     -12.630   4.756 -33.203  1.00  0.00    -0.001 A 
HETATM   20  N   UNL     1     -12.722   2.590 -32.702  1.00  0.00    -0.358 N 
HETATM   21  C   UNL     1     -13.951   4.445 -32.738  1.00  0.00    -0.027 A 
HETATM   22  C   UNL     1     -11.995   5.935 -33.643  1.00  0.00     0.014 A 
HETATM   23  C   UNL     1     -15.093   5.391 -32.604  1.00  0.00     0.051 C 
HETATM   24  C   UNL     1     -13.971   3.091 -32.441  1.00  0.00     0.012 A 
HETATM   25  C   UNL     1     -15.052   2.211 -31.930  1.00  0.00     0.068 C 
HETATM   26  C   UNL     1     -10.653   5.897 -34.037  1.00  0.00     0.002 A 
HETATM   27  C   UNL     1      -9.940   4.698 -34.015  1.00  0.00     0.019 A 
HETATM   28  H   UNL     1     -12.419   1.632 -32.561  1.00  0.00     0.166 HD
ENDBRANCH   2  17
TORSDOF 4
ENDMDL
MODEL 6
REMARK VINA RESULT:      -8.1      1.570      2.377
REMARK  4 active torsions:
REMARK  status: ('A' for Active; 'I' for Inactive)
REMARK    1  A    between atoms: C_2  and  C_3 
REMARK    2  A    between atoms: C_6  and  C_7 
REMARK       I    between atoms: C_7  and  N_8 
REMARK    3  A    between atoms: N_8  and  N_9 
REMARK       I    between atoms: N_9  and  C_10 
REMARK    4  A    between atoms: C_10  and  C_11 
ROOT
HETATM    1  N   UNL     1      -3.954   4.327 -31.104  1.00  0.00    -0.263 N 
HETATM    2  C   UNL     1      -3.817   3.538 -32.227  1.00  0.00     0.272 C 
HETATM    3  O   UNL     1      -2.725   3.299 -32.742  1.00  0.00    -0.266 OA
HETATM    4  H   UNL     1      -4.842   4.707 -30.781  1.00  0.00     0.190 HD
ENDROOT
BRANCH   1   5
HETATM    5  N   UNL     1      -2.811   4.945 -30.589  1.00  0.00    -0.263 N 
HETATM    6  C   UNL     1      -2.845   6.311 -30.402  1.00  0.00     0.270 C 
HETATM    7  O   UNL     1      -3.813   6.996 -30.729  1.00  0.00    -0.266 OA
HETATM    8  H   UNL     1      -2.098   4.326 -30.211  1.00  0.00     0.190 HD
BRANCH   6   9
HETATM    9  C   UNL     1      -1.659   6.925 -29.747  1.00  0.00     0.033 A 
HETATM   10  C   UNL     1      -0.351   6.689 -30.188  1.00  0.00     0.017 A 
HETATM   11  C   UNL     1       0.727   7.286 -29.530  1.00  0.00     0.008 A 
HETATM   12  C   UNL     1       0.516   8.125 -28.428  1.00  0.00    -0.059 A 
HETATM   13  C   UNL     1      -0.795   8.377 -28.005  1.00  0.00     0.008 A 
HETATM   14  C   UNL     1      -1.875   7.784 -28.662  1.00  0.00     0.017 A 
BRANCH  12  15
HETATM   15  C   UNL     1       1.681   8.778 -27.728  1.00  0.00     0.034 C 
HETATM   16  C   UNL     1       1.914   8.188 -26.346  1.00  0.00     0.010 C 
ENDBRANCH  12  15
ENDBRANCH   6   9
ENDBRANCH   1   5
BRANCH   2  17
HETATM   17  C   UNL     1      -5.075   3.016 -32.827  1.00  0.00     0.061 A 
HETATM   18  C   UNL     1      -5.211   1.636 -33.064  1.00  0.00     0.059 A 
HETATM   19  C   UNL     1      -6.344   1.074 -33.649  1.00  0.00    -0.001 A 
HETATM   20  N   UNL     1      -4.339   0.604 -32.805  1.00  0.00    -0.358 N 
HETATM   21  C   UNL     1      -6.117  -0.338 -33.759  1.00  0.00    -0.027 A 
HETATM   22  C   UNL     1      -7.410   1.928 -34.000  1.00  0.00     0.014 A 
HETATM   23  C   UNL     1      -7.046  -1.347 -34.337  1.00  0.00     0.051 C 
HETATM   24  C   UNL     1      -4.861  -0.591 -33.229  1.00  0.00     0.012 A 
HETATM   25  C   UNL     1      -4.094  -1.853 -33.075  1.00  0.00     0.068 C 
HETATM   26  C   UNL     1      -7.312   3.301 -33.747  1.00  0.00     0.002 A 
HETATM   27  C   UNL     1      -6.162   3.837 -33.168  1.00  0.00     0.019 A 
HETATM   28  H   UNL     1      -3.442   0.739 -32.353  1.00  0.00     0.166 HD
ENDBRANCH   2  17
TORSDOF 4
ENDMDL
MODEL 7
REMARK VINA RESULT:      -8.1      1.794      9.045
REMARK  4 active torsions:
REMARK  status: ('A' for Active; 'I' for Inactive)
REMARK    1  A    between atoms: C_2  and  C_3 
REMARK    2  A    between atoms: C_6  and  C_7 
REMARK       I    between atoms: C_7  and  N_8 
REMARK    3  A    between atoms: N_8  and  N_9 
REMARK       I    between atoms: N_9  and  C_10 
REMARK    4  A    between atoms: C_10  and  C_11 
ROOT
HETATM    1  N   UNL     1      -4.030   4.731 -30.930  1.00  0.00    -0.263 N 
HETATM    2  C   UNL     1      -3.596   5.831 -31.639  1.00  0.00     0.272 C 
HETATM    3  O   UNL     1      -3.654   5.894 -32.867  1.00  0.00    -0.266 OA
HETATM    4  H   UNL     1      -3.810   4.564 -29.949  1.00  0.00     0.190 HD
ENDROOT
BRANCH   1   5
HETATM    5  N   UNL     1      -4.471   3.616 -31.646  1.00  0.00    -0.263 N 
HETATM    6  C   UNL     1      -3.641   2.516 -31.704  1.00  0.00     0.270 C 
HETATM    7  O   UNL     1      -2.517   2.512 -31.203  1.00  0.00    -0.266 OA
HETATM    8  H   UNL     1      -5.450   3.617 -31.922  1.00  0.00     0.190 HD
BRANCH   6   9
HETATM    9  C   UNL     1      -4.183   1.304 -32.376  1.00  0.00     0.033 A 
HETATM   10  C   UNL     1      -5.472   1.261 -32.920  1.00  0.00     0.017 A 
HETATM   11  C   UNL     1      -5.933   0.093 -33.533  1.00  0.00     0.008 A 
HETATM   12  C   UNL     1      -5.116  -1.042 -33.613  1.00  0.00    -0.059 A 
HETATM   13  C   UNL     1      -3.818  -0.986 -33.088  1.00  0.00     0.008 A 
HETATM   14  C   UNL     1      -3.354   0.180 -32.477  1.00  0.00     0.017 A 
BRANCH  12  15
HETATM   15  C   UNL     1      -5.611  -2.297 -34.287  1.00  0.00     0.034 C 
HETATM   16  C   UNL     1      -7.117  -2.271 -34.497  1.00  0.00     0.010 C 
ENDBRANCH  12  15
ENDBRANCH   6   9
ENDBRANCH   1   5
BRANCH   2  17
HETATM   17  C   UNL     1      -3.001   6.940 -30.843  1.00  0.00     0.061 A 
HETATM   18  C   UNL     1      -1.770   6.744 -30.191  1.00  0.00     0.059 A 
HETATM   19  C   UNL     1      -1.164   7.721 -29.404  1.00  0.00    -0.001 A 
HETATM   20  N   UNL     1      -0.946   5.643 -30.170  1.00  0.00    -0.358 N 
HETATM   21  C   UNL     1       0.050   7.162 -28.883  1.00  0.00    -0.027 A 
HETATM   22  C   UNL     1      -1.806   8.969 -29.274  1.00  0.00     0.014 A 
HETATM   23  C   UNL     1       1.022   7.833 -27.977  1.00  0.00     0.051 C 
HETATM   24  C   UNL     1       0.149   5.870 -29.376  1.00  0.00     0.012 A 
HETATM   25  C   UNL     1       1.178   4.818 -29.180  1.00  0.00     0.068 C 
HETATM   26  C   UNL     1      -3.017   9.200 -29.937  1.00  0.00     0.002 A 
HETATM   27  C   UNL     1      -3.606   8.201 -30.711  1.00  0.00     0.019 A 
HETATM   28  H   UNL     1      -1.143   4.794 -30.689  1.00  0.00     0.166 HD
ENDBRANCH   2  17
TORSDOF 4
ENDMDL
MODEL 8
REMARK VINA RESULT:      -8.1      4.995      7.838
REMARK  4 active torsions:
REMARK  status: ('A' for Active; 'I' for Inactive)
REMARK    1  A    between atoms: C_2  and  C_3 
REMARK    2  A    between atoms: C_6  and  C_7 
REMARK       I    between atoms: C_7  and  N_8 
REMARK    3  A    between atoms: N_8  and  N_9 
REMARK       I    between atoms: N_9  and  C_10 
REMARK    4  A    between atoms: C_10  and  C_11 
ROOT
HETATM    1  N   UNL     1      -7.449   1.329 -33.160  1.00  0.00    -0.263 N 
HETATM    2  C   UNL     1      -6.650   0.726 -34.108  1.00  0.00     0.272 C 
HETATM    3  O   UNL     1      -6.890   0.784 -35.313  1.00  0.00    -0.266 OA
HETATM    4  H   UNL     1      -7.397   1.130 -32.162  1.00  0.00     0.190 HD
ENDROOT
BRANCH   1   5
HETATM    5  N   UNL     1      -8.623   1.955 -33.588  1.00  0.00    -0.263 N 
HETATM    6  C   UNL     1      -8.599   3.324 -33.758  1.00  0.00     0.270 C 
HETATM    7  O   UNL     1      -7.610   4.004 -33.488  1.00  0.00    -0.266 OA
HETATM    8  H   UNL     1      -9.361   1.343 -33.925  1.00  0.00     0.190 HD
BRANCH   6   9
HETATM    9  C   UNL     1      -9.826   3.949 -34.322  1.00  0.00     0.033 A 
HETATM   10  C   UNL     1     -10.948   3.198 -34.693  1.00  0.00     0.017 A 
HETATM   11  C   UNL     1     -12.071   3.836 -35.226  1.00  0.00     0.008 A 
HETATM   12  C   UNL     1     -12.090   5.227 -35.394  1.00  0.00    -0.059 A 
HETATM   13  C   UNL     1     -10.974   5.976 -34.999  1.00  0.00     0.008 A 
HETATM   14  C   UNL     1      -9.851   5.341 -34.464  1.00  0.00     0.017 A 
BRANCH  12  15
HETATM   15  C   UNL     1     -13.308   5.914 -35.957  1.00  0.00     0.034 C 
HETATM   16  C   UNL     1     -13.040   7.380 -36.264  1.00  0.00     0.010 C 
ENDBRANCH  12  15
ENDBRANCH   6   9
ENDBRANCH   1   5
BRANCH   2  17
HETATM   17  C   UNL     1      -5.487  -0.051 -33.596  1.00  0.00     0.061 A 
HETATM   18  C   UNL     1      -5.366  -1.414 -33.922  1.00  0.00     0.059 A 
HETATM   19  C   UNL     1      -4.325  -2.216 -33.458  1.00  0.00    -0.001 A 
HETATM   20  N   UNL     1      -6.173  -2.213 -34.699  1.00  0.00    -0.358 N 
HETATM   21  C   UNL     1      -4.544  -3.540 -33.964  1.00  0.00    -0.027 A 
HETATM   22  C   UNL     1      -3.338  -1.626 -32.643  1.00  0.00     0.014 A 
HETATM   23  C   UNL     1      -3.695  -4.739 -33.717  1.00  0.00     0.051 C 
HETATM   24  C   UNL     1      -5.701  -3.500 -34.726  1.00  0.00     0.012 A 
HETATM   25  C   UNL     1      -6.416  -4.557 -35.487  1.00  0.00     0.068 C 
HETATM   26  C   UNL     1      -3.419  -0.265 -32.329  1.00  0.00     0.002 A 
HETATM   27  C   UNL     1      -4.477   0.512 -32.799  1.00  0.00     0.019 A 
HETATM   28  H   UNL     1      -6.994  -1.866 -35.183  1.00  0.00     0.166 HD
ENDBRANCH   2  17
TORSDOF 4
ENDMDL
MODEL 9
REMARK VINA RESULT:      -8.0      1.765      3.039
REMARK  4 active torsions:
REMARK  status: ('A' for Active; 'I' for Inactive)
REMARK    1  A    between atoms: C_2  and  C_3 
REMARK    2  A    between atoms: C_6  and  C_7 
REMARK       I    between atoms: C_7  and  N_8 
REMARK    3  A    between atoms: N_8  and  N_9 
REMARK       I    between atoms: N_9  and  C_10 
REMARK    4  A    between atoms: C_10  and  C_11 
ROOT
HETATM    1  N   UNL     1      -4.052   2.646 -32.028  1.00  0.00    -0.263 N 
HETATM    2  C   UNL     1      -4.228   1.331 -31.656  1.00  0.00     0.272 C 
HETATM    3  O   UNL     1      -3.595   0.810 -30.738  1.00  0.00    -0.266 OA
HETATM    4  H   UNL     1      -4.401   3.042 -32.900  1.00  0.00     0.190 HD
ENDROOT
BRANCH   1   5
HETATM    5  N   UNL     1      -3.052   3.385 -31.390  1.00  0.00    -0.263 N 
HETATM    6  C   UNL     1      -2.717   4.612 -31.923  1.00  0.00     0.270 C 
HETATM    7  O   UNL     1      -3.220   5.039 -32.961  1.00  0.00    -0.266 OA
HETATM    8  H   UNL     1      -2.768   3.056 -30.471  1.00  0.00     0.190 HD
BRANCH   6   9
HETATM    9  C   UNL     1      -1.731   5.425 -31.160  1.00  0.00     0.033 A 
HETATM   10  C   UNL     1      -0.350   5.313 -31.361  1.00  0.00     0.017 A 
HETATM   11  C   UNL     1       0.531   6.097 -30.610  1.00  0.00     0.008 A 
HETATM   12  C   UNL     1       0.047   6.999 -29.654  1.00  0.00    -0.059 A 
HETATM   13  C   UNL     1      -1.337   7.124 -29.474  1.00  0.00     0.008 A 
HETATM   14  C   UNL     1      -2.219   6.345 -30.224  1.00  0.00     0.017 A 
BRANCH  12  15
HETATM   15  C   UNL     1       0.999   7.852 -28.854  1.00  0.00     0.034 C 
HETATM   16  C   UNL     1       0.272   8.686 -27.811  1.00  0.00     0.010 C 
ENDBRANCH  12  15
ENDBRANCH   6   9
ENDBRANCH   1   5
BRANCH   2  17
HETATM   17  C   UNL     1      -5.203   0.540 -32.456  1.00  0.00     0.061 A 
HETATM   18  C   UNL     1      -6.579   0.801 -32.329  1.00  0.00     0.059 A 
HETATM   19  C   UNL     1      -7.555   0.086 -33.020  1.00  0.00    -0.001 A 
HETATM   20  N   UNL     1      -7.235   1.734 -31.559  1.00  0.00    -0.358 N 
HETATM   21  C   UNL     1      -8.832   0.604 -32.622  1.00  0.00    -0.027 A 
HETATM   22  C   UNL     1      -7.139  -0.931 -33.903  1.00  0.00     0.014 A 
HETATM   23  C   UNL     1     -10.166   0.137 -33.089  1.00  0.00     0.051 C 
HETATM   24  C   UNL     1      -8.593   1.622 -31.712  1.00  0.00     0.012 A 
HETATM   25  C   UNL     1      -9.519   2.512 -30.965  1.00  0.00     0.068 C 
HETATM   26  C   UNL     1      -5.774  -1.191 -34.071  1.00  0.00     0.002 A 
HETATM   27  C   UNL     1      -4.820  -0.465 -33.359  1.00  0.00     0.019 A 
HETATM   28  H   UNL     1      -6.752   2.407 -30.974  1.00  0.00     0.166 HD
ENDBRANCH   2  17
TORSDOF 4
ENDMDL
MODEL 10
REMARK VINA RESULT:      -7.8      5.574      9.799
REMARK  4 active torsions:
REMARK  status: ('A' for Active; 'I' for Inactive)
REMARK    1  A    between atoms: C_2  and  C_3 
REMARK    2  A    between atoms: C_6  and  C_7 
REMARK       I    between atoms: C_7  and  N_8 
REMARK    3  A    between atoms: N_8  and  N_9 
REMARK       I    between atoms: N_9  and  C_10 
REMARK    4  A    between atoms: C_10  and  C_11 
ROOT
HETATM    1  N   UNL     1      -9.569   0.377 -33.388  1.00  0.00    -0.263 N 
HETATM    2  C   UNL     1      -8.691   0.284 -32.329  1.00  0.00     0.272 C 
HETATM    3  O   UNL     1      -9.061   0.298 -31.156  1.00  0.00    -0.266 OA
HETATM    4  H   UNL     1      -9.286   0.574 -34.346  1.00  0.00     0.190 HD
ENDROOT
BRANCH   1   5
HETATM    5  N   UNL     1     -10.923   0.583 -33.106  1.00  0.00    -0.263 N 
HETATM    6  C   UNL     1     -11.548   1.660 -33.698  1.00  0.00     0.270 C 
HETATM    7  O   UNL     1     -10.945   2.465 -34.405  1.00  0.00    -0.266 OA
HETATM    8  H   UNL     1     -11.403  -0.179 -32.633  1.00  0.00     0.190 HD
BRANCH   6   9
HETATM    9  C   UNL     1     -13.014   1.788 -33.471  1.00  0.00     0.033 A 
HETATM   10  C   UNL     1     -13.946   0.950 -34.094  1.00  0.00     0.017 A 
HETATM   11  C   UNL     1     -15.312   1.120 -33.851  1.00  0.00     0.008 A 
HETATM   12  C   UNL     1     -15.763   2.126 -32.986  1.00  0.00    -0.059 A 
HETATM   13  C   UNL     1     -14.825   2.947 -32.347  1.00  0.00     0.008 A 
HETATM   14  C   UNL     1     -13.460   2.777 -32.586  1.00  0.00     0.017 A 
BRANCH  12  15
HETATM   15  C   UNL     1     -17.236   2.299 -32.715  1.00  0.00     0.034 C 
HETATM   16  C   UNL     1     -17.492   3.275 -31.577  1.00  0.00     0.010 C 
ENDBRANCH  12  15
ENDBRANCH   6   9
ENDBRANCH   1   5
BRANCH   2  17
HETATM   17  C   UNL     1      -7.244   0.210 -32.673  1.00  0.00     0.061 A 
HETATM   18  C   UNL     1      -6.749  -0.921 -33.349  1.00  0.00     0.059 A 
HETATM   19  C   UNL     1      -5.405  -1.079 -33.679  1.00  0.00    -0.001 A 
HETATM   20  N   UNL     1      -7.408  -2.041 -33.800  1.00  0.00    -0.358 N 
HETATM   21  C   UNL     1      -5.267  -2.351 -34.328  1.00  0.00    -0.027 A 
HETATM   22  C   UNL     1      -4.506  -0.048 -33.339  1.00  0.00     0.014 A 
HETATM   23  C   UNL     1      -4.009  -2.956 -34.844  1.00  0.00     0.051 C 
HETATM   24  C   UNL     1      -6.531  -2.920 -34.380  1.00  0.00     0.012 A 
HETATM   25  C   UNL     1      -7.003  -4.217 -34.928  1.00  0.00     0.068 C 
HETATM   26  C   UNL     1      -4.978   1.100 -32.693  1.00  0.00     0.002 A 
HETATM   27  C   UNL     1      -6.328   1.228 -32.366  1.00  0.00     0.019 A 
HETATM   28  H   UNL     1      -8.410  -2.167 -33.709  1.00  0.00     0.166 HD
ENDBRANCH   2  17
TORSDOF 4
ENDMDL
