MODEL 1
REMARK VINA RESULT:      -8.0      0.000      0.000
REMARK  4 active torsions:
REMARK  status: ('A' for Active; 'I' for Inactive)
REMARK    1  A    between atoms: S_2  and  N_3 
REMARK    2  A    between atoms: N_3  and  N_4 
REMARK    3  A    between atoms: C_10  and  C_11 
REMARK    4  A    between atoms: C_13  and  O_14 
ROOT
HETATM    1  N   UNL     1      -8.488   0.943 -31.937  1.00  0.00    -0.241 N 
HETATM    2  C   UNL     1      -7.237   0.673 -31.387  1.00  0.00     0.272 C 
HETATM    3  O   UNL     1      -6.813   1.168 -30.344  1.00  0.00    -0.266 OA
HETATM    4  C   UNL     1      -6.372  -0.222 -32.196  1.00  0.00     0.054 A 
HETATM    5  C   UNL     1      -6.841  -0.662 -33.444  1.00  0.00     0.026 A 
HETATM    6  N   UNL     1      -8.115  -0.288 -33.919  1.00  0.00    -0.265 NA
HETATM    7  C   UNL     1      -9.066  -0.056 -32.833  1.00  0.00     0.217 C 
HETATM    8  C   UNL     1      -5.094  -0.572 -31.742  1.00  0.00     0.019 A 
HETATM    9  C   UNL     1      -4.255  -1.326 -32.560  1.00  0.00     0.001 A 
HETATM   10  C   UNL     1      -4.682  -1.704 -33.832  1.00  0.00     0.002 A 
HETATM   11  C   UNL     1      -5.963  -1.363 -34.276  1.00  0.00     0.024 A 
HETATM   12  H   UNL     1      -8.475  -0.948 -34.603  1.00  0.00     0.130 HD
ENDROOT
BRANCH   7  13
HETATM   13  C   UNL     1     -10.418   0.324 -33.411  1.00  0.00    -0.017 A 
HETATM   14  C   UNL     1     -11.552  -0.444 -33.086  1.00  0.00     0.047 A 
HETATM   15  C   UNL     1     -12.803  -0.083 -33.575  1.00  0.00     0.066 A 
HETATM   16  C   UNL     1     -12.952   1.026 -34.398  1.00  0.00     0.036 A 
HETATM   17  C   UNL     1     -11.840   1.800 -34.724  1.00  0.00     0.003 A 
HETATM   18  C   UNL     1     -10.581   1.458 -34.227  1.00  0.00     0.011 A 
BRANCH  15  19
HETATM   19  O   UNL     1     -13.919  -0.797 -33.259  1.00  0.00    -0.361 OA
HETATM   20  H   UNL     1     -14.146  -0.627 -32.329  1.00  0.00     0.217 HD
ENDBRANCH  15  19
ENDBRANCH   7  13
BRANCH   1  21
HETATM   21  N   UNL     1      -9.448   1.743 -31.109  1.00  0.00    -0.123 NA
HETATM   22  H   UNL     1      -9.422   1.527 -30.104  1.00  0.00     0.165 HD
BRANCH  21  23
HETATM   23  S   UNL     1      -9.360   3.439 -31.246  1.00  0.00     0.222 S 
HETATM   24  C   UNL     1     -11.075   3.902 -31.386  1.00  0.00     0.181 C 
HETATM   25  O   UNL     1      -8.636   3.769 -32.456  1.00  0.00    -0.210 OA
HETATM   26  O   UNL     1      -8.866   3.887 -29.961  1.00  0.00    -0.210 OA
ENDBRANCH  21  23
ENDBRANCH   1  21
TORSDOF 4
ENDMDL
MODEL 2
REMARK VINA RESULT:      -7.8      2.929      4.062
REMARK  4 active torsions:
REMARK  status: ('A' for Active; 'I' for Inactive)
REMARK    1  A    between atoms: S_2  and  N_3 
REMARK    2  A    between atoms: N_3  and  N_4 
REMARK    3  A    between atoms: C_10  and  C_11 
REMARK    4  A    between atoms: C_13  and  O_14 
ROOT
HETATM    1  N   UNL     1      -5.518  -0.026 -33.367  1.00  0.00    -0.241 N 
HETATM    2  C   UNL     1      -4.547  -1.015 -33.507  1.00  0.00     0.272 C 
HETATM    3  O   UNL     1      -3.339  -0.832 -33.361  1.00  0.00    -0.266 OA
HETATM    4  C   UNL     1      -5.055  -2.342 -33.937  1.00  0.00     0.054 A 
HETATM    5  C   UNL     1      -6.424  -2.478 -34.220  1.00  0.00     0.026 A 
HETATM    6  N   UNL     1      -7.311  -1.390 -34.082  1.00  0.00    -0.265 NA
HETATM    7  C   UNL     1      -6.879  -0.451 -33.047  1.00  0.00     0.217 C 
HETATM    8  C   UNL     1      -4.174  -3.418 -34.104  1.00  0.00     0.019 A 
HETATM    9  C   UNL     1      -4.651  -4.626 -34.608  1.00  0.00     0.001 A 
HETATM   10  C   UNL     1      -5.993  -4.749 -34.964  1.00  0.00     0.002 A 
HETATM   11  C   UNL     1      -6.872  -3.677 -34.784  1.00  0.00     0.024 A 
HETATM   12  H   UNL     1      -8.269  -1.696 -33.939  1.00  0.00     0.130 HD
ENDROOT
BRANCH   7  13
HETATM   13  C   UNL     1      -7.883   0.684 -32.937  1.00  0.00    -0.017 A 
HETATM   14  C   UNL     1      -8.413   1.019 -31.677  1.00  0.00     0.047 A 
HETATM   15  C   UNL     1      -9.302   2.082 -31.555  1.00  0.00     0.066 A 
HETATM   16  C   UNL     1      -9.689   2.817 -32.668  1.00  0.00     0.036 A 
HETATM   17  C   UNL     1      -9.167   2.501 -33.921  1.00  0.00     0.003 A 
HETATM   18  C   UNL     1      -8.263   1.447 -34.055  1.00  0.00     0.011 A 
BRANCH  15  19
HETATM   19  O   UNL     1      -9.814   2.440 -30.345  1.00  0.00    -0.361 OA
HETATM   20  H   UNL     1      -9.498   1.813 -29.673  1.00  0.00     0.217 HD
ENDBRANCH  15  19
ENDBRANCH   7  13
BRANCH   1  21
HETATM   21  N   UNL     1      -5.079   1.299 -32.822  1.00  0.00    -0.123 NA
HETATM   22  H   UNL     1      -5.783   2.045 -32.903  1.00  0.00     0.165 HD
BRANCH  21  23
HETATM   23  S   UNL     1      -4.523   1.327 -31.211  1.00  0.00     0.222 S 
HETATM   24  C   UNL     1      -5.291   2.799 -30.565  1.00  0.00     0.181 C 
HETATM   25  O   UNL     1      -3.080   1.461 -31.222  1.00  0.00    -0.210 OA
HETATM   26  O   UNL     1      -5.139   0.175 -30.588  1.00  0.00    -0.210 OA
ENDBRANCH  21  23
ENDBRANCH   1  21
TORSDOF 4
ENDMDL
MODEL 3
REMARK VINA RESULT:      -7.6      1.519      1.847
REMARK  4 active torsions:
REMARK  status: ('A' for Active; 'I' for Inactive)
REMARK    1  A    between atoms: S_2  and  N_3 
REMARK    2  A    between atoms: N_3  and  N_4 
REMARK    3  A    between atoms: C_10  and  C_11 
REMARK    4  A    between atoms: C_13  and  O_14 
ROOT
HETATM    1  N   UNL     1      -7.658   0.735 -31.716  1.00  0.00    -0.241 N 
HETATM    2  C   UNL     1      -6.475   0.214 -31.196  1.00  0.00     0.272 C 
HETATM    3  O   UNL     1      -6.020   0.490 -30.087  1.00  0.00    -0.266 OA
HETATM    4  C   UNL     1      -5.717  -0.670 -32.116  1.00  0.00     0.054 A 
HETATM    5  C   UNL     1      -6.203  -0.857 -33.421  1.00  0.00     0.026 A 
HETATM    6  N   UNL     1      -7.396  -0.242 -33.851  1.00  0.00    -0.265 NA
HETATM    7  C   UNL     1      -8.340  -0.033 -32.754  1.00  0.00     0.217 C 
HETATM    8  C   UNL     1      -4.516  -1.259 -31.703  1.00  0.00     0.019 A 
HETATM    9  C   UNL     1      -3.764  -2.001 -32.612  1.00  0.00     0.001 A 
HETATM   10  C   UNL     1      -4.199  -2.130 -33.931  1.00  0.00     0.002 A 
HETATM   11  C   UNL     1      -5.405  -1.551 -34.336  1.00  0.00     0.024 A 
HETATM   12  H   UNL     1      -7.823  -0.740 -34.628  1.00  0.00     0.130 HD
ENDROOT
BRANCH   7  13
HETATM   13  C   UNL     1      -9.607   0.614 -33.287  1.00  0.00    -0.017 A 
HETATM   14  C   UNL     1      -9.512   1.765 -34.091  1.00  0.00     0.047 A 
HETATM   15  C   UNL     1     -10.661   2.344 -34.620  1.00  0.00     0.066 A 
HETATM   16  C   UNL     1     -11.914   1.808 -34.354  1.00  0.00     0.036 A 
HETATM   17  C   UNL     1     -12.024   0.664 -33.565  1.00  0.00     0.003 A 
HETATM   18  C   UNL     1     -10.878   0.065 -33.041  1.00  0.00     0.011 A 
BRANCH  15  19
HETATM   19  O   UNL     1     -10.594   3.446 -35.418  1.00  0.00    -0.361 OA
HETATM   20  H   UNL     1     -10.089   3.223 -36.218  1.00  0.00     0.217 HD
ENDBRANCH  15  19
ENDBRANCH   7  13
BRANCH   1  21
HETATM   21  N   UNL     1      -8.523   1.538 -30.791  1.00  0.00    -0.123 NA
HETATM   22  H   UNL     1      -8.507   1.220 -29.814  1.00  0.00     0.165 HD
BRANCH  21  23
HETATM   23  S   UNL     1      -8.268   3.222 -30.761  1.00  0.00     0.222 S 
HETATM   24  C   UNL     1      -9.929   3.863 -30.833  1.00  0.00     0.181 C 
HETATM   25  O   UNL     1      -7.518   3.599 -31.942  1.00  0.00    -0.210 OA
HETATM   26  O   UNL     1      -7.729   3.489 -29.444  1.00  0.00    -0.210 OA
ENDBRANCH  21  23
ENDBRANCH   1  21
TORSDOF 4
ENDMDL
MODEL 4
REMARK VINA RESULT:      -7.5      2.129      5.948
REMARK  4 active torsions:
REMARK  status: ('A' for Active; 'I' for Inactive)
REMARK    1  A    between atoms: S_2  and  N_3 
REMARK    2  A    between atoms: N_3  and  N_4 
REMARK    3  A    between atoms: C_10  and  C_11 
REMARK    4  A    between atoms: C_13  and  O_14 
ROOT
HETATM    1  N   UNL     1      -9.236   1.972 -33.887  1.00  0.00    -0.241 N 
HETATM    2  C   UNL     1     -10.378   2.467 -34.513  1.00  0.00     0.272 C 
HETATM    3  O   UNL     1     -10.436   3.543 -35.107  1.00  0.00    -0.266 OA
HETATM    4  C   UNL     1     -11.596   1.633 -34.357  1.00  0.00     0.054 A 
HETATM    5  C   UNL     1     -11.521   0.478 -33.562  1.00  0.00     0.026 A 
HETATM    6  N   UNL     1     -10.315   0.095 -32.939  1.00  0.00    -0.265 NA
HETATM    7  C   UNL     1      -9.140   0.527 -33.695  1.00  0.00     0.217 C 
HETATM    8  C   UNL     1     -12.803   2.025 -34.948  1.00  0.00     0.019 A 
HETATM    9  C   UNL     1     -13.960   1.287 -34.704  1.00  0.00     0.001 A 
HETATM   10  C   UNL     1     -13.913   0.182 -33.856  1.00  0.00     0.002 A 
HETATM   11  C   UNL     1     -12.703  -0.213 -33.278  1.00  0.00     0.024 A 
HETATM   12  H   UNL     1     -10.290  -0.901 -32.737  1.00  0.00     0.130 HD
ENDROOT
BRANCH   7  13
HETATM   13  C   UNL     1      -7.879   0.069 -32.983  1.00  0.00    -0.017 A 
HETATM   14  C   UNL     1      -6.891  -0.629 -33.703  1.00  0.00     0.047 A 
HETATM   15  C   UNL     1      -5.713  -1.018 -33.073  1.00  0.00     0.066 A 
HETATM   16  C   UNL     1      -5.498  -0.739 -31.730  1.00  0.00     0.036 A 
HETATM   17  C   UNL     1      -6.465  -0.042 -31.006  1.00  0.00     0.003 A 
HETATM   18  C   UNL     1      -7.644   0.367 -31.629  1.00  0.00     0.011 A 
BRANCH  15  19
HETATM   19  O   UNL     1      -4.732  -1.676 -33.752  1.00  0.00    -0.361 OA
HETATM   20  H   UNL     1      -4.519  -2.496 -33.277  1.00  0.00     0.217 HD
ENDBRANCH  15  19
ENDBRANCH   7  13
BRANCH   1  21
HETATM   21  N   UNL     1      -7.951   2.710 -34.111  1.00  0.00    -0.123 NA
HETATM   22  H   UNL     1      -7.815   3.041 -35.076  1.00  0.00     0.165 HD
BRANCH  21  23
HETATM   23  S   UNL     1      -7.635   4.038 -33.092  1.00  0.00     0.222 S 
HETATM   24  C   UNL     1      -6.007   3.666 -32.471  1.00  0.00     0.181 C 
HETATM   25  O   UNL     1      -8.607   4.040 -32.018  1.00  0.00    -0.210 OA
HETATM   26  O   UNL     1      -7.538   5.174 -33.985  1.00  0.00    -0.210 OA
ENDBRANCH  21  23
ENDBRANCH   1  21
TORSDOF 4
ENDMDL
MODEL 5
REMARK VINA RESULT:      -7.4      4.216      4.966
REMARK  4 active torsions:
REMARK  status: ('A' for Active; 'I' for Inactive)
REMARK    1  A    between atoms: S_2  and  N_3 
REMARK    2  A    between atoms: N_3  and  N_4 
REMARK    3  A    between atoms: C_10  and  C_11 
REMARK    4  A    between atoms: C_13  and  O_14 
ROOT
HETATM    1  N   UNL     1      -4.683   1.443 -32.075  1.00  0.00    -0.241 N 
HETATM    2  C   UNL     1      -3.973   0.251 -32.201  1.00  0.00     0.272 C 
HETATM    3  O   UNL     1      -2.860   0.049 -31.719  1.00  0.00    -0.266 OA
HETATM    4  C   UNL     1      -4.621  -0.783 -33.047  1.00  0.00     0.054 A 
HETATM    5  C   UNL     1      -5.831  -0.467 -33.686  1.00  0.00     0.026 A 
HETATM    6  N   UNL     1      -6.439   0.795 -33.518  1.00  0.00    -0.265 NA
HETATM    7  C   UNL     1      -6.136   1.387 -32.215  1.00  0.00     0.217 C 
HETATM    8  C   UNL     1      -4.006  -2.026 -33.241  1.00  0.00     0.019 A 
HETATM    9  C   UNL     1      -4.574  -2.945 -34.121  1.00  0.00     0.001 A 
HETATM   10  C   UNL     1      -5.735  -2.612 -34.819  1.00  0.00     0.002 A 
HETATM   11  C   UNL     1      -6.352  -1.375 -34.612  1.00  0.00     0.024 A 
HETATM   12  H   UNL     1      -7.439   0.762 -33.695  1.00  0.00     0.130 HD
ENDROOT
BRANCH   7  13
HETATM   13  C   UNL     1      -6.833   2.730 -32.091  1.00  0.00    -0.017 A 
HETATM   14  C   UNL     1      -6.952   3.557 -33.224  1.00  0.00     0.047 A 
HETATM   15  C   UNL     1      -7.624   4.771 -33.135  1.00  0.00     0.066 A 
HETATM   16  C   UNL     1      -8.175   5.193 -31.932  1.00  0.00     0.036 A 
HETATM   17  C   UNL     1      -8.072   4.382 -30.802  1.00  0.00     0.003 A 
HETATM   18  C   UNL     1      -7.413   3.154 -30.882  1.00  0.00     0.011 A 
BRANCH  15  19
HETATM   19  O   UNL     1      -7.771   5.580 -34.221  1.00  0.00    -0.361 OA
HETATM   20  H   UNL     1      -6.902   5.703 -34.639  1.00  0.00     0.217 HD
ENDBRANCH  15  19
ENDBRANCH   7  13
BRANCH   1  21
HETATM   21  N   UNL     1      -4.135   2.477 -31.138  1.00  0.00    -0.123 NA
HETATM   22  H   UNL     1      -3.544   2.097 -30.387  1.00  0.00     0.165 HD
BRANCH  21  23
HETATM   23  S   UNL     1      -3.268   3.769 -31.833  1.00  0.00     0.222 S 
HETATM   24  C   UNL     1      -4.124   5.194 -31.192  1.00  0.00     0.181 C 
HETATM   25  O   UNL     1      -3.400   3.693 -33.274  1.00  0.00    -0.210 OA
HETATM   26  O   UNL     1      -1.958   3.705 -31.222  1.00  0.00    -0.210 OA
ENDBRANCH  21  23
ENDBRANCH   1  21
TORSDOF 4
ENDMDL
MODEL 6
REMARK VINA RESULT:      -7.4      2.838      3.414
REMARK  4 active torsions:
REMARK  status: ('A' for Active; 'I' for Inactive)
REMARK    1  A    between atoms: S_2  and  N_3 
REMARK    2  A    between atoms: N_3  and  N_4 
REMARK    3  A    between atoms: C_10  and  C_11 
REMARK    4  A    between atoms: C_13  and  O_14 
ROOT
HETATM    1  N   UNL     1      -5.966   0.709 -32.860  1.00  0.00    -0.241 N 
HETATM    2  C   UNL     1      -4.900  -0.188 -32.893  1.00  0.00     0.272 C 
HETATM    3  O   UNL     1      -3.761   0.068 -32.504  1.00  0.00    -0.266 OA
HETATM    4  C   UNL     1      -5.200  -1.501 -33.518  1.00  0.00     0.054 A 
HETATM    5  C   UNL     1      -6.475  -1.708 -34.068  1.00  0.00     0.026 A 
HETATM    6  N   UNL     1      -7.466  -0.707 -34.013  1.00  0.00    -0.265 NA
HETATM    7  C   UNL     1      -7.318   0.157 -32.841  1.00  0.00     0.217 C 
HETATM    8  C   UNL     1      -4.209  -2.488 -33.602  1.00  0.00     0.019 A 
HETATM    9  C   UNL     1      -4.475  -3.673 -34.284  1.00  0.00     0.001 A 
HETATM   10  C   UNL     1      -5.713  -3.859 -34.898  1.00  0.00     0.002 A 
HETATM   11  C   UNL     1      -6.703  -2.876 -34.802  1.00  0.00     0.024 A 
HETATM   12  H   UNL     1      -8.404  -1.094 -34.081  1.00  0.00     0.130 HD
ENDROOT
BRANCH   7  13
HETATM   13  C   UNL     1      -8.423   1.199 -32.832  1.00  0.00    -0.017 A 
HETATM   14  C   UNL     1      -9.020   1.587 -34.047  1.00  0.00     0.047 A 
HETATM   15  C   UNL     1     -10.061   2.509 -34.049  1.00  0.00     0.066 A 
HETATM   16  C   UNL     1     -10.518   3.069 -32.864  1.00  0.00     0.036 A 
HETATM   17  C   UNL     1      -9.943   2.689 -31.652  1.00  0.00     0.003 A 
HETATM   18  C   UNL     1      -8.907   1.754 -31.634  1.00  0.00     0.011 A 
BRANCH  15  19
HETATM   19  O   UNL     1     -10.669   2.886 -35.209  1.00  0.00    -0.361 OA
HETATM   20  H   UNL     1     -11.488   3.363 -34.992  1.00  0.00     0.217 HD
ENDBRANCH  15  19
ENDBRANCH   7  13
BRANCH   1  21
HETATM   21  N   UNL     1      -5.755   2.004 -32.135  1.00  0.00    -0.123 NA
HETATM   22  H   UNL     1      -5.071   1.954 -31.369  1.00  0.00     0.165 HD
BRANCH  21  23
HETATM   23  S   UNL     1      -5.332   3.358 -33.078  1.00  0.00     0.222 S 
HETATM   24  C   UNL     1      -6.062   4.704 -32.167  1.00  0.00     0.181 C 
HETATM   25  O   UNL     1      -5.948   3.225 -34.383  1.00  0.00    -0.210 OA
HETATM   26  O   UNL     1      -3.892   3.452 -32.963  1.00  0.00    -0.210 OA
ENDBRANCH  21  23
ENDBRANCH   1  21
TORSDOF 4
ENDMDL
MODEL 7
REMARK VINA RESULT:      -7.2      1.444      1.789
REMARK  4 active torsions:
REMARK  status: ('A' for Active; 'I' for Inactive)
REMARK    1  A    between atoms: S_2  and  N_3 
REMARK    2  A    between atoms: N_3  and  N_4 
REMARK    3  A    between atoms: C_10  and  C_11 
REMARK    4  A    between atoms: C_13  and  O_14 
ROOT
HETATM    1  N   UNL     1      -8.984   1.572 -32.541  1.00  0.00    -0.241 N 
HETATM    2  C   UNL     1      -7.920   0.899 -31.944  1.00  0.00     0.272 C 
HETATM    3  O   UNL     1      -7.551   1.069 -30.783  1.00  0.00    -0.266 OA
HETATM    4  C   UNL     1      -7.172  -0.019 -32.840  1.00  0.00     0.054 A 
HETATM    5  C   UNL     1      -7.543  -0.088 -34.192  1.00  0.00     0.026 A 
HETATM    6  N   UNL     1      -8.616   0.676 -34.696  1.00  0.00    -0.265 NA
HETATM    7  C   UNL     1      -9.637   0.935 -33.682  1.00  0.00     0.217 C 
HETATM    8  C   UNL     1      -6.087  -0.757 -32.351  1.00  0.00     0.019 A 
HETATM    9  C   UNL     1      -5.331  -1.532 -33.227  1.00  0.00     0.001 A 
HETATM   10  C   UNL     1      -5.644  -1.549 -34.586  1.00  0.00     0.002 A 
HETATM   11  C   UNL     1      -6.736  -0.821 -35.068  1.00  0.00     0.024 A 
HETATM   12  H   UNL     1      -9.013   0.266 -35.537  1.00  0.00     0.130 HD
ENDROOT
BRANCH   7  13
HETATM   13  C   UNL     1     -10.769   1.743 -34.292  1.00  0.00    -0.017 A 
HETATM   14  C   UNL     1     -12.083   1.242 -34.242  1.00  0.00     0.047 A 
HETATM   15  C   UNL     1     -13.135   1.991 -34.760  1.00  0.00     0.066 A 
HETATM   16  C   UNL     1     -12.907   3.230 -35.343  1.00  0.00     0.036 A 
HETATM   17  C   UNL     1     -11.611   3.743 -35.393  1.00  0.00     0.003 A 
HETATM   18  C   UNL     1     -10.549   3.009 -34.864  1.00  0.00     0.011 A 
BRANCH  15  19
HETATM   19  O   UNL     1     -14.419   1.538 -34.706  1.00  0.00    -0.361 OA
HETATM   20  H   UNL     1     -14.748   1.638 -33.797  1.00  0.00     0.217 HD
ENDBRANCH  15  19
ENDBRANCH   7  13
BRANCH   1  21
HETATM   21  N   UNL     1      -9.847   2.420 -31.656  1.00  0.00    -0.123 NA
HETATM   22  H   UNL     1     -10.023   2.019 -30.726  1.00  0.00     0.165 HD
BRANCH  21  23
HETATM   23  S   UNL     1      -9.352   4.031 -31.407  1.00  0.00     0.222 S 
HETATM   24  C   UNL     1      -8.061   4.227 -32.619  1.00  0.00     0.181 C 
HETATM   25  O   UNL     1      -8.821   4.150 -30.064  1.00  0.00    -0.210 OA
HETATM   26  O   UNL     1     -10.488   4.833 -31.811  1.00  0.00    -0.210 OA
ENDBRANCH  21  23
ENDBRANCH   1  21
TORSDOF 4
ENDMDL
MODEL 8
REMARK VINA RESULT:      -6.9      5.053      6.958
REMARK  4 active torsions:
REMARK  status: ('A' for Active; 'I' for Inactive)
REMARK    1  A    between atoms: S_2  and  N_3 
REMARK    2  A    between atoms: N_3  and  N_4 
REMARK    3  A    between atoms: C_10  and  C_11 
REMARK    4  A    between atoms: C_13  and  O_14 
ROOT
HETATM    1  N   UNL     1      -4.143   3.962 -31.076  1.00  0.00    -0.241 N 
HETATM    2  C   UNL     1      -3.780   5.292 -30.871  1.00  0.00     0.272 C 
HETATM    3  O   UNL     1      -4.283   6.029 -30.025  1.00  0.00    -0.266 OA
HETATM    4  C   UNL     1      -2.764   5.821 -31.815  1.00  0.00     0.054 A 
HETATM    5  C   UNL     1      -2.309   4.987 -32.850  1.00  0.00     0.026 A 
HETATM    6  N   UNL     1      -2.782   3.666 -32.985  1.00  0.00    -0.265 NA
HETATM    7  C   UNL     1      -3.162   3.078 -31.700  1.00  0.00     0.217 C 
HETATM    8  C   UNL     1      -2.314   7.142 -31.703  1.00  0.00     0.019 A 
HETATM    9  C   UNL     1      -1.440   7.656 -32.660  1.00  0.00     0.001 A 
HETATM   10  C   UNL     1      -1.041   6.860 -33.733  1.00  0.00     0.002 A 
HETATM   11  C   UNL     1      -1.483   5.538 -33.834  1.00  0.00     0.024 A 
HETATM   12  H   UNL     1      -2.126   3.076 -33.491  1.00  0.00     0.130 HD
ENDROOT
BRANCH   7  13
HETATM   13  C   UNL     1      -3.643   1.653 -31.913  1.00  0.00    -0.017 A 
HETATM   14  C   UNL     1      -4.573   1.382 -32.934  1.00  0.00     0.047 A 
HETATM   15  C   UNL     1      -4.991   0.075 -33.167  1.00  0.00     0.066 A 
HETATM   16  C   UNL     1      -4.512  -0.974 -32.394  1.00  0.00     0.036 A 
HETATM   17  C   UNL     1      -3.584  -0.721 -31.384  1.00  0.00     0.003 A 
HETATM   18  C   UNL     1      -3.145   0.583 -31.149  1.00  0.00     0.011 A 
BRANCH  15  19
HETATM   19  O   UNL     1      -5.875  -0.217 -34.161  1.00  0.00    -0.361 OA
HETATM   20  H   UNL     1      -6.745   0.145 -33.923  1.00  0.00     0.217 HD
ENDBRANCH  15  19
ENDBRANCH   7  13
BRANCH   1  21
HETATM   21  N   UNL     1      -5.075   3.340 -30.080  1.00  0.00    -0.123 NA
HETATM   22  H   UNL     1      -4.980   3.708 -29.125  1.00  0.00     0.165 HD
BRANCH  21  23
HETATM   23  S   UNL     1      -6.737   3.371 -30.453  1.00  0.00     0.222 S 
HETATM   24  C   UNL     1      -7.150   1.639 -30.510  1.00  0.00     0.181 C 
HETATM   25  O   UNL     1      -6.910   3.986 -31.753  1.00  0.00    -0.210 OA
HETATM   26  O   UNL     1      -7.365   3.956 -29.287  1.00  0.00    -0.210 OA
ENDBRANCH  21  23
ENDBRANCH   1  21
TORSDOF 4
ENDMDL
MODEL 9
REMARK VINA RESULT:      -6.8     15.369     18.012
REMARK  4 active torsions:
REMARK  status: ('A' for Active; 'I' for Inactive)
REMARK    1  A    between atoms: S_2  and  N_3 
REMARK    2  A    between atoms: N_3  and  N_4 
REMARK    3  A    between atoms: C_10  and  C_11 
REMARK    4  A    between atoms: C_13  and  O_14 
ROOT
HETATM    1  N   UNL     1      -5.813 -14.842 -40.452  1.00  0.00    -0.241 N 
HETATM    2  C   UNL     1      -7.035 -15.222 -41.002  1.00  0.00     0.272 C 
HETATM    3  O   UNL     1      -7.166 -16.034 -41.916  1.00  0.00    -0.266 OA
HETATM    4  C   UNL     1      -8.220 -14.511 -40.457  1.00  0.00     0.054 A 
HETATM    5  C   UNL     1      -8.017 -13.498 -39.507  1.00  0.00     0.026 A 
HETATM    6  N   UNL     1      -6.723 -13.169 -39.053  1.00  0.00    -0.265 NA
HETATM    7  C   UNL     1      -5.815 -14.315 -39.090  1.00  0.00     0.217 C 
HETATM    8  C   UNL     1      -9.504 -14.813 -40.927  1.00  0.00     0.019 A 
HETATM    9  C   UNL     1     -10.593 -14.065 -40.483  1.00  0.00     0.001 A 
HETATM   10  C   UNL     1     -10.393 -13.007 -39.596  1.00  0.00     0.002 A 
HETATM   11  C   UNL     1      -9.111 -12.717 -39.121  1.00  0.00     0.024 A 
HETATM   12  H   UNL     1      -6.740 -12.730 -38.137  1.00  0.00     0.130 HD
ENDROOT
BRANCH   7  13
HETATM   13  C   UNL     1      -4.448 -13.900 -38.573  1.00  0.00    -0.017 A 
HETATM   14  C   UNL     1      -3.944 -12.626 -38.893  1.00  0.00     0.047 A 
HETATM   15  C   UNL     1      -2.712 -12.216 -38.393  1.00  0.00     0.066 A 
HETATM   16  C   UNL     1      -1.958 -13.057 -37.586  1.00  0.00     0.036 A 
HETATM   17  C   UNL     1      -2.446 -14.320 -37.254  1.00  0.00     0.003 A 
HETATM   18  C   UNL     1      -3.687 -14.737 -37.737  1.00  0.00     0.011 A 
BRANCH  15  19
HETATM   19  O   UNL     1      -2.212 -10.980 -38.671  1.00  0.00    -0.361 OA
HETATM   20  H   UNL     1      -1.252 -11.054 -38.804  1.00  0.00     0.217 HD
ENDBRANCH  15  19
ENDBRANCH   7  13
BRANCH   1  21
HETATM   21  N   UNL     1      -4.597 -15.610 -40.877  1.00  0.00    -0.123 NA
HETATM   22  H   UNL     1      -4.788 -16.576 -41.171  1.00  0.00     0.165 HD
BRANCH  21  23
HETATM   23  S   UNL     1      -3.629 -14.912 -42.094  1.00  0.00     0.222 S 
HETATM   24  C   UNL     1      -2.036 -14.808 -41.304  1.00  0.00     0.181 C 
HETATM   25  O   UNL     1      -4.143 -13.592 -42.395  1.00  0.00    -0.210 OA
HETATM   26  O   UNL     1      -3.562 -15.918 -43.133  1.00  0.00    -0.210 OA
ENDBRANCH  21  23
ENDBRANCH   1  21
TORSDOF 4
ENDMDL
MODEL 10
REMARK VINA RESULT:      -6.7     15.357     17.134
REMARK  4 active torsions:
REMARK  status: ('A' for Active; 'I' for Inactive)
REMARK    1  A    between atoms: S_2  and  N_3 
REMARK    2  A    between atoms: N_3  and  N_4 
REMARK    3  A    between atoms: C_10  and  C_11 
REMARK    4  A    between atoms: C_13  and  O_14 
ROOT
HETATM    1  N   UNL     1      -5.427 -14.290 -40.650  1.00  0.00    -0.241 N 
HETATM    2  C   UNL     1      -4.064 -14.431 -40.906  1.00  0.00     0.272 C 
HETATM    3  O   UNL     1      -3.594 -15.077 -41.841  1.00  0.00    -0.266 OA
HETATM    4  C   UNL     1      -3.166 -13.797 -39.908  1.00  0.00     0.054 A 
HETATM    5  C   UNL     1      -3.739 -13.180 -38.785  1.00  0.00     0.026 A 
HETATM    6  N   UNL     1      -5.138 -13.136 -38.609  1.00  0.00    -0.265 NA
HETATM    7  C   UNL     1      -5.857 -13.125 -39.883  1.00  0.00     0.217 C 
HETATM    8  C   UNL     1      -1.776 -13.865 -40.063  1.00  0.00     0.019 A 
HETATM    9  C   UNL     1      -0.946 -13.357 -39.065  1.00  0.00     0.001 A 
HETATM   10  C   UNL     1      -1.504 -12.810 -37.910  1.00  0.00     0.002 A 
HETATM   11  C   UNL     1      -2.893 -12.733 -37.765  1.00  0.00     0.024 A 
HETATM   12  H   UNL     1      -5.422 -12.367 -38.007  1.00  0.00     0.130 HD
ENDROOT
BRANCH   7  13
HETATM   13  C   UNL     1      -7.352 -13.058 -39.623  1.00  0.00    -0.017 A 
HETATM   14  C   UNL     1      -8.148 -12.180 -40.382  1.00  0.00     0.047 A 
HETATM   15  C   UNL     1      -9.525 -12.139 -40.184  1.00  0.00     0.066 A 
HETATM   16  C   UNL     1     -10.131 -12.948 -39.232  1.00  0.00     0.036 A 
HETATM   17  C   UNL     1      -9.356 -13.828 -38.478  1.00  0.00     0.003 A 
HETATM   18  C   UNL     1      -7.976 -13.890 -38.677  1.00  0.00     0.011 A 
BRANCH  15  19
HETATM   19  O   UNL     1     -10.321 -11.313 -40.919  1.00  0.00    -0.361 OA
HETATM   20  H   UNL     1     -11.217 -11.327 -40.544  1.00  0.00     0.217 HD
ENDBRANCH  15  19
ENDBRANCH   7  13
BRANCH   1  21
HETATM   21  N   UNL     1      -6.380 -14.806 -41.686  1.00  0.00    -0.123 NA
HETATM   22  H   UNL     1      -6.022 -14.765 -42.649  1.00  0.00     0.165 HD
BRANCH  21  23
HETATM   23  S   UNL     1      -6.989 -16.381 -41.459  1.00  0.00     0.222 S 
HETATM   24  C   UNL     1      -8.749 -16.132 -41.576  1.00  0.00     0.181 C 
HETATM   25  O   UNL     1      -6.619 -16.836 -40.134  1.00  0.00    -0.210 OA
HETATM   26  O   UNL     1      -6.550 -17.117 -42.626  1.00  0.00    -0.210 OA
ENDBRANCH  21  23
ENDBRANCH   1  21
TORSDOF 4
ENDMDL
