MODEL 1
REMARK VINA RESULT:      -8.5      0.000      0.000
REMARK  11 active torsions:
REMARK  status: ('A' for Active; 'I' for Inactive)
REMARK    1  A    between atoms: C_2  and  O_3 
REMARK    2  A    between atoms: O_3  and  C_4 
REMARK    3  A    between atoms: C_4  and  C_5 
REMARK    4  A    between atoms: C_6  and  N_7 
REMARK       I    between atoms: N_7  and  C_8 
REMARK    5  A    between atoms: C_8  and  C_9 
REMARK    6  A    between atoms: C_10  and  N_11 
REMARK    7  A    between atoms: N_11  and  C_12 
REMARK    8  A    between atoms: C_12  and  C_13 
REMARK    9  A    between atoms: C_13  and  C_14 
REMARK   10  A    between atoms: C_14  and  N_15 
REMARK   11  A    between atoms: C_24  and  N_25 
ROOT
HETATM    1  C   UNL     1      -3.511   3.476 -32.140  1.00  0.00     0.061 A 
HETATM    2  C   UNL     1      -4.150   4.323 -31.196  1.00  0.00     0.043 A 
HETATM    3  C   UNL     1      -3.910   5.703 -31.327  1.00  0.00     0.032 A 
HETATM    4  C   UNL     1      -3.104   6.222 -32.351  1.00  0.00     0.038 A 
HETATM    5  C   UNL     1      -2.492   5.357 -33.261  1.00  0.00     0.104 A 
HETATM    6  C   UNL     1      -2.688   3.981 -33.160  1.00  0.00     0.055 A 
ENDROOT
BRANCH   1   7
HETATM    7  C   UNL     1      -3.643   1.997 -32.098  1.00  0.00     0.258 C 
HETATM    8  N   UNL     1      -4.468   1.479 -33.078  1.00  0.00    -0.316 N 
HETATM    9  H   UNL     1      -4.930   2.126 -33.713  1.00  0.00     0.169 HD
HETATM   10  O   UNL     1      -3.038   1.403 -31.217  1.00  0.00    -0.267 OA
BRANCH   8  11
HETATM   11  C   UNL     1      -4.725   0.135 -33.321  1.00  0.00     0.094 A 
HETATM   12  C   UNL     1      -5.816  -0.387 -34.010  1.00  0.00     0.080 A 
HETATM   13  C   UNL     1      -5.692  -1.828 -34.145  1.00  0.00    -0.026 A 
HETATM   14  C   UNL     1      -4.517  -2.289 -33.578  1.00  0.00    -0.008 A 
HETATM   15  C   UNL     1      -6.640  -2.776 -34.830  1.00  0.00     0.041 C 
HETATM   16  S   UNL     1      -3.625  -1.060 -32.832  1.00  0.00    -0.075 SA
HETATM   17  C   UNL     1      -4.053  -3.713 -33.557  1.00  0.00     0.047 C 
HETATM   18  C   UNL     1      -4.834  -4.547 -34.581  1.00  0.00     0.005 C 
HETATM   19  C   UNL     1      -6.335  -4.248 -34.510  1.00  0.00     0.005 C 
BRANCH  12  20
HETATM   20  C   UNL     1      -6.911   0.469 -34.476  1.00  0.00     0.296 C 
HETATM   21  O   UNL     1      -7.098   0.710 -35.668  1.00  0.00    -0.259 OA
BRANCH  20  22
HETATM   22  O   UNL     1      -7.667   0.978 -33.466  1.00  0.00    -0.318 OA
BRANCH  22  23
HETATM   23  C   UNL     1      -8.362   0.041 -32.632  1.00  0.00     0.174 C 
HETATM   24  C   UNL     1      -9.850   0.106 -32.913  1.00  0.00     0.034 C 
ENDBRANCH  22  23
ENDBRANCH  20  22
ENDBRANCH  12  20
ENDBRANCH   8  11
ENDBRANCH   1   7
BRANCH   2  25
HETATM   25  N   UNL     1      -4.829   3.788 -30.087  1.00  0.00    -0.389 N 
HETATM   26  H   UNL     1      -5.297   2.909 -30.315  1.00  0.00     0.159 HD
BRANCH  25  27
HETATM   27  C   UNL     1      -5.621   4.637 -29.207  1.00  0.00     0.121 C 
BRANCH  27  28
HETATM   28  C   UNL     1      -7.107   4.329 -29.419  1.00  0.00     0.047 C 
BRANCH  28  29
HETATM   29  C   UNL     1      -7.289   3.010 -30.166  1.00  0.00     0.236 C 
BRANCH  29  30
HETATM   30  N   UNL     1      -8.236   3.175 -31.341  1.00  0.00    -0.067 N 
HETATM   31  H   UNL     1      -8.232   2.301 -31.881  1.00  0.00     0.280 HD
HETATM   32  C   UNL     1      -9.678   3.469 -30.929  1.00  0.00     0.261 C 
HETATM   33  C   UNL     1     -10.544   3.646 -32.182  1.00  0.00     0.195 C 
HETATM   34  O   UNL     1     -10.038   4.691 -33.016  1.00  0.00    -0.388 OA
HETATM   35  C   UNL     1      -8.707   4.417 -33.466  1.00  0.00     0.195 C 
HETATM   36  C   UNL     1      -7.745   4.283 -32.281  1.00  0.00     0.261 C 
ENDBRANCH  29  30
ENDBRANCH  28  29
ENDBRANCH  27  28
ENDBRANCH  25  27
ENDBRANCH   2  25
BRANCH   5  37
HETATM   37  N   UNL     1      -1.633   5.900 -34.320  1.00  0.00    -0.116 N 
HETATM   38  O   UNL     1      -1.223   7.061 -34.182  1.00  0.00    -0.532 OA
HETATM   39  O   UNL     1      -1.380   5.168 -35.284  1.00  0.00    -0.532 OA
ENDBRANCH   5  37
TORSDOF 11
ENDMDL
MODEL 2
REMARK VINA RESULT:      -8.5      2.742      7.388
REMARK  11 active torsions:
REMARK  status: ('A' for Active; 'I' for Inactive)
REMARK    1  A    between atoms: C_2  and  O_3 
REMARK    2  A    between atoms: O_3  and  C_4 
REMARK    3  A    between atoms: C_4  and  C_5 
REMARK    4  A    between atoms: C_6  and  N_7 
REMARK       I    between atoms: N_7  and  C_8 
REMARK    5  A    between atoms: C_8  and  C_9 
REMARK    6  A    between atoms: C_10  and  N_11 
REMARK    7  A    between atoms: N_11  and  C_12 
REMARK    8  A    between atoms: C_12  and  C_13 
REMARK    9  A    between atoms: C_13  and  C_14 
REMARK   10  A    between atoms: C_14  and  N_15 
REMARK   11  A    between atoms: C_24  and  N_25 
ROOT
HETATM    1  C   UNL     1      -6.329  -0.928 -34.110  1.00  0.00     0.061 A 
HETATM    2  C   UNL     1      -5.092  -0.581 -33.506  1.00  0.00     0.043 A 
HETATM    3  C   UNL     1      -4.141  -1.610 -33.386  1.00  0.00     0.032 A 
HETATM    4  C   UNL     1      -4.386  -2.906 -33.862  1.00  0.00     0.038 A 
HETATM    5  C   UNL     1      -5.615  -3.210 -34.451  1.00  0.00     0.104 A 
HETATM    6  C   UNL     1      -6.594  -2.227 -34.576  1.00  0.00     0.055 A 
ENDROOT
BRANCH   1   7
HETATM    7  C   UNL     1      -7.438   0.047 -34.266  1.00  0.00     0.258 C 
HETATM    8  N   UNL     1      -8.249   0.159 -33.151  1.00  0.00    -0.316 N 
HETATM    9  H   UNL     1      -8.051  -0.434 -32.349  1.00  0.00     0.169 HD
HETATM   10  O   UNL     1      -7.531   0.628 -35.338  1.00  0.00    -0.267 OA
BRANCH   8  11
HETATM   11  C   UNL     1      -9.315   1.033 -32.986  1.00  0.00     0.094 A 
HETATM   12  C   UNL     1      -9.289   2.251 -32.312  1.00  0.00     0.080 A 
HETATM   13  C   UNL     1     -10.569   2.928 -32.432  1.00  0.00    -0.026 A 
HETATM   14  C   UNL     1     -11.457   2.196 -33.199  1.00  0.00    -0.008 A 
HETATM   15  C   UNL     1     -10.960   4.269 -31.869  1.00  0.00     0.041 C 
HETATM   16  S   UNL     1     -10.821   0.708 -33.694  1.00  0.00    -0.075 SA
HETATM   17  C   UNL     1     -12.856   2.602 -33.549  1.00  0.00     0.047 C 
HETATM   18  C   UNL     1     -13.058   4.102 -33.294  1.00  0.00     0.005 C 
HETATM   19  C   UNL     1     -12.476   4.517 -31.939  1.00  0.00     0.005 C 
BRANCH  12  20
HETATM   20  C   UNL     1      -8.098   2.701 -31.585  1.00  0.00     0.296 C 
HETATM   21  O   UNL     1      -7.001   2.825 -32.127  1.00  0.00    -0.259 OA
BRANCH  20  22
HETATM   22  O   UNL     1      -8.329   2.937 -30.265  1.00  0.00    -0.318 OA
BRANCH  22  23
HETATM   23  C   UNL     1      -7.493   3.907 -29.618  1.00  0.00     0.174 C 
HETATM   24  C   UNL     1      -8.225   5.230 -29.514  1.00  0.00     0.034 C 
ENDBRANCH  22  23
ENDBRANCH  20  22
ENDBRANCH  12  20
ENDBRANCH   8  11
ENDBRANCH   1   7
BRANCH   2  25
HETATM   25  N   UNL     1      -4.911   0.674 -32.897  1.00  0.00    -0.389 N 
HETATM   26  H   UNL     1      -5.452   1.405 -33.362  1.00  0.00     0.159 HD
BRANCH  25  27
HETATM   27  C   UNL     1      -3.590   1.127 -32.483  1.00  0.00     0.121 C 
BRANCH  27  28
HETATM   28  C   UNL     1      -3.736   2.062 -31.278  1.00  0.00     0.047 C 
BRANCH  28  29
HETATM   29  C   UNL     1      -3.009   3.383 -31.522  1.00  0.00     0.236 C 
BRANCH  29  30
HETATM   30  N   UNL     1      -3.150   3.824 -32.967  1.00  0.00    -0.067 N 
HETATM   31  H   UNL     1      -3.141   2.985 -33.560  1.00  0.00     0.280 HD
HETATM   32  C   UNL     1      -4.442   4.590 -33.251  1.00  0.00     0.261 C 
HETATM   33  C   UNL     1      -4.475   5.013 -34.724  1.00  0.00     0.195 C 
HETATM   34  O   UNL     1      -3.336   5.811 -35.058  1.00  0.00    -0.388 OA
HETATM   35  C   UNL     1      -2.110   5.099 -34.856  1.00  0.00     0.195 C 
HETATM   36  C   UNL     1      -1.952   4.684 -33.390  1.00  0.00     0.261 C 
ENDBRANCH  29  30
ENDBRANCH  28  29
ENDBRANCH  27  28
ENDBRANCH  25  27
ENDBRANCH   2  25
BRANCH   5  37
HETATM   37  N   UNL     1      -5.878  -4.572 -34.931  1.00  0.00    -0.116 N 
HETATM   38  O   UNL     1      -6.886  -4.746 -35.629  1.00  0.00    -0.532 OA
HETATM   39  O   UNL     1      -5.082  -5.459 -34.601  1.00  0.00    -0.532 OA
ENDBRANCH   5  37
TORSDOF 11
ENDMDL
MODEL 3
REMARK VINA RESULT:      -8.1      2.744      7.532
REMARK  11 active torsions:
REMARK  status: ('A' for Active; 'I' for Inactive)
REMARK    1  A    between atoms: C_2  and  O_3 
REMARK    2  A    between atoms: O_3  and  C_4 
REMARK    3  A    between atoms: C_4  and  C_5 
REMARK    4  A    between atoms: C_6  and  N_7 
REMARK       I    between atoms: N_7  and  C_8 
REMARK    5  A    between atoms: C_8  and  C_9 
REMARK    6  A    between atoms: C_10  and  N_11 
REMARK    7  A    between atoms: N_11  and  C_12 
REMARK    8  A    between atoms: C_12  and  C_13 
REMARK    9  A    between atoms: C_13  and  C_14 
REMARK   10  A    between atoms: C_14  and  N_15 
REMARK   11  A    between atoms: C_24  and  N_25 
ROOT
HETATM    1  C   UNL     1      -6.355  -0.993 -34.182  1.00  0.00     0.061 A 
HETATM    2  C   UNL     1      -5.135  -0.629 -33.554  1.00  0.00     0.043 A 
HETATM    3  C   UNL     1      -4.171  -1.643 -33.417  1.00  0.00     0.032 A 
HETATM    4  C   UNL     1      -4.388  -2.942 -33.899  1.00  0.00     0.038 A 
HETATM    5  C   UNL     1      -5.601  -3.264 -34.512  1.00  0.00     0.104 A 
HETATM    6  C   UNL     1      -6.592  -2.295 -34.654  1.00  0.00     0.055 A 
ENDROOT
BRANCH   1   7
HETATM    7  C   UNL     1      -7.476  -0.034 -34.358  1.00  0.00     0.258 C 
HETATM    8  N   UNL     1      -8.187   0.216 -33.199  1.00  0.00    -0.316 N 
HETATM    9  H   UNL     1      -7.920  -0.278 -32.352  1.00  0.00     0.169 HD
HETATM   10  O   UNL     1      -7.662   0.415 -35.480  1.00  0.00    -0.267 OA
BRANCH   8  11
HETATM   11  C   UNL     1      -9.237   1.113 -33.049  1.00  0.00     0.094 A 
HETATM   12  C   UNL     1      -9.160   2.392 -32.504  1.00  0.00     0.080 A 
HETATM   13  C   UNL     1     -10.444   3.066 -32.602  1.00  0.00    -0.026 A 
HETATM   14  C   UNL     1     -11.385   2.270 -33.228  1.00  0.00    -0.008 A 
HETATM   15  C   UNL     1     -10.791   4.460 -32.151  1.00  0.00     0.041 C 
HETATM   16  S   UNL     1     -10.790   0.734 -33.615  1.00  0.00    -0.075 SA
HETATM   17  C   UNL     1     -12.804   2.653 -33.520  1.00  0.00     0.047 C 
HETATM   18  C   UNL     1     -12.984   4.172 -33.403  1.00  0.00     0.005 C 
HETATM   19  C   UNL     1     -12.307   4.715 -32.140  1.00  0.00     0.005 C 
BRANCH  12  20
HETATM   20  C   UNL     1      -7.921   2.901 -31.909  1.00  0.00     0.296 C 
HETATM   21  O   UNL     1      -7.436   2.423 -30.884  1.00  0.00    -0.259 OA
BRANCH  20  22
HETATM   22  O   UNL     1      -7.390   3.955 -32.585  1.00  0.00    -0.318 OA
BRANCH  22  23
HETATM   23  C   UNL     1      -6.790   3.680 -33.859  1.00  0.00     0.174 C 
HETATM   24  C   UNL     1      -5.624   4.620 -34.093  1.00  0.00     0.034 C 
ENDBRANCH  22  23
ENDBRANCH  20  22
ENDBRANCH  12  20
ENDBRANCH   8  11
ENDBRANCH   1   7
BRANCH   2  25
HETATM   25  N   UNL     1      -4.984   0.628 -32.941  1.00  0.00    -0.389 N 
HETATM   26  H   UNL     1      -4.592   1.320 -33.582  1.00  0.00     0.159 HD
BRANCH  25  27
HETATM   27  C   UNL     1      -4.455   0.748 -31.589  1.00  0.00     0.121 C 
BRANCH  27  28
HETATM   28  C   UNL     1      -3.397   1.856 -31.562  1.00  0.00     0.047 C 
BRANCH  28  29
HETATM   29  C   UNL     1      -4.012   3.186 -31.131  1.00  0.00     0.236 C 
BRANCH  29  30
HETATM   30  N   UNL     1      -2.977   4.295 -31.146  1.00  0.00    -0.067 N 
HETATM   31  H   UNL     1      -2.338   4.149 -30.355  1.00  0.00     0.280 HD
HETATM   32  C   UNL     1      -2.140   4.336 -32.425  1.00  0.00     0.261 C 
HETATM   33  C   UNL     1      -1.148   5.503 -32.354  1.00  0.00     0.195 C 
HETATM   34  O   UNL     1      -1.827   6.746 -32.159  1.00  0.00    -0.388 OA
HETATM   35  C   UNL     1      -2.574   6.760 -30.938  1.00  0.00     0.195 C 
HETATM   36  C   UNL     1      -3.642   5.661 -30.937  1.00  0.00     0.261 C 
ENDBRANCH  29  30
ENDBRANCH  28  29
ENDBRANCH  27  28
ENDBRANCH  25  27
ENDBRANCH   2  25
BRANCH   5  37
HETATM   37  N   UNL     1      -5.835  -4.629 -34.997  1.00  0.00    -0.116 N 
HETATM   38  O   UNL     1      -5.042  -5.508 -34.631  1.00  0.00    -0.532 OA
HETATM   39  O   UNL     1      -6.803  -4.813 -35.745  1.00  0.00    -0.532 OA
ENDBRANCH   5  37
TORSDOF 11
ENDMDL
MODEL 4
REMARK VINA RESULT:      -8.0      2.641      6.380
REMARK  11 active torsions:
REMARK  status: ('A' for Active; 'I' for Inactive)
REMARK    1  A    between atoms: C_2  and  O_3 
REMARK    2  A    between atoms: O_3  and  C_4 
REMARK    3  A    between atoms: C_4  and  C_5 
REMARK    4  A    between atoms: C_6  and  N_7 
REMARK       I    between atoms: N_7  and  C_8 
REMARK    5  A    between atoms: C_8  and  C_9 
REMARK    6  A    between atoms: C_10  and  N_11 
REMARK    7  A    between atoms: N_11  and  C_12 
REMARK    8  A    between atoms: C_12  and  C_13 
REMARK    9  A    between atoms: C_13  and  C_14 
REMARK   10  A    between atoms: C_14  and  N_15 
REMARK   11  A    between atoms: C_24  and  N_25 
ROOT
HETATM    1  C   UNL     1      -5.651   3.148 -32.313  1.00  0.00     0.061 A 
HETATM    2  C   UNL     1      -4.662   2.341 -31.690  1.00  0.00     0.043 A 
HETATM    3  C   UNL     1      -3.322   2.641 -31.994  1.00  0.00     0.032 A 
HETATM    4  C   UNL     1      -2.975   3.698 -32.847  1.00  0.00     0.038 A 
HETATM    5  C   UNL     1      -3.974   4.471 -33.442  1.00  0.00     0.104 A 
HETATM    6  C   UNL     1      -5.316   4.200 -33.182  1.00  0.00     0.055 A 
ENDROOT
BRANCH   1   7
HETATM    7  C   UNL     1      -7.104   2.920 -32.113  1.00  0.00     0.258 C 
HETATM    8  N   UNL     1      -7.792   2.626 -33.276  1.00  0.00    -0.316 N 
HETATM    9  H   UNL     1      -7.276   2.619 -34.153  1.00  0.00     0.169 HD
HETATM   10  O   UNL     1      -7.540   3.024 -30.976  1.00  0.00    -0.267 OA
BRANCH   8  11
HETATM   11  C   UNL     1      -9.139   2.303 -33.385  1.00  0.00     0.094 A 
HETATM   12  C   UNL     1     -10.166   3.162 -33.765  1.00  0.00     0.080 A 
HETATM   13  C   UNL     1     -11.425   2.441 -33.855  1.00  0.00    -0.026 A 
HETATM   14  C   UNL     1     -11.260   1.099 -33.565  1.00  0.00    -0.008 A 
HETATM   15  C   UNL     1     -12.773   2.986 -34.246  1.00  0.00     0.041 C 
HETATM   16  S   UNL     1      -9.674   0.717 -33.115  1.00  0.00    -0.075 SA
HETATM   17  C   UNL     1     -12.338   0.058 -33.585  1.00  0.00     0.047 C 
HETATM   18  C   UNL     1     -13.565   0.573 -34.350  1.00  0.00     0.005 C 
HETATM   19  C   UNL     1     -13.917   2.005 -33.936  1.00  0.00     0.005 C 
BRANCH  12  20
HETATM   20  C   UNL     1      -9.929   4.590 -33.997  1.00  0.00     0.296 C 
HETATM   21  O   UNL     1      -9.060   4.997 -34.766  1.00  0.00    -0.259 OA
BRANCH  20  22
HETATM   22  O   UNL     1     -10.740   5.398 -33.263  1.00  0.00    -0.318 OA
BRANCH  22  23
HETATM   23  C   UNL     1     -11.326   6.522 -33.935  1.00  0.00     0.174 C 
HETATM   24  C   UNL     1     -12.738   6.744 -33.431  1.00  0.00     0.034 C 
ENDBRANCH  22  23
ENDBRANCH  20  22
ENDBRANCH  12  20
ENDBRANCH   8  11
ENDBRANCH   1   7
BRANCH   2  25
HETATM   25  N   UNL     1      -5.020   1.193 -30.960  1.00  0.00    -0.389 N 
HETATM   26  H   UNL     1      -4.859   1.313 -29.958  1.00  0.00     0.159 HD
BRANCH  25  27
HETATM   27  C   UNL     1      -4.669  -0.139 -31.432  1.00  0.00     0.121 C 
BRANCH  27  28
HETATM   28  C   UNL     1      -5.436  -0.429 -32.726  1.00  0.00     0.047 C 
BRANCH  28  29
HETATM   29  C   UNL     1      -4.599  -1.282 -33.678  1.00  0.00     0.236 C 
BRANCH  29  30
HETATM   30  N   UNL     1      -5.164  -2.685 -33.793  1.00  0.00    -0.067 N 
HETATM   31  H   UNL     1      -5.526  -2.962 -32.872  1.00  0.00     0.280 HD
HETATM   32  C   UNL     1      -6.305  -2.806 -34.803  1.00  0.00     0.261 C 
HETATM   33  C   UNL     1      -6.785  -4.260 -34.866  1.00  0.00     0.195 C 
HETATM   34  O   UNL     1      -5.714  -5.143 -35.211  1.00  0.00    -0.388 OA
HETATM   35  C   UNL     1      -4.654  -5.095 -34.251  1.00  0.00     0.195 C 
HETATM   36  C   UNL     1      -4.061  -3.686 -34.159  1.00  0.00     0.261 C 
ENDBRANCH  29  30
ENDBRANCH  28  29
ENDBRANCH  27  28
ENDBRANCH  25  27
ENDBRANCH   2  25
BRANCH   5  37
HETATM   37  N   UNL     1      -3.610   5.564 -34.351  1.00  0.00    -0.116 N 
HETATM   38  O   UNL     1      -3.825   5.397 -35.559  1.00  0.00    -0.532 OA
HETATM   39  O   UNL     1      -3.104   6.578 -33.853  1.00  0.00    -0.532 OA
ENDBRANCH   5  37
TORSDOF 11
ENDMDL
MODEL 5
REMARK VINA RESULT:      -8.0      2.708      7.461
REMARK  11 active torsions:
REMARK  status: ('A' for Active; 'I' for Inactive)
REMARK    1  A    between atoms: C_2  and  O_3 
REMARK    2  A    between atoms: O_3  and  C_4 
REMARK    3  A    between atoms: C_4  and  C_5 
REMARK    4  A    between atoms: C_6  and  N_7 
REMARK       I    between atoms: N_7  and  C_8 
REMARK    5  A    between atoms: C_8  and  C_9 
REMARK    6  A    between atoms: C_10  and  N_11 
REMARK    7  A    between atoms: N_11  and  C_12 
REMARK    8  A    between atoms: C_12  and  C_13 
REMARK    9  A    between atoms: C_13  and  C_14 
REMARK   10  A    between atoms: C_14  and  N_15 
REMARK   11  A    between atoms: C_24  and  N_25 
ROOT
HETATM    1  C   UNL     1      -6.403  -0.628 -33.261  1.00  0.00     0.061 A 
HETATM    2  C   UNL     1      -5.069  -0.299 -32.902  1.00  0.00     0.043 A 
HETATM    3  C   UNL     1      -4.083  -1.255 -33.204  1.00  0.00     0.032 A 
HETATM    4  C   UNL     1      -4.391  -2.460 -33.851  1.00  0.00     0.038 A 
HETATM    5  C   UNL     1      -5.715  -2.749 -34.190  1.00  0.00     0.104 A 
HETATM    6  C   UNL     1      -6.728  -1.839 -33.895  1.00  0.00     0.055 A 
ENDROOT
BRANCH   1   7
HETATM    7  C   UNL     1      -7.549   0.269 -32.967  1.00  0.00     0.258 C 
HETATM    8  N   UNL     1      -7.894   1.101 -34.015  1.00  0.00    -0.316 N 
HETATM    9  H   UNL     1      -7.340   1.060 -34.867  1.00  0.00     0.169 HD
HETATM   10  O   UNL     1      -8.051   0.195 -31.855  1.00  0.00    -0.267 OA
BRANCH   8  11
HETATM   11  C   UNL     1      -8.960   1.992 -34.051  1.00  0.00     0.094 A 
HETATM   12  C   UNL     1      -8.890   3.371 -33.874  1.00  0.00     0.080 A 
HETATM   13  C   UNL     1     -10.195   3.977 -34.075  1.00  0.00    -0.026 A 
HETATM   14  C   UNL     1     -11.146   3.030 -34.409  1.00  0.00    -0.008 A 
HETATM   15  C   UNL     1     -10.557   5.437 -33.995  1.00  0.00     0.041 C 
HETATM   16  S   UNL     1     -10.529   1.454 -34.404  1.00  0.00    -0.075 SA
HETATM   17  C   UNL     1     -12.588   3.302 -34.711  1.00  0.00     0.047 C 
HETATM   18  C   UNL     1     -12.803   4.794 -34.995  1.00  0.00     0.005 C 
HETATM   19  C   UNL     1     -12.077   5.666 -33.966  1.00  0.00     0.005 C 
BRANCH  12  20
HETATM   20  C   UNL     1      -7.636   4.037 -33.510  1.00  0.00     0.296 C 
HETATM   21  O   UNL     1      -7.108   4.887 -34.227  1.00  0.00    -0.259 OA
BRANCH  20  22
HETATM   22  O   UNL     1      -7.116   3.603 -32.331  1.00  0.00    -0.318 OA
BRANCH  22  23
HETATM   23  C   UNL     1      -7.770   4.032 -31.129  1.00  0.00     0.174 C 
HETATM   24  C   UNL     1      -7.376   3.129 -29.978  1.00  0.00     0.034 C 
ENDBRANCH  22  23
ENDBRANCH  20  22
ENDBRANCH  12  20
ENDBRANCH   8  11
ENDBRANCH   1   7
BRANCH   2  25
HETATM   25  N   UNL     1      -4.789   0.837 -32.121  1.00  0.00    -0.389 N 
HETATM   26  H   UNL     1      -5.538   1.530 -32.174  1.00  0.00     0.159 HD
BRANCH  25  27
HETATM   27  C   UNL     1      -3.463   1.440 -32.116  1.00  0.00     0.121 C 
BRANCH  27  28
HETATM   28  C   UNL     1      -3.589   2.923 -31.753  1.00  0.00     0.047 C 
BRANCH  28  29
HETATM   29  C   UNL     1      -3.812   3.773 -33.002  1.00  0.00     0.236 C 
BRANCH  29  30
HETATM   30  N   UNL     1      -2.773   4.875 -33.103  1.00  0.00    -0.067 N 
HETATM   31  H   UNL     1      -2.051   4.701 -32.393  1.00  0.00     0.280 HD
HETATM   32  C   UNL     1      -2.086   4.947 -34.466  1.00  0.00     0.261 C 
HETATM   33  C   UNL     1      -1.080   6.104 -34.475  1.00  0.00     0.195 C 
HETATM   34  O   UNL     1      -1.719   7.346 -34.169  1.00  0.00    -0.388 OA
HETATM   35  C   UNL     1      -2.324   7.329 -32.872  1.00  0.00     0.195 C 
HETATM   36  C   UNL     1      -3.396   6.239 -32.781  1.00  0.00     0.261 C 
ENDBRANCH  29  30
ENDBRANCH  28  29
ENDBRANCH  27  28
ENDBRANCH  25  27
ENDBRANCH   2  25
BRANCH   5  37
HETATM   37  N   UNL     1      -6.039  -4.020 -34.849  1.00  0.00    -0.116 N 
HETATM   38  O   UNL     1      -7.028  -4.039 -35.595  1.00  0.00    -0.532 OA
HETATM   39  O   UNL     1      -5.310  -4.991 -34.611  1.00  0.00    -0.532 OA
ENDBRANCH   5  37
TORSDOF 11
ENDMDL
MODEL 6
REMARK VINA RESULT:      -8.0      1.988      2.889
REMARK  11 active torsions:
REMARK  status: ('A' for Active; 'I' for Inactive)
REMARK    1  A    between atoms: C_2  and  O_3 
REMARK    2  A    between atoms: O_3  and  C_4 
REMARK    3  A    between atoms: C_4  and  C_5 
REMARK    4  A    between atoms: C_6  and  N_7 
REMARK       I    between atoms: N_7  and  C_8 
REMARK    5  A    between atoms: C_8  and  C_9 
REMARK    6  A    between atoms: C_10  and  N_11 
REMARK    7  A    between atoms: N_11  and  C_12 
REMARK    8  A    between atoms: C_12  and  C_13 
REMARK    9  A    between atoms: C_13  and  C_14 
REMARK   10  A    between atoms: C_14  and  N_15 
REMARK   11  A    between atoms: C_24  and  N_25 
ROOT
HETATM    1  C   UNL     1      -3.514   3.367 -32.130  1.00  0.00     0.061 A 
HETATM    2  C   UNL     1      -4.120   4.183 -31.138  1.00  0.00     0.043 A 
HETATM    3  C   UNL     1      -3.862   5.563 -31.216  1.00  0.00     0.032 A 
HETATM    4  C   UNL     1      -3.071   6.114 -32.234  1.00  0.00     0.038 A 
HETATM    5  C   UNL     1      -2.491   5.280 -33.193  1.00  0.00     0.104 A 
HETATM    6  C   UNL     1      -2.706   3.904 -33.146  1.00  0.00     0.055 A 
ENDROOT
BRANCH   1   7
HETATM    7  C   UNL     1      -3.668   1.891 -32.147  1.00  0.00     0.258 C 
HETATM    8  N   UNL     1      -4.586   1.432 -33.074  1.00  0.00    -0.316 N 
HETATM    9  H   UNL     1      -5.090   2.115 -33.633  1.00  0.00     0.169 HD
HETATM   10  O   UNL     1      -2.999   1.245 -31.353  1.00  0.00    -0.267 OA
BRANCH   8  11
HETATM   11  C   UNL     1      -4.886   0.105 -33.358  1.00  0.00     0.094 A 
HETATM   12  C   UNL     1      -6.115  -0.391 -33.783  1.00  0.00     0.080 A 
HETATM   13  C   UNL     1      -6.018  -1.812 -34.069  1.00  0.00    -0.026 A 
HETATM   14  C   UNL     1      -4.734  -2.282 -33.867  1.00  0.00    -0.008 A 
HETATM   15  C   UNL     1      -7.105  -2.729 -34.566  1.00  0.00     0.041 C 
HETATM   16  S   UNL     1      -3.688  -1.092 -33.273  1.00  0.00    -0.075 SA
HETATM   17  C   UNL     1      -4.269  -3.690 -34.089  1.00  0.00     0.047 C 
HETATM   18  C   UNL     1      -5.282  -4.460 -34.944  1.00  0.00     0.005 C 
HETATM   19  C   UNL     1      -6.716  -4.213 -34.463  1.00  0.00     0.005 C 
BRANCH  12  20
HETATM   20  C   UNL     1      -7.300   0.466 -33.876  1.00  0.00     0.296 C 
HETATM   21  O   UNL     1      -7.299   1.528 -34.498  1.00  0.00    -0.259 OA
BRANCH  20  22
HETATM   22  O   UNL     1      -8.371  -0.016 -33.191  1.00  0.00    -0.318 OA
BRANCH  22  23
HETATM   23  C   UNL     1      -9.320   0.941 -32.701  1.00  0.00     0.174 C 
HETATM   24  C   UNL     1     -10.662   0.725 -33.372  1.00  0.00     0.034 C 
ENDBRANCH  22  23
ENDBRANCH  20  22
ENDBRANCH  12  20
ENDBRANCH   8  11
ENDBRANCH   1   7
BRANCH   2  25
HETATM   25  N   UNL     1      -4.784   3.611 -30.038  1.00  0.00    -0.389 N 
HETATM   26  H   UNL     1      -4.219   2.891 -29.584  1.00  0.00     0.159 HD
BRANCH  25  27
HETATM   27  C   UNL     1      -6.196   3.258 -30.110  1.00  0.00     0.121 C 
BRANCH  27  28
HETATM   28  C   UNL     1      -7.023   4.537 -30.273  1.00  0.00     0.047 C 
BRANCH  28  29
HETATM   29  C   UNL     1      -7.455   5.085 -28.914  1.00  0.00     0.236 C 
BRANCH  29  30
HETATM   30  N   UNL     1      -6.582   6.254 -28.496  1.00  0.00    -0.067 N 
HETATM   31  H   UNL     1      -6.020   6.540 -29.307  1.00  0.00     0.280 HD
HETATM   32  C   UNL     1      -7.375   7.471 -28.019  1.00  0.00     0.261 C 
HETATM   33  C   UNL     1      -6.407   8.581 -27.594  1.00  0.00     0.195 C 
HETATM   34  O   UNL     1      -5.518   8.128 -26.569  1.00  0.00    -0.388 OA
HETATM   35  C   UNL     1      -4.720   7.023 -27.007  1.00  0.00     0.195 C 
HETATM   36  C   UNL     1      -5.600   5.832 -27.397  1.00  0.00     0.261 C 
ENDBRANCH  29  30
ENDBRANCH  28  29
ENDBRANCH  27  28
ENDBRANCH  25  27
ENDBRANCH   2  25
BRANCH   5  37
HETATM   37  N   UNL     1      -1.647   5.855 -34.246  1.00  0.00    -0.116 N 
HETATM   38  O   UNL     1      -1.175   6.983 -34.047  1.00  0.00    -0.532 OA
HETATM   39  O   UNL     1      -1.466   5.181 -35.268  1.00  0.00    -0.532 OA
ENDBRANCH   5  37
TORSDOF 11
ENDMDL
MODEL 7
REMARK VINA RESULT:      -7.9      3.007      7.034
REMARK  11 active torsions:
REMARK  status: ('A' for Active; 'I' for Inactive)
REMARK    1  A    between atoms: C_2  and  O_3 
REMARK    2  A    between atoms: O_3  and  C_4 
REMARK    3  A    between atoms: C_4  and  C_5 
REMARK    4  A    between atoms: C_6  and  N_7 
REMARK       I    between atoms: N_7  and  C_8 
REMARK    5  A    between atoms: C_8  and  C_9 
REMARK    6  A    between atoms: C_10  and  N_11 
REMARK    7  A    between atoms: N_11  and  C_12 
REMARK    8  A    between atoms: C_12  and  C_13 
REMARK    9  A    between atoms: C_13  and  C_14 
REMARK   10  A    between atoms: C_14  and  N_15 
REMARK   11  A    between atoms: C_24  and  N_25 
ROOT
HETATM    1  C   UNL     1      -6.168   0.714 -32.767  1.00  0.00     0.061 A 
HETATM    2  C   UNL     1      -7.580   0.620 -32.877  1.00  0.00     0.043 A 
HETATM    3  C   UNL     1      -8.086  -0.534 -33.501  1.00  0.00     0.032 A 
HETATM    4  C   UNL     1      -7.245  -1.554 -33.968  1.00  0.00     0.038 A 
HETATM    5  C   UNL     1      -5.860  -1.427 -33.842  1.00  0.00     0.104 A 
HETATM    6  C   UNL     1      -5.313  -0.293 -33.245  1.00  0.00     0.055 A 
ENDROOT
BRANCH   1   7
HETATM    7  C   UNL     1      -5.495   1.894 -32.167  1.00  0.00     0.258 C 
HETATM    8  N   UNL     1      -4.461   2.401 -32.933  1.00  0.00    -0.316 N 
HETATM    9  H   UNL     1      -4.228   1.929 -33.802  1.00  0.00     0.169 HD
HETATM   10  O   UNL     1      -5.900   2.281 -31.080  1.00  0.00    -0.267 OA
BRANCH   8  11
HETATM   11  C   UNL     1      -3.702   3.532 -32.657  1.00  0.00     0.094 A 
HETATM   12  C   UNL     1      -3.781   4.760 -33.307  1.00  0.00     0.080 A 
HETATM   13  C   UNL     1      -2.898   5.727 -32.678  1.00  0.00    -0.026 A 
HETATM   14  C   UNL     1      -2.239   5.179 -31.594  1.00  0.00    -0.008 A 
HETATM   15  C   UNL     1      -2.692   7.170 -33.057  1.00  0.00     0.041 C 
HETATM   16  S   UNL     1      -2.591   3.538 -31.376  1.00  0.00    -0.075 SA
HETATM   17  C   UNL     1      -1.274   5.896 -30.699  1.00  0.00     0.047 C 
HETATM   18  C   UNL     1      -1.401   7.414 -30.881  1.00  0.00     0.005 C 
HETATM   19  C   UNL     1      -1.467   7.791 -32.365  1.00  0.00     0.005 C 
BRANCH  12  20
HETATM   20  C   UNL     1      -4.643   4.956 -34.477  1.00  0.00     0.296 C 
HETATM   21  O   UNL     1      -4.192   5.181 -35.599  1.00  0.00    -0.259 OA
BRANCH  20  22
HETATM   22  O   UNL     1      -5.970   4.889 -34.187  1.00  0.00    -0.318 OA
BRANCH  22  23
HETATM   23  C   UNL     1      -6.482   5.839 -33.242  1.00  0.00     0.174 C 
HETATM   24  C   UNL     1      -7.469   5.160 -32.313  1.00  0.00     0.034 C 
ENDBRANCH  22  23
ENDBRANCH  20  22
ENDBRANCH  12  20
ENDBRANCH   8  11
ENDBRANCH   1   7
BRANCH   2  25
HETATM   25  N   UNL     1      -8.406   1.710 -32.546  1.00  0.00    -0.389 N 
HETATM   26  H   UNL     1      -8.672   1.701 -31.560  1.00  0.00     0.159 HD
BRANCH  25  27
HETATM   27  C   UNL     1      -9.496   2.121 -33.420  1.00  0.00     0.121 C 
BRANCH  27  28
HETATM   28  C   UNL     1     -10.521   2.915 -32.603  1.00  0.00     0.047 C 
BRANCH  28  29
HETATM   29  C   UNL     1     -11.748   3.253 -33.448  1.00  0.00     0.236 C 
BRANCH  29  30
HETATM   30  N   UNL     1     -12.923   2.365 -33.082  1.00  0.00    -0.067 N 
HETATM   31  H   UNL     1     -12.576   1.606 -32.481  1.00  0.00     0.280 HD
HETATM   32  C   UNL     1     -14.031   3.096 -32.324  1.00  0.00     0.261 C 
HETATM   33  C   UNL     1     -15.179   2.124 -32.027  1.00  0.00     0.195 C 
HETATM   34  O   UNL     1     -15.691   1.547 -33.231  1.00  0.00    -0.388 OA
HETATM   35  C   UNL     1     -14.688   0.805 -33.935  1.00  0.00     0.195 C 
HETATM   36  C   UNL     1     -13.518   1.709 -34.333  1.00  0.00     0.261 C 
ENDBRANCH  29  30
ENDBRANCH  28  29
ENDBRANCH  27  28
ENDBRANCH  25  27
ENDBRANCH   2  25
BRANCH   5  37
HETATM   37  N   UNL     1      -4.980  -2.486 -34.349  1.00  0.00    -0.116 N 
HETATM   38  O   UNL     1      -4.010  -2.805 -33.648  1.00  0.00    -0.532 OA
HETATM   39  O   UNL     1      -5.258  -2.986 -35.446  1.00  0.00    -0.532 OA
ENDBRANCH   5  37
TORSDOF 11
ENDMDL
MODEL 8
REMARK VINA RESULT:      -7.9      2.007      2.725
REMARK  11 active torsions:
REMARK  status: ('A' for Active; 'I' for Inactive)
REMARK    1  A    between atoms: C_2  and  O_3 
REMARK    2  A    between atoms: O_3  and  C_4 
REMARK    3  A    between atoms: C_4  and  C_5 
REMARK    4  A    between atoms: C_6  and  N_7 
REMARK       I    between atoms: N_7  and  C_8 
REMARK    5  A    between atoms: C_8  and  C_9 
REMARK    6  A    between atoms: C_10  and  N_11 
REMARK    7  A    between atoms: N_11  and  C_12 
REMARK    8  A    between atoms: C_12  and  C_13 
REMARK    9  A    between atoms: C_13  and  C_14 
REMARK   10  A    between atoms: C_14  and  N_15 
REMARK   11  A    between atoms: C_24  and  N_25 
ROOT
HETATM    1  C   UNL     1      -4.767   3.356 -31.814  1.00  0.00     0.061 A 
HETATM    2  C   UNL     1      -5.709   4.384 -32.086  1.00  0.00     0.043 A 
HETATM    3  C   UNL     1      -5.242   5.707 -31.985  1.00  0.00     0.032 A 
HETATM    4  C   UNL     1      -3.910   6.000 -31.660  1.00  0.00     0.038 A 
HETATM    5  C   UNL     1      -3.012   4.963 -31.399  1.00  0.00     0.104 A 
HETATM    6  C   UNL     1      -3.434   3.637 -31.470  1.00  0.00     0.055 A 
ENDROOT
BRANCH   1   7
HETATM    7  C   UNL     1      -5.132   1.917 -31.844  1.00  0.00     0.258 C 
HETATM    8  N   UNL     1      -4.738   1.262 -32.996  1.00  0.00    -0.316 N 
HETATM    9  H   UNL     1      -4.273   1.800 -33.722  1.00  0.00     0.169 HD
HETATM   10  O   UNL     1      -5.738   1.469 -30.881  1.00  0.00    -0.267 OA
BRANCH   8  11
HETATM   11  C   UNL     1      -4.884  -0.092 -33.271  1.00  0.00     0.094 A 
HETATM   12  C   UNL     1      -5.897  -0.678 -34.025  1.00  0.00     0.080 A 
HETATM   13  C   UNL     1      -5.662  -2.104 -34.173  1.00  0.00    -0.026 A 
HETATM   14  C   UNL     1      -4.490  -2.490 -33.549  1.00  0.00    -0.008 A 
HETATM   15  C   UNL     1      -6.502  -3.105 -34.922  1.00  0.00     0.041 C 
HETATM   16  S   UNL     1      -3.729  -1.214 -32.739  1.00  0.00    -0.075 SA
HETATM   17  C   UNL     1      -3.926  -3.878 -33.522  1.00  0.00     0.047 C 
HETATM   18  C   UNL     1      -4.589  -4.747 -34.599  1.00  0.00     0.005 C 
HETATM   19  C   UNL     1      -6.110  -4.557 -34.606  1.00  0.00     0.005 C 
BRANCH  12  20
HETATM   20  C   UNL     1      -7.024   0.106 -34.539  1.00  0.00     0.296 C 
HETATM   21  O   UNL     1      -7.214   0.277 -35.742  1.00  0.00    -0.259 OA
BRANCH  20  22
HETATM   22  O   UNL     1      -7.805   0.635 -33.560  1.00  0.00    -0.318 OA
BRANCH  22  23
HETATM   23  C   UNL     1      -9.196   0.819 -33.860  1.00  0.00     0.174 C 
HETATM   24  C   UNL     1     -10.042   0.030 -32.880  1.00  0.00     0.034 C 
ENDBRANCH  22  23
ENDBRANCH  20  22
ENDBRANCH  12  20
ENDBRANCH   8  11
ENDBRANCH   1   7
BRANCH   2  25
HETATM   25  N   UNL     1      -7.073   4.088 -32.262  1.00  0.00    -0.389 N 
HETATM   26  H   UNL     1      -7.268   3.095 -32.124  1.00  0.00     0.159 HD
BRANCH  25  27
HETATM   27  C   UNL     1      -7.833   4.664 -33.363  1.00  0.00     0.121 C 
BRANCH  27  28
HETATM   28  C   UNL     1      -9.329   4.476 -33.090  1.00  0.00     0.047 C 
BRANCH  28  29
HETATM   29  C   UNL     1     -10.137   4.592 -34.381  1.00  0.00     0.236 C 
BRANCH  29  30
HETATM   30  N   UNL     1     -11.531   4.020 -34.204  1.00  0.00    -0.067 N 
HETATM   31  H   UNL     1     -12.211   4.752 -34.445  1.00  0.00     0.280 HD
HETATM   32  C   UNL     1     -11.813   2.807 -35.090  1.00  0.00     0.261 C 
HETATM   33  C   UNL     1     -13.230   2.289 -34.818  1.00  0.00     0.195 C 
HETATM   34  O   UNL     1     -13.400   1.953 -33.438  1.00  0.00    -0.388 OA
HETATM   35  C   UNL     1     -13.199   3.085 -32.585  1.00  0.00     0.195 C 
HETATM   36  C   UNL     1     -11.780   3.642 -32.739  1.00  0.00     0.261 C 
ENDBRANCH  29  30
ENDBRANCH  28  29
ENDBRANCH  27  28
ENDBRANCH  25  27
ENDBRANCH   2  25
BRANCH   5  37
HETATM   37  N   UNL     1      -1.623   5.272 -31.039  1.00  0.00    -0.116 N 
HETATM   38  O   UNL     1      -1.434   6.208 -30.250  1.00  0.00    -0.532 OA
HETATM   39  O   UNL     1      -0.732   4.583 -31.550  1.00  0.00    -0.532 OA
ENDBRANCH   5  37
TORSDOF 11
ENDMDL
MODEL 9
REMARK VINA RESULT:      -7.7      3.000      7.085
REMARK  11 active torsions:
REMARK  status: ('A' for Active; 'I' for Inactive)
REMARK    1  A    between atoms: C_2  and  O_3 
REMARK    2  A    between atoms: O_3  and  C_4 
REMARK    3  A    between atoms: C_4  and  C_5 
REMARK    4  A    between atoms: C_6  and  N_7 
REMARK       I    between atoms: N_7  and  C_8 
REMARK    5  A    between atoms: C_8  and  C_9 
REMARK    6  A    between atoms: C_10  and  N_11 
REMARK    7  A    between atoms: N_11  and  C_12 
REMARK    8  A    between atoms: C_12  and  C_13 
REMARK    9  A    between atoms: C_13  and  C_14 
REMARK   10  A    between atoms: C_14  and  N_15 
REMARK   11  A    between atoms: C_24  and  N_25 
ROOT
HETATM    1  C   UNL     1      -5.144   0.107 -32.901  1.00  0.00     0.061 A 
HETATM    2  C   UNL     1      -4.293   1.007 -32.208  1.00  0.00     0.043 A 
HETATM    3  C   UNL     1      -3.150   0.454 -31.604  1.00  0.00     0.032 A 
HETATM    4  C   UNL     1      -2.847  -0.912 -31.703  1.00  0.00     0.038 A 
HETATM    5  C   UNL     1      -3.708  -1.768 -32.394  1.00  0.00     0.104 A 
HETATM    6  C   UNL     1      -4.861  -1.266 -32.993  1.00  0.00     0.055 A 
ENDROOT
BRANCH   1   7
HETATM    7  C   UNL     1      -6.404   0.546 -33.552  1.00  0.00     0.258 C 
HETATM    8  N   UNL     1      -7.432   0.809 -32.665  1.00  0.00    -0.316 N 
HETATM    9  H   UNL     1      -7.264   0.658 -31.673  1.00  0.00     0.169 HD
HETATM   10  O   UNL     1      -6.414   0.617 -34.772  1.00  0.00    -0.267 OA
BRANCH   8  11
HETATM   11  C   UNL     1      -8.695   1.295 -32.979  1.00  0.00     0.094 A 
HETATM   12  C   UNL     1      -9.013   2.606 -33.323  1.00  0.00     0.080 A 
HETATM   13  C   UNL     1     -10.418   2.713 -33.677  1.00  0.00    -0.026 A 
HETATM   14  C   UNL     1     -11.053   1.487 -33.602  1.00  0.00    -0.008 A 
HETATM   15  C   UNL     1     -11.167   3.942 -34.121  1.00  0.00     0.041 C 
HETATM   16  S   UNL     1     -10.033   0.256 -33.046  1.00  0.00    -0.075 SA
HETATM   17  C   UNL     1     -12.492   1.222 -33.922  1.00  0.00     0.047 C 
HETATM   18  C   UNL     1     -13.086   2.388 -34.723  1.00  0.00     0.005 C 
HETATM   19  C   UNL     1     -12.691   3.737 -34.115  1.00  0.00     0.005 C 
BRANCH  12  20
HETATM   20  C   UNL     1      -8.013   3.677 -33.280  1.00  0.00     0.296 C 
HETATM   21  O   UNL     1      -7.795   4.414 -34.240  1.00  0.00    -0.259 OA
BRANCH  20  22
HETATM   22  O   UNL     1      -7.347   3.747 -32.096  1.00  0.00    -0.318 OA
BRANCH  22  23
HETATM   23  C   UNL     1      -8.097   4.167 -30.948  1.00  0.00     0.174 C 
HETATM   24  C   UNL     1      -7.646   3.391 -29.727  1.00  0.00     0.034 C 
ENDBRANCH  22  23
ENDBRANCH  20  22
ENDBRANCH  12  20
ENDBRANCH   8  11
ENDBRANCH   1   7
BRANCH   2  25
HETATM   25  N   UNL     1      -4.680   2.341 -31.985  1.00  0.00    -0.389 N 
HETATM   26  H   UNL     1      -5.695   2.452 -32.005  1.00  0.00     0.159 HD
BRANCH  25  27
HETATM   27  C   UNL     1      -3.979   3.446 -32.627  1.00  0.00     0.121 C 
BRANCH  27  28
HETATM   28  C   UNL     1      -2.774   3.841 -31.767  1.00  0.00     0.047 C 
BRANCH  28  29
HETATM   29  C   UNL     1      -2.778   5.341 -31.480  1.00  0.00     0.236 C 
BRANCH  29  30
HETATM   30  N   UNL     1      -1.840   5.680 -30.336  1.00  0.00    -0.067 N 
HETATM   31  H   UNL     1      -2.210   5.248 -29.480  1.00  0.00     0.280 HD
HETATM   32  C   UNL     1      -0.413   5.171 -30.542  1.00  0.00     0.261 C 
HETATM   33  C   UNL     1       0.458   5.587 -29.350  1.00  0.00     0.195 C 
HETATM   34  O   UNL     1       0.451   7.006 -29.176  1.00  0.00    -0.388 OA
HETATM   35  C   UNL     1      -0.866   7.506 -28.924  1.00  0.00     0.195 C 
HETATM   36  C   UNL     1      -1.804   7.194 -30.094  1.00  0.00     0.261 C 
ENDBRANCH  29  30
ENDBRANCH  28  29
ENDBRANCH  27  28
ENDBRANCH  25  27
ENDBRANCH   2  25
BRANCH   5  37
HETATM   37  N   UNL     1      -3.400  -3.200 -32.479  1.00  0.00    -0.116 N 
HETATM   38  O   UNL     1      -3.725  -3.792 -33.517  1.00  0.00    -0.532 OA
HETATM   39  O   UNL     1      -2.843  -3.726 -31.507  1.00  0.00    -0.532 OA
ENDBRANCH   5  37
TORSDOF 11
ENDMDL
MODEL 10
REMARK VINA RESULT:      -7.6      2.888      7.246
REMARK  11 active torsions:
REMARK  status: ('A' for Active; 'I' for Inactive)
REMARK    1  A    between atoms: C_2  and  O_3 
REMARK    2  A    between atoms: O_3  and  C_4 
REMARK    3  A    between atoms: C_4  and  C_5 
REMARK    4  A    between atoms: C_6  and  N_7 
REMARK       I    between atoms: N_7  and  C_8 
REMARK    5  A    between atoms: C_8  and  C_9 
REMARK    6  A    between atoms: C_10  and  N_11 
REMARK    7  A    between atoms: N_11  and  C_12 
REMARK    8  A    between atoms: C_12  and  C_13 
REMARK    9  A    between atoms: C_13  and  C_14 
REMARK   10  A    between atoms: C_14  and  N_15 
REMARK   11  A    between atoms: C_24  and  N_25 
ROOT
HETATM    1  C   UNL     1      -6.403   1.133 -33.520  1.00  0.00     0.061 A 
HETATM    2  C   UNL     1      -7.788   0.901 -33.310  1.00  0.00     0.043 A 
HETATM    3  C   UNL     1      -8.236  -0.421 -33.478  1.00  0.00     0.032 A 
HETATM    4  C   UNL     1      -7.360  -1.465 -33.809  1.00  0.00     0.038 A 
HETATM    5  C   UNL     1      -6.004  -1.199 -34.007  1.00  0.00     0.104 A 
HETATM    6  C   UNL     1      -5.517   0.099 -33.868  1.00  0.00     0.055 A 
ENDROOT
BRANCH   1   7
HETATM    7  C   UNL     1      -5.799   2.485 -33.415  1.00  0.00     0.258 C 
HETATM    8  N   UNL     1      -4.870   2.609 -32.398  1.00  0.00    -0.316 N 
HETATM    9  H   UNL     1      -4.698   1.804 -31.801  1.00  0.00     0.169 HD
HETATM   10  O   UNL     1      -6.181   3.336 -34.206  1.00  0.00    -0.267 OA
BRANCH   8  11
HETATM   11  C   UNL     1      -4.102   3.730 -32.108  1.00  0.00     0.094 A 
HETATM   12  C   UNL     1      -4.401   4.716 -31.173  1.00  0.00     0.080 A 
HETATM   13  C   UNL     1      -3.315   5.678 -31.083  1.00  0.00    -0.026 A 
HETATM   14  C   UNL     1      -2.273   5.344 -31.928  1.00  0.00    -0.008 A 
HETATM   15  C   UNL     1      -3.225   6.887 -30.188  1.00  0.00     0.041 C 
HETATM   16  S   UNL     1      -2.604   3.974 -32.864  1.00  0.00    -0.075 SA
HETATM   17  C   UNL     1      -0.986   6.097 -32.074  1.00  0.00     0.047 C 
HETATM   18  C   UNL     1      -0.789   7.056 -30.893  1.00  0.00     0.005 C 
HETATM   19  C   UNL     1      -2.076   7.828 -30.584  1.00  0.00     0.005 C 
BRANCH  12  20
HETATM   20  C   UNL     1      -5.672   4.724 -30.442  1.00  0.00     0.296 C 
HETATM   21  O   UNL     1      -6.753   4.897 -31.001  1.00  0.00    -0.259 OA
BRANCH  20  22
HETATM   22  O   UNL     1      -5.525   4.548 -29.101  1.00  0.00    -0.318 OA
BRANCH  22  23
HETATM   23  C   UNL     1      -6.140   5.519 -28.242  1.00  0.00     0.174 C 
HETATM   24  C   UNL     1      -5.186   5.896 -27.127  1.00  0.00     0.034 C 
ENDBRANCH  22  23
ENDBRANCH  20  22
ENDBRANCH  12  20
ENDBRANCH   8  11
ENDBRANCH   1   7
BRANCH   2  25
HETATM   25  N   UNL     1      -8.681   1.972 -33.129  1.00  0.00    -0.389 N 
HETATM   26  H   UNL     1      -8.354   2.824 -33.589  1.00  0.00     0.159 HD
BRANCH  25  27
HETATM   27  C   UNL     1      -9.294   2.232 -31.833  1.00  0.00     0.121 C 
BRANCH  27  28
HETATM   28  C   UNL     1     -10.401   3.276 -32.002  1.00  0.00     0.047 C 
BRANCH  28  29
HETATM   29  C   UNL     1     -11.207   3.015 -33.274  1.00  0.00     0.236 C 
BRANCH  29  30
HETATM   30  N   UNL     1     -12.324   2.020 -33.016  1.00  0.00    -0.067 N 
HETATM   31  H   UNL     1     -12.282   1.741 -32.028  1.00  0.00     0.280 HD
HETATM   32  C   UNL     1     -13.719   2.581 -33.289  1.00  0.00     0.261 C 
HETATM   33  C   UNL     1     -14.770   1.495 -33.028  1.00  0.00     0.195 C 
HETATM   34  O   UNL     1     -14.528   0.338 -33.832  1.00  0.00    -0.388 OA
HETATM   35  C   UNL     1     -13.249  -0.245 -33.557  1.00  0.00     0.195 C 
HETATM   36  C   UNL     1     -12.121   0.749 -33.849  1.00  0.00     0.261 C 
ENDBRANCH  29  30
ENDBRANCH  28  29
ENDBRANCH  27  28
ENDBRANCH  25  27
ENDBRANCH   2  25
BRANCH   5  37
HETATM   37  N   UNL     1      -5.092  -2.289 -34.373  1.00  0.00    -0.116 N 
HETATM   38  O   UNL     1      -5.395  -2.980 -35.355  1.00  0.00    -0.532 OA
HETATM   39  O   UNL     1      -4.084  -2.451 -33.674  1.00  0.00    -0.532 OA
ENDBRANCH   5  37
TORSDOF 11
ENDMDL
