MODEL 1
REMARK VINA RESULT:     -10.0      0.000      0.000
REMARK  8 active torsions:
REMARK  status: ('A' for Active; 'I' for Inactive)
REMARK    1  A    between atoms: C_2  and  O_3 
REMARK    2  A    between atoms: C_2  and  C_14 
REMARK    3  A    between atoms: O_3  and  C_4 
REMARK       I    between atoms: C_14  and  N_15 
REMARK    4  A    between atoms: N_15  and  N_16 
REMARK       I    between atoms: N_16  and  C_17 
REMARK    5  A    between atoms: C_17  and  C_18 
REMARK    6  A    between atoms: C_18  and  C_19 
REMARK    7  A    between atoms: C_19  and  C_20 
REMARK    8  A    between atoms: C_20  and  C_21 
ROOT
HETATM    1  N   UNL     1      -4.588   4.749 -33.794  1.00  0.00    -0.267 N 
HETATM    2  C   UNL     1      -3.205   4.713 -33.825  1.00  0.00     0.236 C 
HETATM    3  O   UNL     1      -2.546   3.891 -33.194  1.00  0.00    -0.272 OA
HETATM    4  H   UNL     1      -5.101   5.199 -34.552  1.00  0.00     0.190 HD
ENDROOT
BRANCH   1   5
HETATM    5  N   UNL     1      -5.240   3.634 -33.229  1.00  0.00    -0.265 N 
HETATM    6  C   UNL     1      -6.553   3.417 -33.620  1.00  0.00     0.265 C 
HETATM    7  O   UNL     1      -7.208   4.275 -34.212  1.00  0.00    -0.269 OA
HETATM    8  H   UNL     1      -4.652   2.808 -33.087  1.00  0.00     0.190 HD
BRANCH   6   9
HETATM    9  C   UNL     1      -7.123   2.074 -33.141  1.00  0.00     0.218 C 
HETATM   10  C   UNL     1      -8.568   2.248 -32.690  1.00  0.00     0.050 C 
BRANCH   9  11
HETATM   11  O   UNL     1      -7.066   1.152 -34.235  1.00  0.00    -0.337 OA
BRANCH  11  12
HETATM   12  C   UNL     1      -6.279   0.041 -34.111  1.00  0.00     0.070 A 
HETATM   13  C   UNL     1      -6.862  -1.139 -34.585  1.00  0.00     0.049 A 
HETATM   14  C   UNL     1      -6.178  -2.365 -34.526  1.00  0.00    -0.023 A 
HETATM   15  C   UNL     1      -4.881  -2.404 -33.968  1.00  0.00    -0.026 A 
HETATM   16  C   UNL     1      -6.752  -3.552 -35.009  1.00  0.00     0.012 A 
HETATM   17  C   UNL     1      -4.311  -1.218 -33.482  1.00  0.00     0.015 A 
HETATM   18  C   UNL     1      -4.194  -3.627 -33.906  1.00  0.00     0.012 A 
HETATM   19  C   UNL     1      -5.006  -0.005 -33.551  1.00  0.00     0.037 A 
HETATM   20  C   UNL     1      -4.780  -4.798 -34.391  1.00  0.00     0.001 A 
HETATM   21  C   UNL     1      -6.058  -4.760 -34.942  1.00  0.00     0.001 A 
ENDBRANCH  11  12
ENDBRANCH   9  11
ENDBRANCH   6   9
ENDBRANCH   1   5
BRANCH   2  22
HETATM   22  C   UNL     1      -2.605   5.824 -34.664  1.00  0.00     0.105 C 
BRANCH  22  23
HETATM   23  C   UNL     1      -1.190   6.182 -34.213  1.00  0.00     0.014 C 
BRANCH  23  24
HETATM   24  C   UNL     1      -1.207   7.328 -33.201  1.00  0.00     0.039 C 
BRANCH  24  25
HETATM   25  C   UNL     1      -0.832   6.860 -31.814  1.00  0.00    -0.056 A 
HETATM   26  C   UNL     1      -1.347   7.518 -30.684  1.00  0.00     0.039 A 
HETATM   27  C   UNL     1      -0.978   7.027 -29.453  1.00  0.00     0.063 A 
HETATM   28  C   UNL     1      -0.136   5.926 -29.312  1.00  0.00     0.063 A 
HETATM   29  N   UNL     1      -1.323   7.466 -28.180  1.00  0.00    -0.306 N 
HETATM   30  N   UNL     1       0.037   5.688 -27.954  1.00  0.00    -0.307 N 
HETATM   31  C   UNL     1       0.380   5.256 -30.393  1.00  0.00     0.032 A 
HETATM   32  C   UNL     1      -0.699   6.641 -27.234  1.00  0.00     0.325 A 
HETATM   33  H   UNL     1       0.586   4.962 -27.524  1.00  0.00     0.170 HD
HETATM   34  O   UNL     1      -0.779   6.733 -26.022  1.00  0.00    -0.247 OA
HETATM   35  C   UNL     1       0.020   5.733 -31.660  1.00  0.00     0.009 A 
HETATM   36  H   UNL     1      -1.922   8.238 -27.942  1.00  0.00     0.170 HD
ENDBRANCH  24  25
ENDBRANCH  23  24
ENDBRANCH  22  23
ENDBRANCH   2  22
TORSDOF 8
ENDMDL
MODEL 2
REMARK VINA RESULT:      -9.9      1.398      2.019
REMARK  8 active torsions:
REMARK  status: ('A' for Active; 'I' for Inactive)
REMARK    1  A    between atoms: C_2  and  O_3 
REMARK    2  A    between atoms: C_2  and  C_14 
REMARK    3  A    between atoms: O_3  and  C_4 
REMARK       I    between atoms: C_14  and  N_15 
REMARK    4  A    between atoms: N_15  and  N_16 
REMARK       I    between atoms: N_16  and  C_17 
REMARK    5  A    between atoms: C_17  and  C_18 
REMARK    6  A    between atoms: C_18  and  C_19 
REMARK    7  A    between atoms: C_19  and  C_20 
REMARK    8  A    between atoms: C_20  and  C_21 
ROOT
HETATM    1  N   UNL     1      -3.108   4.445 -33.126  1.00  0.00    -0.267 N 
HETATM    2  C   UNL     1      -3.320   5.317 -34.180  1.00  0.00     0.236 C 
HETATM    3  O   UNL     1      -4.068   5.057 -35.119  1.00  0.00    -0.272 OA
HETATM    4  H   UNL     1      -2.766   4.802 -32.233  1.00  0.00     0.190 HD
ENDROOT
BRANCH   1   5
HETATM    5  N   UNL     1      -3.993   3.353 -33.016  1.00  0.00    -0.265 N 
HETATM    6  C   UNL     1      -3.808   2.509 -31.931  1.00  0.00     0.265 C 
HETATM    7  O   UNL     1      -2.786   2.540 -31.246  1.00  0.00    -0.269 OA
HETATM    8  H   UNL     1      -4.958   3.540 -33.305  1.00  0.00     0.190 HD
BRANCH   6   9
HETATM    9  C   UNL     1      -4.935   1.479 -31.755  1.00  0.00     0.218 C 
HETATM   10  C   UNL     1      -5.859   1.903 -30.620  1.00  0.00     0.050 C 
BRANCH   9  11
HETATM   11  O   UNL     1      -5.671   1.413 -32.980  1.00  0.00    -0.337 OA
BRANCH  11  12
HETATM   12  C   UNL     1      -5.955   0.183 -33.504  1.00  0.00     0.070 A 
HETATM   13  C   UNL     1      -4.950  -0.773 -33.325  1.00  0.00     0.049 A 
HETATM   14  C   UNL     1      -5.094  -2.083 -33.810  1.00  0.00    -0.023 A 
HETATM   15  C   UNL     1      -6.275  -2.437 -34.499  1.00  0.00    -0.026 A 
HETATM   16  C   UNL     1      -4.093  -3.050 -33.625  1.00  0.00     0.012 A 
HETATM   17  C   UNL     1      -7.271  -1.468 -34.686  1.00  0.00     0.015 A 
HETATM   18  C   UNL     1      -6.423  -3.746 -34.986  1.00  0.00     0.012 A 
HETATM   19  C   UNL     1      -7.112  -0.167 -34.195  1.00  0.00     0.037 A 
HETATM   20  C   UNL     1      -5.418  -4.696 -34.792  1.00  0.00     0.001 A 
HETATM   21  C   UNL     1      -4.254  -4.347 -34.112  1.00  0.00     0.001 A 
ENDBRANCH  11  12
ENDBRANCH   9  11
ENDBRANCH   6   9
ENDBRANCH   1   5
BRANCH   2  22
HETATM   22  C   UNL     1      -2.489   6.580 -34.077  1.00  0.00     0.105 C 
BRANCH  22  23
HETATM   23  C   UNL     1      -1.072   6.297 -33.585  1.00  0.00     0.014 C 
BRANCH  23  24
HETATM   24  C   UNL     1      -0.568   7.419 -32.677  1.00  0.00     0.039 C 
BRANCH  24  25
HETATM   25  C   UNL     1      -0.469   6.976 -31.236  1.00  0.00    -0.056 A 
HETATM   26  C   UNL     1      -1.322   7.532 -30.267  1.00  0.00     0.039 A 
HETATM   27  C   UNL     1      -1.189   7.069 -28.978  1.00  0.00     0.063 A 
HETATM   28  C   UNL     1      -0.259   6.091 -28.630  1.00  0.00     0.063 A 
HETATM   29  N   UNL     1      -1.882   7.428 -27.828  1.00  0.00    -0.306 N 
HETATM   30  N   UNL     1      -0.381   5.849 -27.267  1.00  0.00    -0.307 N 
HETATM   31  C   UNL     1       0.585   5.523 -29.551  1.00  0.00     0.032 A 
HETATM   32  C   UNL     1      -1.390   6.675 -26.752  1.00  0.00     0.325 A 
HETATM   33  H   UNL     1       0.147   5.196 -26.711  1.00  0.00     0.170 HD
HETATM   34  O   UNL     1      -1.766   6.728 -25.595  1.00  0.00    -0.247 OA
HETATM   35  C   UNL     1       0.471   5.974 -30.872  1.00  0.00     0.009 A 
HETATM   36  H   UNL     1      -2.622   8.105 -27.747  1.00  0.00     0.170 HD
ENDBRANCH  24  25
ENDBRANCH  23  24
ENDBRANCH  22  23
ENDBRANCH   2  22
TORSDOF 8
ENDMDL
MODEL 3
REMARK VINA RESULT:      -9.8      2.051      2.938
REMARK  8 active torsions:
REMARK  status: ('A' for Active; 'I' for Inactive)
REMARK    1  A    between atoms: C_2  and  O_3 
REMARK    2  A    between atoms: C_2  and  C_14 
REMARK    3  A    between atoms: O_3  and  C_4 
REMARK       I    between atoms: C_14  and  N_15 
REMARK    4  A    between atoms: N_15  and  N_16 
REMARK       I    between atoms: N_16  and  C_17 
REMARK    5  A    between atoms: C_17  and  C_18 
REMARK    6  A    between atoms: C_18  and  C_19 
REMARK    7  A    between atoms: C_19  and  C_20 
REMARK    8  A    between atoms: C_20  and  C_21 
ROOT
HETATM    1  N   UNL     1      -2.212   4.018 -31.128  1.00  0.00    -0.267 N 
HETATM    2  C   UNL     1      -1.847   4.599 -32.329  1.00  0.00     0.236 C 
HETATM    3  O   UNL     1      -2.178   4.138 -33.419  1.00  0.00    -0.272 OA
HETATM    4  H   UNL     1      -2.213   4.577 -30.274  1.00  0.00     0.190 HD
ENDROOT
BRANCH   1   5
HETATM    5  N   UNL     1      -3.214   3.028 -31.179  1.00  0.00    -0.265 N 
HETATM    6  C   UNL     1      -4.520   3.455 -30.982  1.00  0.00     0.265 C 
HETATM    7  O   UNL     1      -4.782   4.569 -30.531  1.00  0.00    -0.269 OA
HETATM    8  H   UNL     1      -3.063   2.287 -31.868  1.00  0.00     0.190 HD
BRANCH   6   9
HETATM    9  C   UNL     1      -5.570   2.370 -31.268  1.00  0.00     0.218 C 
HETATM   10  C   UNL     1      -6.856   2.672 -30.509  1.00  0.00     0.050 C 
BRANCH   9  11
HETATM   11  O   UNL     1      -5.829   2.364 -32.676  1.00  0.00    -0.337 OA
BRANCH  11  12
HETATM   12  C   UNL     1      -6.047   1.165 -33.294  1.00  0.00     0.070 A 
HETATM   13  C   UNL     1      -5.062   0.200 -33.055  1.00  0.00     0.049 A 
HETATM   14  C   UNL     1      -5.144  -1.082 -33.622  1.00  0.00    -0.023 A 
HETATM   15  C   UNL     1      -6.239  -1.397 -34.457  1.00  0.00    -0.026 A 
HETATM   16  C   UNL     1      -4.165  -2.059 -33.379  1.00  0.00     0.012 A 
HETATM   17  C   UNL     1      -7.214  -0.419 -34.702  1.00  0.00     0.015 A 
HETATM   18  C   UNL     1      -6.325  -2.678 -35.027  1.00  0.00     0.012 A 
HETATM   19  C   UNL     1      -7.117   0.853 -34.127  1.00  0.00     0.037 A 
HETATM   20  C   UNL     1      -5.343  -3.637 -34.774  1.00  0.00     0.001 A 
HETATM   21  C   UNL     1      -4.264  -3.327 -33.951  1.00  0.00     0.001 A 
ENDBRANCH  11  12
ENDBRANCH   9  11
ENDBRANCH   6   9
ENDBRANCH   1   5
BRANCH   2  22
HETATM   22  C   UNL     1      -0.954   5.811 -32.153  1.00  0.00     0.105 C 
BRANCH  22  23
HETATM   23  C   UNL     1       0.108   5.590 -31.078  1.00  0.00     0.014 C 
BRANCH  23  24
HETATM   24  C   UNL     1       0.360   6.869 -30.279  1.00  0.00     0.039 C 
BRANCH  24  25
HETATM   25  C   UNL     1      -0.407   6.879 -28.977  1.00  0.00    -0.056 A 
HETATM   26  C   UNL     1      -1.670   7.490 -28.907  1.00  0.00     0.039 A 
HETATM   27  C   UNL     1      -2.319   7.446 -27.694  1.00  0.00     0.063 A 
HETATM   28  C   UNL     1      -1.767   6.825 -26.576  1.00  0.00     0.063 A 
HETATM   29  N   UNL     1      -3.559   7.958 -27.330  1.00  0.00    -0.306 N 
HETATM   30  N   UNL     1      -2.667   6.955 -25.525  1.00  0.00    -0.307 N 
HETATM   31  C   UNL     1      -0.539   6.213 -26.610  1.00  0.00     0.032 A 
HETATM   32  C   UNL     1      -3.791   7.660 -25.980  1.00  0.00     0.325 A 
HETATM   33  H   UNL     1      -2.564   6.611 -24.584  1.00  0.00     0.170 HD
HETATM   34  O   UNL     1      -4.777   7.954 -25.328  1.00  0.00    -0.247 OA
HETATM   35  C   UNL     1       0.144   6.242 -27.833  1.00  0.00     0.009 A 
HETATM   36  H   UNL     1      -4.209   8.458 -27.913  1.00  0.00     0.170 HD
ENDBRANCH  24  25
ENDBRANCH  23  24
ENDBRANCH  22  23
ENDBRANCH   2  22
TORSDOF 8
ENDMDL
MODEL 4
REMARK VINA RESULT:      -9.6      1.686      2.696
REMARK  8 active torsions:
REMARK  status: ('A' for Active; 'I' for Inactive)
REMARK    1  A    between atoms: C_2  and  O_3 
REMARK    2  A    between atoms: C_2  and  C_14 
REMARK    3  A    between atoms: O_3  and  C_4 
REMARK       I    between atoms: C_14  and  N_15 
REMARK    4  A    between atoms: N_15  and  N_16 
REMARK       I    between atoms: N_16  and  C_17 
REMARK    5  A    between atoms: C_17  and  C_18 
REMARK    6  A    between atoms: C_18  and  C_19 
REMARK    7  A    between atoms: C_19  and  C_20 
REMARK    8  A    between atoms: C_20  and  C_21 
ROOT
HETATM    1  N   UNL     1      -2.524   4.157 -32.198  1.00  0.00    -0.267 N 
HETATM    2  C   UNL     1      -2.323   5.246 -33.029  1.00  0.00     0.236 C 
HETATM    3  O   UNL     1      -2.967   5.424 -34.060  1.00  0.00    -0.272 OA
HETATM    4  H   UNL     1      -2.231   4.203 -31.222  1.00  0.00     0.190 HD
ENDROOT
BRANCH   1   5
HETATM    5  N   UNL     1      -3.687   3.392 -32.423  1.00  0.00    -0.265 N 
HETATM    6  C   UNL     1      -3.772   2.180 -31.754  1.00  0.00     0.265 C 
HETATM    7  O   UNL     1      -2.797   1.666 -31.206  1.00  0.00    -0.269 OA
HETATM    8  H   UNL     1      -4.551   3.930 -32.529  1.00  0.00     0.190 HD
BRANCH   6   9
HETATM    9  C   UNL     1      -5.150   1.509 -31.871  1.00  0.00     0.218 C 
HETATM   10  C   UNL     1      -6.215   2.385 -31.223  1.00  0.00     0.050 C 
BRANCH   9  11
HETATM   11  O   UNL     1      -5.444   1.338 -33.261  1.00  0.00    -0.337 OA
BRANCH  11  12
HETATM   12  C   UNL     1      -5.771   0.089 -33.710  1.00  0.00     0.070 A 
HETATM   13  C   UNL     1      -4.793  -0.885 -33.485  1.00  0.00     0.049 A 
HETATM   14  C   UNL     1      -4.983  -2.216 -33.890  1.00  0.00    -0.023 A 
HETATM   15  C   UNL     1      -6.181  -2.572 -34.546  1.00  0.00    -0.026 A 
HETATM   16  C   UNL     1      -4.010  -3.202 -33.658  1.00  0.00     0.012 A 
HETATM   17  C   UNL     1      -7.150  -1.585 -34.781  1.00  0.00     0.015 A 
HETATM   18  C   UNL     1      -6.375  -3.903 -34.954  1.00  0.00     0.012 A 
HETATM   19  C   UNL     1      -6.946  -0.264 -34.369  1.00  0.00     0.037 A 
HETATM   20  C   UNL     1      -5.397  -4.870 -34.715  1.00  0.00     0.001 A 
HETATM   21  C   UNL     1      -4.216  -4.520 -34.067  1.00  0.00     0.001 A 
ENDBRANCH  11  12
ENDBRANCH   9  11
ENDBRANCH   6   9
ENDBRANCH   1   5
BRANCH   2  22
HETATM   22  C   UNL     1      -1.196   6.144 -32.563  1.00  0.00     0.105 C 
BRANCH  22  23
HETATM   23  C   UNL     1      -0.370   5.499 -31.451  1.00  0.00     0.014 C 
BRANCH  23  24
HETATM   24  C   UNL     1       0.665   6.477 -30.895  1.00  0.00     0.039 C 
BRANCH  24  25
HETATM   25  C   UNL     1       0.268   7.005 -29.536  1.00  0.00    -0.056 A 
HETATM   26  C   UNL     1      -0.917   6.560 -28.925  1.00  0.00     0.039 A 
HETATM   27  C   UNL     1      -1.208   7.070 -27.681  1.00  0.00     0.063 A 
HETATM   28  C   UNL     1      -0.377   7.984 -27.037  1.00  0.00     0.063 A 
HETATM   29  N   UNL     1      -2.292   6.818 -26.848  1.00  0.00    -0.306 N 
HETATM   30  N   UNL     1      -0.949   8.295 -25.810  1.00  0.00    -0.307 N 
HETATM   31  C   UNL     1       0.790   8.436 -27.602  1.00  0.00     0.032 A 
HETATM   32  C   UNL     1      -2.145   7.575 -25.676  1.00  0.00     0.325 A 
HETATM   33  H   UNL     1      -0.592   8.924 -25.109  1.00  0.00     0.170 HD
HETATM   34  O   UNL     1      -2.907   7.602 -24.727  1.00  0.00    -0.247 OA
HETATM   35  C   UNL     1       1.112   7.933 -28.869  1.00  0.00     0.009 A 
HETATM   36  H   UNL     1      -3.066   6.200 -27.022  1.00  0.00     0.170 HD
ENDBRANCH  24  25
ENDBRANCH  23  24
ENDBRANCH  22  23
ENDBRANCH   2  22
TORSDOF 8
ENDMDL
MODEL 5
REMARK VINA RESULT:      -9.5      2.472      3.265
REMARK  8 active torsions:
REMARK  status: ('A' for Active; 'I' for Inactive)
REMARK    1  A    between atoms: C_2  and  O_3 
REMARK    2  A    between atoms: C_2  and  C_14 
REMARK    3  A    between atoms: O_3  and  C_4 
REMARK       I    between atoms: C_14  and  N_15 
REMARK    4  A    between atoms: N_15  and  N_16 
REMARK       I    between atoms: N_16  and  C_17 
REMARK    5  A    between atoms: C_17  and  C_18 
REMARK    6  A    between atoms: C_18  and  C_19 
REMARK    7  A    between atoms: C_19  and  C_20 
REMARK    8  A    between atoms: C_20  and  C_21 
ROOT
HETATM    1  N   UNL     1      -2.637   3.978 -31.127  1.00  0.00    -0.267 N 
HETATM    2  C   UNL     1      -2.239   4.635 -32.278  1.00  0.00     0.236 C 
HETATM    3  O   UNL     1      -2.115   4.067 -33.359  1.00  0.00    -0.272 OA
HETATM    4  H   UNL     1      -3.042   4.507 -30.354  1.00  0.00     0.190 HD
ENDROOT
BRANCH   1   5
HETATM    5  N   UNL     1      -3.167   2.681 -31.286  1.00  0.00    -0.265 N 
HETATM    6  C   UNL     1      -4.488   2.498 -30.905  1.00  0.00     0.265 C 
HETATM    7  O   UNL     1      -5.094   3.328 -30.228  1.00  0.00    -0.269 OA
HETATM    8  H   UNL     1      -2.844   2.175 -32.115  1.00  0.00     0.190 HD
BRANCH   6   9
HETATM    9  C   UNL     1      -5.060   1.130 -31.309  1.00  0.00     0.218 C 
HETATM   10  C   UNL     1      -6.399   0.898 -30.621  1.00  0.00     0.050 C 
BRANCH   9  11
HETATM   11  O   UNL     1      -5.238   1.126 -32.729  1.00  0.00    -0.337 OA
BRANCH  11  12
HETATM   12  C   UNL     1      -5.558  -0.053 -33.343  1.00  0.00     0.070 A 
HETATM   13  C   UNL     1      -4.638  -1.086 -33.134  1.00  0.00     0.049 A 
HETATM   14  C   UNL     1      -4.827  -2.357 -33.700  1.00  0.00    -0.023 A 
HETATM   15  C   UNL     1      -5.964  -2.591 -34.504  1.00  0.00    -0.026 A 
HETATM   16  C   UNL     1      -3.913  -3.402 -33.486  1.00  0.00     0.012 A 
HETATM   17  C   UNL     1      -6.874  -1.545 -34.719  1.00  0.00     0.015 A 
HETATM   18  C   UNL     1      -6.157  -3.860 -35.073  1.00  0.00     0.012 A 
HETATM   19  C   UNL     1      -6.671  -0.285 -34.146  1.00  0.00     0.037 A 
HETATM   20  C   UNL     1      -5.239  -4.888 -34.849  1.00  0.00     0.001 A 
HETATM   21  C   UNL     1      -4.118  -4.658 -34.057  1.00  0.00     0.001 A 
ENDBRANCH  11  12
ENDBRANCH   9  11
ENDBRANCH   6   9
ENDBRANCH   1   5
BRANCH   2  22
HETATM   22  C   UNL     1      -1.920   6.098 -32.042  1.00  0.00     0.105 C 
BRANCH  22  23
HETATM   23  C   UNL     1      -1.610   6.388 -30.575  1.00  0.00     0.014 C 
BRANCH  23  24
HETATM   24  C   UNL     1      -0.201   6.959 -30.411  1.00  0.00     0.039 C 
BRANCH  24  25
HETATM   25  C   UNL     1      -0.096   7.860 -29.203  1.00  0.00    -0.056 A 
HETATM   26  C   UNL     1       1.110   7.941 -28.486  1.00  0.00     0.039 A 
HETATM   27  C   UNL     1       1.139   8.795 -27.407  1.00  0.00     0.063 A 
HETATM   28  C   UNL     1       0.036   9.557 -27.030  1.00  0.00     0.063 A 
HETATM   29  N   UNL     1       2.175   9.076 -26.524  1.00  0.00    -0.306 N 
HETATM   30  N   UNL     1       0.393  10.307 -25.916  1.00  0.00    -0.307 N 
HETATM   31  C   UNL     1      -1.155   9.508 -27.711  1.00  0.00     0.032 A 
HETATM   32  C   UNL     1       1.725  10.018 -25.587  1.00  0.00     0.325 A 
HETATM   33  H   UNL     1      -0.181  10.959 -25.407  1.00  0.00     0.170 HD
HETATM   34  O   UNL     1       2.366  10.494 -24.668  1.00  0.00    -0.247 OA
HETATM   35  C   UNL     1      -1.213   8.648 -28.815  1.00  0.00     0.009 A 
HETATM   36  H   UNL     1       3.105   8.692 -26.530  1.00  0.00     0.170 HD
ENDBRANCH  24  25
ENDBRANCH  23  24
ENDBRANCH  22  23
ENDBRANCH   2  22
TORSDOF 8
ENDMDL
MODEL 6
REMARK VINA RESULT:      -9.3      2.572      4.274
REMARK  8 active torsions:
REMARK  status: ('A' for Active; 'I' for Inactive)
REMARK    1  A    between atoms: C_2  and  O_3 
REMARK    2  A    between atoms: C_2  and  C_14 
REMARK    3  A    between atoms: O_3  and  C_4 
REMARK       I    between atoms: C_14  and  N_15 
REMARK    4  A    between atoms: N_15  and  N_16 
REMARK       I    between atoms: N_16  and  C_17 
REMARK    5  A    between atoms: C_17  and  C_18 
REMARK    6  A    between atoms: C_18  and  C_19 
REMARK    7  A    between atoms: C_19  and  C_20 
REMARK    8  A    between atoms: C_20  and  C_21 
ROOT
HETATM    1  N   UNL     1      -5.264   4.279 -28.938  1.00  0.00    -0.267 N 
HETATM    2  C   UNL     1      -5.929   5.349 -28.367  1.00  0.00     0.236 C 
HETATM    3  O   UNL     1      -7.106   5.606 -28.608  1.00  0.00    -0.272 OA
HETATM    4  H   UNL     1      -4.429   3.902 -28.488  1.00  0.00     0.190 HD
ENDROOT
BRANCH   1   5
HETATM    5  N   UNL     1      -6.055   3.317 -29.599  1.00  0.00    -0.265 N 
HETATM    6  C   UNL     1      -5.529   2.771 -30.761  1.00  0.00     0.265 C 
HETATM    7  O   UNL     1      -4.561   3.268 -31.336  1.00  0.00    -0.269 OA
HETATM    8  H   UNL     1      -6.587   2.693 -28.987  1.00  0.00     0.190 HD
BRANCH   6   9
HETATM    9  C   UNL     1      -6.338   1.582 -31.301  1.00  0.00     0.218 C 
HETATM   10  C   UNL     1      -7.830   1.874 -31.202  1.00  0.00     0.050 C 
BRANCH   9  11
HETATM   11  O   UNL     1      -5.974   1.383 -32.671  1.00  0.00    -0.337 OA
BRANCH  11  12
HETATM   12  C   UNL     1      -5.490   0.160 -33.046  1.00  0.00     0.070 A 
HETATM   13  C   UNL     1      -6.449  -0.703 -33.586  1.00  0.00     0.049 A 
HETATM   14  C   UNL     1      -6.106  -1.995 -34.017  1.00  0.00    -0.023 A 
HETATM   15  C   UNL     1      -4.769  -2.431 -33.893  1.00  0.00    -0.026 A 
HETATM   16  C   UNL     1      -7.061  -2.865 -34.569  1.00  0.00     0.012 A 
HETATM   17  C   UNL     1      -3.817  -1.563 -33.337  1.00  0.00     0.015 A 
HETATM   18  C   UNL     1      -4.421  -3.723 -34.322  1.00  0.00     0.012 A 
HETATM   19  C   UNL     1      -4.175  -0.278 -32.915  1.00  0.00     0.037 A 
HETATM   20  C   UNL     1      -5.383  -4.574 -34.869  1.00  0.00     0.001 A 
HETATM   21  C   UNL     1      -6.702  -4.144 -34.992  1.00  0.00     0.001 A 
ENDBRANCH  11  12
ENDBRANCH   9  11
ENDBRANCH   6   9
ENDBRANCH   1   5
BRANCH   2  22
HETATM   22  C   UNL     1      -5.039   6.191 -27.476  1.00  0.00     0.105 C 
BRANCH  22  23
HETATM   23  C   UNL     1      -4.562   7.461 -28.177  1.00  0.00     0.014 C 
BRANCH  23  24
HETATM   24  C   UNL     1      -3.055   7.417 -28.435  1.00  0.00     0.039 C 
BRANCH  24  25
HETATM   25  C   UNL     1      -2.738   7.391 -29.912  1.00  0.00    -0.056 A 
HETATM   26  C   UNL     1      -2.937   6.215 -30.656  1.00  0.00     0.039 A 
HETATM   27  C   UNL     1      -2.644   6.269 -31.999  1.00  0.00     0.063 A 
HETATM   28  C   UNL     1      -2.174   7.428 -32.614  1.00  0.00     0.063 A 
HETATM   29  N   UNL     1      -2.739   5.279 -32.971  1.00  0.00    -0.306 N 
HETATM   30  N   UNL     1      -1.980   7.151 -33.962  1.00  0.00    -0.307 N 
HETATM   31  C   UNL     1      -1.974   8.595 -31.919  1.00  0.00     0.032 A 
HETATM   32  C   UNL     1      -2.329   5.814 -34.201  1.00  0.00     0.325 A 
HETATM   33  H   UNL     1      -1.650   7.780 -34.675  1.00  0.00     0.170 HD
HETATM   34  O   UNL     1      -2.284   5.231 -35.269  1.00  0.00    -0.247 OA
HETATM   35  C   UNL     1      -2.265   8.570 -30.550  1.00  0.00     0.009 A 
HETATM   36  H   UNL     1      -3.051   4.331 -32.848  1.00  0.00     0.170 HD
ENDBRANCH  24  25
ENDBRANCH  23  24
ENDBRANCH  22  23
ENDBRANCH   2  22
TORSDOF 8
ENDMDL
MODEL 7
REMARK VINA RESULT:      -9.1      2.580      3.665
REMARK  8 active torsions:
REMARK  status: ('A' for Active; 'I' for Inactive)
REMARK    1  A    between atoms: C_2  and  O_3 
REMARK    2  A    between atoms: C_2  and  C_14 
REMARK    3  A    between atoms: O_3  and  C_4 
REMARK       I    between atoms: C_14  and  N_15 
REMARK    4  A    between atoms: N_15  and  N_16 
REMARK       I    between atoms: N_16  and  C_17 
REMARK    5  A    between atoms: C_17  and  C_18 
REMARK    6  A    between atoms: C_18  and  C_19 
REMARK    7  A    between atoms: C_19  and  C_20 
REMARK    8  A    between atoms: C_20  and  C_21 
ROOT
HETATM    1  N   UNL     1      -8.289   2.851 -30.203  1.00  0.00    -0.267 N 
HETATM    2  C   UNL     1      -6.918   2.867 -30.017  1.00  0.00     0.236 C 
HETATM    3  O   UNL     1      -6.208   1.882 -30.202  1.00  0.00    -0.272 OA
HETATM    4  H   UNL     1      -8.790   3.724 -30.365  1.00  0.00     0.190 HD
ENDROOT
BRANCH   1   5
HETATM    5  N   UNL     1      -8.824   1.737 -30.883  1.00  0.00    -0.265 N 
HETATM    6  C   UNL     1      -9.005   1.873 -32.252  1.00  0.00     0.265 C 
HETATM    7  O   UNL     1      -8.958   2.968 -32.812  1.00  0.00    -0.269 OA
HETATM    8  H   UNL     1      -8.514   0.824 -30.541  1.00  0.00     0.190 HD
BRANCH   6   9
HETATM    9  C   UNL     1      -9.380   0.559 -32.956  1.00  0.00     0.218 C 
HETATM   10  C   UNL     1     -10.846   0.585 -33.369  1.00  0.00     0.050 C 
BRANCH   9  11
HETATM   11  O   UNL     1      -8.552   0.425 -34.115  1.00  0.00    -0.337 OA
BRANCH  11  12
HETATM   12  C   UNL     1      -7.406  -0.312 -34.018  1.00  0.00     0.070 A 
HETATM   13  C   UNL     1      -7.536  -1.646 -34.419  1.00  0.00     0.049 A 
HETATM   14  C   UNL     1      -6.446  -2.531 -34.375  1.00  0.00    -0.023 A 
HETATM   15  C   UNL     1      -5.198  -2.064 -33.907  1.00  0.00    -0.026 A 
HETATM   16  C   UNL     1      -6.567  -3.868 -34.786  1.00  0.00     0.012 A 
HETATM   17  C   UNL     1      -5.081  -0.729 -33.493  1.00  0.00     0.015 A 
HETATM   18  C   UNL     1      -4.105  -2.945 -33.861  1.00  0.00     0.012 A 
HETATM   19  C   UNL     1      -6.177   0.140 -33.545  1.00  0.00     0.037 A 
HETATM   20  C   UNL     1      -4.243  -4.272 -34.274  1.00  0.00     0.001 A 
HETATM   21  C   UNL     1      -5.473  -4.732 -34.736  1.00  0.00     0.001 A 
ENDBRANCH  11  12
ENDBRANCH   9  11
ENDBRANCH   6   9
ENDBRANCH   1   5
BRANCH   2  22
HETATM   22  C   UNL     1      -6.408   4.200 -29.506  1.00  0.00     0.105 C 
BRANCH  22  23
HETATM   23  C   UNL     1      -6.763   5.349 -30.447  1.00  0.00     0.014 C 
BRANCH  23  24
HETATM   24  C   UNL     1      -6.235   5.090 -31.858  1.00  0.00     0.039 C 
BRANCH  24  25
HETATM   25  C   UNL     1      -4.726   5.049 -31.896  1.00  0.00    -0.056 A 
HETATM   26  C   UNL     1      -3.979   6.171 -31.497  1.00  0.00     0.039 A 
HETATM   27  C   UNL     1      -2.609   6.057 -31.540  1.00  0.00     0.063 A 
HETATM   28  C   UNL     1      -1.971   4.890 -31.953  1.00  0.00     0.063 A 
HETATM   29  N   UNL     1      -1.628   6.987 -31.212  1.00  0.00    -0.306 N 
HETATM   30  N   UNL     1      -0.599   5.101 -31.879  1.00  0.00    -0.307 N 
HETATM   31  C   UNL     1      -2.668   3.773 -32.343  1.00  0.00     0.032 A 
HETATM   32  C   UNL     1      -0.369   6.405 -31.418  1.00  0.00     0.325 A 
HETATM   33  H   UNL     1       0.134   4.449 -32.107  1.00  0.00     0.170 HD
HETATM   34  O   UNL     1       0.714   6.929 -31.232  1.00  0.00    -0.247 OA
HETATM   35  C   UNL     1      -4.065   3.861 -32.309  1.00  0.00     0.009 A 
HETATM   36  H   UNL     1      -1.763   7.925 -30.875  1.00  0.00     0.170 HD
ENDBRANCH  24  25
ENDBRANCH  23  24
ENDBRANCH  22  23
ENDBRANCH   2  22
TORSDOF 8
ENDMDL
MODEL 8
REMARK VINA RESULT:      -9.1      3.139     11.092
REMARK  8 active torsions:
REMARK  status: ('A' for Active; 'I' for Inactive)
REMARK    1  A    between atoms: C_2  and  O_3 
REMARK    2  A    between atoms: C_2  and  C_14 
REMARK    3  A    between atoms: O_3  and  C_4 
REMARK       I    between atoms: C_14  and  N_15 
REMARK    4  A    between atoms: N_15  and  N_16 
REMARK       I    between atoms: N_16  and  C_17 
REMARK    5  A    between atoms: C_17  and  C_18 
REMARK    6  A    between atoms: C_18  and  C_19 
REMARK    7  A    between atoms: C_19  and  C_20 
REMARK    8  A    between atoms: C_20  and  C_21 
ROOT
HETATM    1  N   UNL     1      -3.851   4.170 -30.778  1.00  0.00    -0.267 N 
HETATM    2  C   UNL     1      -5.179   4.312 -31.139  1.00  0.00     0.236 C 
HETATM    3  O   UNL     1      -5.756   5.396 -31.143  1.00  0.00    -0.272 OA
HETATM    4  H   UNL     1      -3.323   3.355 -31.092  1.00  0.00     0.190 HD
ENDROOT
BRANCH   1   5
HETATM    5  N   UNL     1      -3.090   5.353 -30.676  1.00  0.00    -0.265 N 
HETATM    6  C   UNL     1      -1.923   5.409 -31.424  1.00  0.00     0.265 C 
HETATM    7  O   UNL     1      -1.431   4.406 -31.942  1.00  0.00    -0.269 OA
HETATM    8  H   UNL     1      -3.633   6.217 -30.590  1.00  0.00     0.190 HD
BRANCH   6   9
HETATM    9  C   UNL     1      -1.267   6.798 -31.437  1.00  0.00     0.218 C 
HETATM   10  C   UNL     1      -1.158   7.313 -32.867  1.00  0.00     0.050 C 
BRANCH   9  11
HETATM   11  O   UNL     1      -2.085   7.682 -30.665  1.00  0.00    -0.337 OA
BRANCH  11  12
HETATM   12  C   UNL     1      -1.520   8.335 -29.605  1.00  0.00     0.070 A 
HETATM   13  C   UNL     1      -0.447   7.662 -29.012  1.00  0.00     0.049 A 
HETATM   14  C   UNL     1       0.236   8.205 -27.911  1.00  0.00    -0.023 A 
HETATM   15  C   UNL     1      -0.177   9.451 -27.391  1.00  0.00    -0.026 A 
HETATM   16  C   UNL     1       1.320   7.540 -27.317  1.00  0.00     0.012 A 
HETATM   17  C   UNL     1      -1.263  10.112 -27.983  1.00  0.00     0.015 A 
HETATM   18  C   UNL     1       0.503   9.998 -26.290  1.00  0.00     0.012 A 
HETATM   19  C   UNL     1      -1.931   9.558 -29.080  1.00  0.00     0.037 A 
HETATM   20  C   UNL     1       1.579   9.323 -25.711  1.00  0.00     0.001 A 
HETATM   21  C   UNL     1       1.987   8.096 -26.224  1.00  0.00     0.001 A 
ENDBRANCH  11  12
ENDBRANCH   9  11
ENDBRANCH   6   9
ENDBRANCH   1   5
BRANCH   2  22
HETATM   22  C   UNL     1      -5.846   2.991 -31.464  1.00  0.00     0.105 C 
BRANCH  22  23
HETATM   23  C   UNL     1      -5.426   2.457 -32.832  1.00  0.00     0.014 C 
BRANCH  23  24
HETATM   24  C   UNL     1      -4.501   1.247 -32.691  1.00  0.00     0.039 C 
BRANCH  24  25
HETATM   25  C   UNL     1      -5.101   0.006 -33.309  1.00  0.00    -0.056 A 
HETATM   26  C   UNL     1      -4.355  -1.184 -33.368  1.00  0.00     0.039 A 
HETATM   27  C   UNL     1      -4.969  -2.280 -33.929  1.00  0.00     0.063 A 
HETATM   28  C   UNL     1      -6.273  -2.234 -34.418  1.00  0.00     0.063 A 
HETATM   29  N   UNL     1      -4.486  -3.569 -34.121  1.00  0.00    -0.306 N 
HETATM   30  N   UNL     1      -6.592  -3.494 -34.910  1.00  0.00    -0.307 N 
HETATM   31  C   UNL     1      -7.033  -1.092 -34.371  1.00  0.00     0.032 A 
HETATM   32  C   UNL     1      -5.487  -4.339 -34.732  1.00  0.00     0.325 A 
HETATM   33  H   UNL     1      -7.460  -3.787 -35.328  1.00  0.00     0.170 HD
HETATM   34  O   UNL     1      -5.411  -5.513 -35.046  1.00  0.00    -0.247 OA
HETATM   35  C   UNL     1      -6.432   0.040 -33.804  1.00  0.00     0.009 A 
HETATM   36  H   UNL     1      -3.579  -3.926 -33.870  1.00  0.00     0.170 HD
ENDBRANCH  24  25
ENDBRANCH  23  24
ENDBRANCH  22  23
ENDBRANCH   2  22
TORSDOF 8
ENDMDL
MODEL 9
REMARK VINA RESULT:      -9.1      2.780     10.154
REMARK  8 active torsions:
REMARK  status: ('A' for Active; 'I' for Inactive)
REMARK    1  A    between atoms: C_2  and  O_3 
REMARK    2  A    between atoms: C_2  and  C_14 
REMARK    3  A    between atoms: O_3  and  C_4 
REMARK       I    between atoms: C_14  and  N_15 
REMARK    4  A    between atoms: N_15  and  N_16 
REMARK       I    between atoms: N_16  and  C_17 
REMARK    5  A    between atoms: C_17  and  C_18 
REMARK    6  A    between atoms: C_18  and  C_19 
REMARK    7  A    between atoms: C_19  and  C_20 
REMARK    8  A    between atoms: C_20  and  C_21 
ROOT
HETATM    1  N   UNL     1      -4.069   3.438 -31.938  1.00  0.00    -0.267 N 
HETATM    2  C   UNL     1      -4.085   2.352 -31.081  1.00  0.00     0.236 C 
HETATM    3  O   UNL     1      -3.180   1.523 -31.040  1.00  0.00    -0.272 OA
HETATM    4  H   UNL     1      -4.639   4.258 -31.728  1.00  0.00     0.190 HD
ENDROOT
BRANCH   1   5
HETATM    5  N   UNL     1      -2.845   3.726 -32.576  1.00  0.00    -0.265 N 
HETATM    6  C   UNL     1      -2.640   5.043 -32.962  1.00  0.00     0.265 C 
HETATM    7  O   UNL     1      -3.556   5.865 -32.993  1.00  0.00    -0.269 OA
HETATM    8  H   UNL     1      -2.035   3.210 -32.223  1.00  0.00     0.190 HD
BRANCH   6   9
HETATM    9  C   UNL     1      -1.210   5.325 -33.446  1.00  0.00     0.218 C 
HETATM   10  C   UNL     1      -1.201   5.548 -34.953  1.00  0.00     0.050 C 
BRANCH   9  11
HETATM   11  O   UNL     1      -0.740   6.502 -32.780  1.00  0.00    -0.337 OA
BRANCH  11  12
HETATM   12  C   UNL     1      -0.325   6.395 -31.482  1.00  0.00     0.070 A 
HETATM   13  C   UNL     1      -0.654   7.489 -30.675  1.00  0.00     0.049 A 
HETATM   14  C   UNL     1      -0.295   7.528 -29.318  1.00  0.00    -0.023 A 
HETATM   15  C   UNL     1       0.422   6.444 -28.763  1.00  0.00    -0.026 A 
HETATM   16  C   UNL     1      -0.631   8.618 -28.498  1.00  0.00     0.012 A 
HETATM   17  C   UNL     1       0.760   5.359 -29.585  1.00  0.00     0.015 A 
HETATM   18  C   UNL     1       0.784   6.479 -27.407  1.00  0.00     0.012 A 
HETATM   19  C   UNL     1       0.393   5.335 -30.934  1.00  0.00     0.037 A 
HETATM   20  C   UNL     1       0.441   7.571 -26.606  1.00  0.00     0.001 A 
HETATM   21  C   UNL     1      -0.266   8.638 -27.152  1.00  0.00     0.001 A 
ENDBRANCH  11  12
ENDBRANCH   9  11
ENDBRANCH   6   9
ENDBRANCH   1   5
BRANCH   2  22
HETATM   22  C   UNL     1      -5.355   2.267 -30.259  1.00  0.00     0.105 C 
BRANCH  22  23
HETATM   23  C   UNL     1      -6.074   0.933 -30.449  1.00  0.00     0.014 C 
BRANCH  23  24
HETATM   24  C   UNL     1      -6.830   0.898 -31.777  1.00  0.00     0.039 C 
BRANCH  24  25
HETATM   25  C   UNL     1      -6.398  -0.265 -32.640  1.00  0.00    -0.056 A 
HETATM   26  C   UNL     1      -5.244  -0.996 -32.313  1.00  0.00     0.039 A 
HETATM   27  C   UNL     1      -4.920  -2.052 -33.133  1.00  0.00     0.063 A 
HETATM   28  C   UNL     1      -5.691  -2.400 -34.240  1.00  0.00     0.063 A 
HETATM   29  N   UNL     1      -3.853  -2.940 -33.059  1.00  0.00    -0.306 N 
HETATM   30  N   UNL     1      -5.098  -3.500 -34.847  1.00  0.00    -0.307 N 
HETATM   31  C   UNL     1      -6.827  -1.712 -34.585  1.00  0.00     0.032 A 
HETATM   32  C   UNL     1      -3.950  -3.850 -34.122  1.00  0.00     0.325 A 
HETATM   33  H   UNL     1      -5.414  -3.991 -35.667  1.00  0.00     0.170 HD
HETATM   34  O   UNL     1      -3.186  -4.766 -34.367  1.00  0.00    -0.247 OA
HETATM   35  C   UNL     1      -7.182  -0.632 -33.767  1.00  0.00     0.009 A 
HETATM   36  H   UNL     1      -3.119  -2.959 -32.371  1.00  0.00     0.170 HD
ENDBRANCH  24  25
ENDBRANCH  23  24
ENDBRANCH  22  23
ENDBRANCH   2  22
TORSDOF 8
ENDMDL
MODEL 10
REMARK VINA RESULT:      -8.8      2.977      4.828
REMARK  8 active torsions:
REMARK  status: ('A' for Active; 'I' for Inactive)
REMARK    1  A    between atoms: C_2  and  O_3 
REMARK    2  A    between atoms: C_2  and  C_14 
REMARK    3  A    between atoms: O_3  and  C_4 
REMARK       I    between atoms: C_14  and  N_15 
REMARK    4  A    between atoms: N_15  and  N_16 
REMARK       I    between atoms: N_16  and  C_17 
REMARK    5  A    between atoms: C_17  and  C_18 
REMARK    6  A    between atoms: C_18  and  C_19 
REMARK    7  A    between atoms: C_19  and  C_20 
REMARK    8  A    between atoms: C_20  and  C_21 
ROOT
HETATM    1  N   UNL     1      -8.495   2.827 -30.178  1.00  0.00    -0.267 N 
HETATM    2  C   UNL     1      -7.272   3.282 -29.717  1.00  0.00     0.236 C 
HETATM    3  O   UNL     1      -6.228   2.650 -29.863  1.00  0.00    -0.272 OA
HETATM    4  H   UNL     1      -9.254   3.489 -30.340  1.00  0.00     0.190 HD
ENDROOT
BRANCH   1   5
HETATM    5  N   UNL     1      -8.471   1.737 -31.072  1.00  0.00    -0.265 N 
HETATM    6  C   UNL     1      -8.531   2.040 -32.425  1.00  0.00     0.265 C 
HETATM    7  O   UNL     1      -8.849   3.158 -32.830  1.00  0.00    -0.269 OA
HETATM    8  H   UNL     1      -7.872   0.955 -30.793  1.00  0.00     0.190 HD
BRANCH   6   9
HETATM    9  C   UNL     1      -8.280   0.830 -33.337  1.00  0.00     0.218 C 
HETATM   10  C   UNL     1      -9.063   0.981 -34.635  1.00  0.00     0.050 C 
BRANCH   9  11
HETATM   11  O   UNL     1      -6.879   0.771 -33.621  1.00  0.00    -0.337 OA
BRANCH  11  12
HETATM   12  C   UNL     1      -6.304  -0.454 -33.819  1.00  0.00     0.070 A 
HETATM   13  C   UNL     1      -5.291  -0.775 -32.910  1.00  0.00     0.049 A 
HETATM   14  C   UNL     1      -4.605  -1.998 -32.984  1.00  0.00    -0.023 A 
HETATM   15  C   UNL     1      -4.940  -2.915 -34.005  1.00  0.00    -0.026 A 
HETATM   16  C   UNL     1      -3.594  -2.332 -32.069  1.00  0.00     0.012 A 
HETATM   17  C   UNL     1      -5.947  -2.578 -34.921  1.00  0.00     0.015 A 
HETATM   18  C   UNL     1      -4.256  -4.139 -34.084  1.00  0.00     0.012 A 
HETATM   19  C   UNL     1      -6.623  -1.356 -34.831  1.00  0.00     0.037 A 
HETATM   20  C   UNL     1      -3.253  -4.455 -33.165  1.00  0.00     0.001 A 
HETATM   21  C   UNL     1      -2.923  -3.552 -32.159  1.00  0.00     0.001 A 
ENDBRANCH  11  12
ENDBRANCH   9  11
ENDBRANCH   6   9
ENDBRANCH   1   5
BRANCH   2  22
HETATM   22  C   UNL     1      -7.374   4.596 -28.969  1.00  0.00     0.105 C 
BRANCH  22  23
HETATM   23  C   UNL     1      -7.020   5.789 -29.853  1.00  0.00     0.014 C 
BRANCH  23  24
HETATM   24  C   UNL     1      -5.508   6.008 -29.905  1.00  0.00     0.039 C 
BRANCH  24  25
HETATM   25  C   UNL     1      -4.963   5.846 -31.305  1.00  0.00    -0.056 A 
HETATM   26  C   UNL     1      -3.575   5.835 -31.525  1.00  0.00     0.039 A 
HETATM   27  C   UNL     1      -3.150   5.666 -32.822  1.00  0.00     0.063 A 
HETATM   28  C   UNL     1      -4.038   5.506 -33.883  1.00  0.00     0.063 A 
HETATM   29  N   UNL     1      -1.858   5.615 -33.336  1.00  0.00    -0.306 N 
HETATM   30  N   UNL     1      -3.295   5.358 -35.048  1.00  0.00    -0.307 N 
HETATM   31  C   UNL     1      -5.399   5.505 -33.704  1.00  0.00     0.032 A 
HETATM   32  C   UNL     1      -1.932   5.424 -34.723  1.00  0.00     0.325 A 
HETATM   33  H   UNL     1      -3.642   5.222 -35.983  1.00  0.00     0.170 HD
HETATM   34  O   UNL     1      -0.996   5.331 -35.496  1.00  0.00    -0.247 OA
HETATM   35  C   UNL     1      -5.861   5.675 -32.393  1.00  0.00     0.009 A 
HETATM   36  H   UNL     1      -0.995   5.694 -32.826  1.00  0.00     0.170 HD
ENDBRANCH  24  25
ENDBRANCH  23  24
ENDBRANCH  22  23
ENDBRANCH   2  22
TORSDOF 8
ENDMDL
