MODEL 1
REMARK VINA RESULT:      -9.6      0.000      0.000
REMARK  8 active torsions:
REMARK  status: ('A' for Active; 'I' for Inactive)
REMARK    1  A    between atoms: C_3  and  C_4 
REMARK    2  A    between atoms: N_5  and  N_6 
REMARK    3  A    between atoms: C_17  and  C_18 
REMARK       I    between atoms: C_18  and  N_19 
REMARK    4  A    between atoms: N_19  and  C_20 
REMARK    5  A    between atoms: C_20  and  C_21 
REMARK    6  A    between atoms: C_21  and  C_22 
REMARK    7  A    between atoms: C_29  and  N_30 
REMARK    8  A    between atoms: C_31  and  O_32 
ROOT
HETATM    1  N   UNL     1      -7.136   3.899 -30.728  1.00  0.00    -0.202 N 
HETATM    2  C   UNL     1      -8.108   3.250 -31.462  1.00  0.00     0.183 A 
HETATM    3  C   UNL     1      -7.797   1.892 -31.479  1.00  0.00     0.124 A 
HETATM    4  N   UNL     1      -8.583   1.004 -32.141  1.00  0.00    -0.242 NA
HETATM    5  C   UNL     1      -9.672   1.541 -32.726  1.00  0.00     0.086 A 
HETATM    6  C   UNL     1      -9.968   2.929 -32.680  1.00  0.00     0.088 A 
HETATM    7  N   UNL     1      -9.184   3.820 -32.054  1.00  0.00    -0.225 NA
HETATM    8  C   UNL     1     -10.548   0.702 -33.405  1.00  0.00     0.034 A 
HETATM    9  C   UNL     1     -11.699   1.191 -34.030  1.00  0.00     0.002 A 
HETATM   10  C   UNL     1     -11.982   2.548 -33.980  1.00  0.00     0.002 A 
HETATM   11  C   UNL     1     -11.112   3.403 -33.305  1.00  0.00     0.034 A 
HETATM   12  C   UNL     1      -6.610   1.708 -30.724  1.00  0.00     0.104 A 
HETATM   13  C   UNL     1      -6.242   2.959 -30.241  1.00  0.00     0.123 A 
ENDROOT
BRANCH  12  14
HETATM   14  C   UNL     1      -5.898   0.490 -30.403  1.00  0.00     0.257 C 
HETATM   15  N   UNL     1      -5.836  -0.380 -31.480  1.00  0.00    -0.356 N 
HETATM   16  H   UNL     1      -6.449  -0.141 -32.249  1.00  0.00     0.162 HD
HETATM   17  O   UNL     1      -5.278   0.337 -29.358  1.00  0.00    -0.267 OA
BRANCH  15  18
HETATM   18  C   UNL     1      -4.540  -0.883 -31.891  1.00  0.00     0.127 C 
BRANCH  18  19
HETATM   19  C   UNL     1      -4.349  -1.005 -33.403  1.00  0.00     0.053 C 
BRANCH  19  20
HETATM   20  C   UNL     1      -4.878  -2.317 -33.932  1.00  0.00    -0.082 C 
HETATM   21  C   UNL     1      -6.233  -2.280 -34.594  1.00  0.00     0.034 C 
HETATM   22  C   UNL     1      -6.867  -3.663 -34.757  1.00  0.00     0.005 C 
HETATM   23  C   UNL     1      -5.850  -4.689 -35.245  1.00  0.00     0.004 C 
HETATM   24  C   UNL     1      -4.666  -4.795 -34.285  1.00  0.00     0.027 C 
HETATM   25  C   UNL     1      -4.181  -3.461 -33.798  1.00  0.00    -0.024 C 
ENDBRANCH  19  20
ENDBRANCH  18  19
ENDBRANCH  15  18
ENDBRANCH  12  14
BRANCH  13  26
HETATM   26  N   UNL     1      -5.229   3.344 -29.409  1.00  0.00    -0.286 NA
HETATM   27  H   UNL     1      -5.497   3.736 -28.505  1.00  0.00     0.125 HD
HETATM   28  H   UNL     1      -4.513   3.935 -29.842  1.00  0.00     0.125 HD
ENDBRANCH  13  26
BRANCH   1  29
HETATM   29  N   UNL     1      -7.109   5.215 -30.354  1.00  0.00    -0.176 NA
HETATM   30  C   UNL     1      -6.404   6.008 -31.103  1.00  0.00     0.153 C 
BRANCH  30  31
HETATM   31  C   UNL     1      -5.478   5.657 -32.187  1.00  0.00     0.016 A 
HETATM   32  C   UNL     1      -4.131   5.462 -31.879  1.00  0.00     0.016 A 
HETATM   33  C   UNL     1      -3.260   5.002 -32.868  1.00  0.00     0.001 A 
HETATM   34  C   UNL     1      -3.746   4.702 -34.142  1.00  0.00     0.003 A 
HETATM   35  C   UNL     1      -5.097   4.888 -34.441  1.00  0.00     0.037 A 
HETATM   36  C   UNL     1      -5.961   5.384 -33.469  1.00  0.00     0.077 A 
BRANCH  36  37
HETATM   37  O   UNL     1      -7.265   5.569 -33.834  1.00  0.00    -0.360 OA
HETATM   38  H   UNL     1      -7.297   6.155 -34.616  1.00  0.00     0.217 HD
ENDBRANCH  36  37
ENDBRANCH  30  31
ENDBRANCH   1  29
TORSDOF 8
ENDMDL
MODEL 2
REMARK VINA RESULT:      -9.3      1.285      1.574
REMARK  8 active torsions:
REMARK  status: ('A' for Active; 'I' for Inactive)
REMARK    1  A    between atoms: C_3  and  C_4 
REMARK    2  A    between atoms: N_5  and  N_6 
REMARK    3  A    between atoms: C_17  and  C_18 
REMARK       I    between atoms: C_18  and  N_19 
REMARK    4  A    between atoms: N_19  and  C_20 
REMARK    5  A    between atoms: C_20  and  C_21 
REMARK    6  A    between atoms: C_21  and  C_22 
REMARK    7  A    between atoms: C_29  and  N_30 
REMARK    8  A    between atoms: C_31  and  O_32 
ROOT
HETATM    1  N   UNL     1      -6.553   4.289 -31.244  1.00  0.00    -0.202 N 
HETATM    2  C   UNL     1      -7.557   3.822 -32.068  1.00  0.00     0.183 A 
HETATM    3  C   UNL     1      -7.529   2.431 -32.031  1.00  0.00     0.124 A 
HETATM    4  N   UNL     1      -8.408   1.695 -32.760  1.00  0.00    -0.242 NA
HETATM    5  C   UNL     1      -9.300   2.418 -33.465  1.00  0.00     0.086 A 
HETATM    6  C   UNL     1      -9.311   3.838 -33.471  1.00  0.00     0.088 A 
HETATM    7  N   UNL     1      -8.430   4.575 -32.778  1.00  0.00    -0.225 NA
HETATM    8  C   UNL     1     -10.256   1.749 -34.220  1.00  0.00     0.034 A 
HETATM    9  C   UNL     1     -11.214   2.437 -34.971  1.00  0.00     0.002 A 
HETATM   10  C   UNL     1     -11.218   3.823 -34.972  1.00  0.00     0.002 A 
HETATM   11  C   UNL     1     -10.265   4.510 -34.221  1.00  0.00     0.034 A 
HETATM   12  C   UNL     1      -6.487   2.039 -31.152  1.00  0.00     0.104 A 
HETATM   13  C   UNL     1      -5.923   3.207 -30.651  1.00  0.00     0.123 A 
ENDROOT
BRANCH  12  14
HETATM   14  C   UNL     1      -6.073   0.715 -30.739  1.00  0.00     0.257 C 
HETATM   15  N   UNL     1      -5.998  -0.167 -31.806  1.00  0.00    -0.356 N 
HETATM   16  H   UNL     1      -6.423   0.171 -32.661  1.00  0.00     0.162 HD
HETATM   17  O   UNL     1      -5.670   0.464 -29.611  1.00  0.00    -0.267 OA
BRANCH  15  18
HETATM   18  C   UNL     1      -4.768  -0.906 -32.010  1.00  0.00     0.127 C 
BRANCH  18  19
HETATM   19  C   UNL     1      -4.388  -1.130 -33.474  1.00  0.00     0.053 C 
BRANCH  19  20
HETATM   20  C   UNL     1      -4.905  -2.452 -33.992  1.00  0.00    -0.082 C 
HETATM   21  C   UNL     1      -6.261  -2.433 -34.653  1.00  0.00     0.034 C 
HETATM   22  C   UNL     1      -6.881  -3.824 -34.805  1.00  0.00     0.005 C 
HETATM   23  C   UNL     1      -5.854  -4.844 -35.285  1.00  0.00     0.004 C 
HETATM   24  C   UNL     1      -4.669  -4.931 -34.325  1.00  0.00     0.027 C 
HETATM   25  C   UNL     1      -4.197  -3.588 -33.849  1.00  0.00    -0.024 C 
ENDBRANCH  19  20
ENDBRANCH  18  19
ENDBRANCH  15  18
ENDBRANCH  12  14
BRANCH  13  26
HETATM   26  N   UNL     1      -4.941   3.410 -29.722  1.00  0.00    -0.286 NA
HETATM   27  H   UNL     1      -3.992   3.141 -29.987  1.00  0.00     0.125 HD
HETATM   28  H   UNL     1      -5.151   3.055 -28.785  1.00  0.00     0.125 HD
ENDBRANCH  13  26
BRANCH   1  29
HETATM   29  N   UNL     1      -6.297   5.586 -30.888  1.00  0.00    -0.176 NA
HETATM   30  C   UNL     1      -5.364   6.189 -31.560  1.00  0.00     0.153 C 
BRANCH  30  31
HETATM   31  C   UNL     1      -4.413   5.616 -32.522  1.00  0.00     0.016 A 
HETATM   32  C   UNL     1      -4.760   5.596 -33.874  1.00  0.00     0.016 A 
HETATM   33  C   UNL     1      -3.821   5.177 -34.817  1.00  0.00     0.001 A 
HETATM   34  C   UNL     1      -2.534   4.819 -34.411  1.00  0.00     0.003 A 
HETATM   35  C   UNL     1      -2.189   4.852 -33.058  1.00  0.00     0.037 A 
HETATM   36  C   UNL     1      -3.135   5.232 -32.110  1.00  0.00     0.077 A 
BRANCH  36  37
HETATM   37  O   UNL     1      -2.743   5.216 -30.801  1.00  0.00    -0.360 OA
HETATM   38  H   UNL     1      -2.184   5.998 -30.625  1.00  0.00     0.217 HD
ENDBRANCH  36  37
ENDBRANCH  30  31
ENDBRANCH   1  29
TORSDOF 8
ENDMDL
MODEL 3
REMARK VINA RESULT:      -9.3      2.027      2.767
REMARK  8 active torsions:
REMARK  status: ('A' for Active; 'I' for Inactive)
REMARK    1  A    between atoms: C_3  and  C_4 
REMARK    2  A    between atoms: N_5  and  N_6 
REMARK    3  A    between atoms: C_17  and  C_18 
REMARK       I    between atoms: C_18  and  N_19 
REMARK    4  A    between atoms: N_19  and  C_20 
REMARK    5  A    between atoms: C_20  and  C_21 
REMARK    6  A    between atoms: C_21  and  C_22 
REMARK    7  A    between atoms: C_29  and  N_30 
REMARK    8  A    between atoms: C_31  and  O_32 
ROOT
HETATM    1  N   UNL     1      -5.228   3.762 -33.176  1.00  0.00    -0.202 N 
HETATM    2  C   UNL     1      -6.358   2.970 -33.183  1.00  0.00     0.183 A 
HETATM    3  C   UNL     1      -6.035   1.757 -32.580  1.00  0.00     0.124 A 
HETATM    4  N   UNL     1      -6.961   0.771 -32.455  1.00  0.00    -0.242 NA
HETATM    5  C   UNL     1      -8.186   1.086 -32.918  1.00  0.00     0.086 A 
HETATM    6  C   UNL     1      -8.488   2.338 -33.516  1.00  0.00     0.088 A 
HETATM    7  N   UNL     1      -7.574   3.308 -33.673  1.00  0.00    -0.225 NA
HETATM    8  C   UNL     1      -9.205   0.147 -32.807  1.00  0.00     0.034 A 
HETATM    9  C   UNL     1     -10.500   0.409 -33.263  1.00  0.00     0.002 A 
HETATM   10  C   UNL     1     -10.787   1.634 -33.846  1.00  0.00     0.002 A 
HETATM   11  C   UNL     1      -9.776   2.586 -33.967  1.00  0.00     0.034 A 
HETATM   12  C   UNL     1      -4.674   1.816 -32.186  1.00  0.00     0.104 A 
HETATM   13  C   UNL     1      -4.208   3.079 -32.534  1.00  0.00     0.123 A 
ENDROOT
BRANCH  12  14
HETATM   14  C   UNL     1      -3.870   0.837 -31.486  1.00  0.00     0.257 C 
HETATM   15  N   UNL     1      -4.474  -0.411 -31.455  1.00  0.00    -0.356 N 
HETATM   16  H   UNL     1      -5.446  -0.414 -31.737  1.00  0.00     0.162 HD
HETATM   17  O   UNL     1      -2.721   1.054 -31.125  1.00  0.00    -0.267 OA
BRANCH  15  18
HETATM   18  C   UNL     1      -3.719  -1.557 -31.920  1.00  0.00     0.127 C 
BRANCH  18  19
HETATM   19  C   UNL     1      -3.597  -1.671 -33.440  1.00  0.00     0.053 C 
BRANCH  19  20
HETATM   20  C   UNL     1      -4.553  -2.695 -34.005  1.00  0.00    -0.082 C 
HETATM   21  C   UNL     1      -5.896  -2.184 -34.461  1.00  0.00     0.034 C 
HETATM   22  C   UNL     1      -6.933  -3.292 -34.658  1.00  0.00     0.005 C 
HETATM   23  C   UNL     1      -6.334  -4.496 -35.377  1.00  0.00     0.004 C 
HETATM   24  C   UNL     1      -5.140  -5.062 -34.608  1.00  0.00     0.027 C 
HETATM   25  C   UNL     1      -4.224  -3.999 -34.076  1.00  0.00    -0.024 C 
ENDBRANCH  19  20
ENDBRANCH  18  19
ENDBRANCH  15  18
ENDBRANCH  12  14
BRANCH  13  26
HETATM   26  N   UNL     1      -3.003   3.687 -32.323  1.00  0.00    -0.286 NA
HETATM   27  H   UNL     1      -2.592   3.588 -31.393  1.00  0.00     0.125 HD
HETATM   28  H   UNL     1      -2.954   4.667 -32.619  1.00  0.00     0.125 HD
ENDBRANCH  13  26
BRANCH   1  29
HETATM   29  N   UNL     1      -5.121   5.072 -33.556  1.00  0.00    -0.176 NA
HETATM   30  C   UNL     1      -5.416   5.956 -32.651  1.00  0.00     0.153 C 
BRANCH  30  31
HETATM   31  C   UNL     1      -6.032   5.745 -31.334  1.00  0.00     0.016 A 
HETATM   32  C   UNL     1      -7.422   5.657 -31.252  1.00  0.00     0.016 A 
HETATM   33  C   UNL     1      -8.018   5.326 -30.034  1.00  0.00     0.001 A 
HETATM   34  C   UNL     1      -7.224   5.049 -28.920  1.00  0.00     0.003 A 
HETATM   35  C   UNL     1      -5.832   5.127 -29.011  1.00  0.00     0.037 A 
HETATM   36  C   UNL     1      -5.236   5.494 -30.214  1.00  0.00     0.077 A 
BRANCH  36  37
HETATM   37  O   UNL     1      -3.872   5.580 -30.229  1.00  0.00    -0.360 OA
HETATM   38  H   UNL     1      -3.602   6.441 -29.856  1.00  0.00     0.217 HD
ENDBRANCH  36  37
ENDBRANCH  30  31
ENDBRANCH   1  29
TORSDOF 8
ENDMDL
MODEL 4
REMARK VINA RESULT:      -9.3      2.244      7.405
REMARK  8 active torsions:
REMARK  status: ('A' for Active; 'I' for Inactive)
REMARK    1  A    between atoms: C_3  and  C_4 
REMARK    2  A    between atoms: N_5  and  N_6 
REMARK    3  A    between atoms: C_17  and  C_18 
REMARK       I    between atoms: C_18  and  N_19 
REMARK    4  A    between atoms: N_19  and  C_20 
REMARK    5  A    between atoms: C_20  and  C_21 
REMARK    6  A    between atoms: C_21  and  C_22 
REMARK    7  A    between atoms: C_29  and  N_30 
REMARK    8  A    between atoms: C_31  and  O_32 
ROOT
HETATM    1  N   UNL     1      -7.109   2.429 -31.924  1.00  0.00    -0.202 N 
HETATM    2  C   UNL     1      -6.109   3.115 -32.584  1.00  0.00     0.183 A 
HETATM    3  C   UNL     1      -6.706   3.905 -33.562  1.00  0.00     0.124 A 
HETATM    4  N   UNL     1      -5.956   4.690 -34.379  1.00  0.00    -0.242 NA
HETATM    5  C   UNL     1      -4.632   4.658 -34.133  1.00  0.00     0.086 A 
HETATM    6  C   UNL     1      -4.055   3.850 -33.118  1.00  0.00     0.088 A 
HETATM    7  N   UNL     1      -4.782   3.049 -32.324  1.00  0.00    -0.225 NA
HETATM    8  C   UNL     1      -3.789   5.451 -34.903  1.00  0.00     0.034 A 
HETATM    9  C   UNL     1      -2.407   5.469 -34.698  1.00  0.00     0.002 A 
HETATM   10  C   UNL     1      -1.850   4.678 -33.705  1.00  0.00     0.002 A 
HETATM   11  C   UNL     1      -2.682   3.875 -32.924  1.00  0.00     0.034 A 
HETATM   12  C   UNL     1      -8.108   3.704 -33.489  1.00  0.00     0.104 A 
HETATM   13  C   UNL     1      -8.333   2.815 -32.444  1.00  0.00     0.123 A 
ENDROOT
BRANCH  12  14
HETATM   14  C   UNL     1      -9.173   4.318 -34.254  1.00  0.00     0.257 C 
HETATM   15  N   UNL     1      -9.848   3.399 -35.042  1.00  0.00    -0.356 N 
HETATM   16  H   UNL     1      -9.391   2.500 -35.124  1.00  0.00     0.162 HD
HETATM   17  O   UNL     1      -9.535   5.475 -34.083  1.00  0.00    -0.267 OA
BRANCH  15  18
HETATM   18  C   UNL     1     -11.292   3.321 -34.932  1.00  0.00     0.127 C 
BRANCH  18  19
HETATM   19  C   UNL     1     -11.829   1.958 -34.493  1.00  0.00     0.053 C 
BRANCH  19  20
HETATM   20  C   UNL     1     -13.090   2.089 -33.672  1.00  0.00    -0.082 C 
HETATM   21  C   UNL     1     -14.194   1.106 -33.970  1.00  0.00     0.034 C 
HETATM   22  C   UNL     1     -15.550   1.522 -33.393  1.00  0.00     0.005 C 
HETATM   23  C   UNL     1     -15.412   2.047 -31.968  1.00  0.00     0.004 C 
HETATM   24  C   UNL     1     -14.459   3.240 -31.907  1.00  0.00     0.027 C 
HETATM   25  C   UNL     1     -13.223   3.049 -32.738  1.00  0.00    -0.024 C 
ENDBRANCH  19  20
ENDBRANCH  18  19
ENDBRANCH  15  18
ENDBRANCH  12  14
BRANCH  13  26
HETATM   26  N   UNL     1      -9.491   2.336 -31.898  1.00  0.00    -0.286 NA
HETATM   27  H   UNL     1     -10.013   2.972 -31.293  1.00  0.00     0.125 HD
HETATM   28  H   UNL     1      -9.412   1.419 -31.449  1.00  0.00     0.125 HD
ENDBRANCH  13  26
BRANCH   1  29
HETATM   29  N   UNL     1      -6.988   1.635 -30.816  1.00  0.00    -0.176 NA
HETATM   30  C   UNL     1      -6.532   0.436 -31.019  1.00  0.00     0.153 C 
BRANCH  30  31
HETATM   31  C   UNL     1      -6.306  -0.252 -32.297  1.00  0.00     0.016 A 
HETATM   32  C   UNL     1      -4.999  -0.589 -32.654  1.00  0.00     0.016 A 
HETATM   33  C   UNL     1      -4.776  -1.356 -33.797  1.00  0.00     0.001 A 
HETATM   34  C   UNL     1      -5.856  -1.814 -34.553  1.00  0.00     0.003 A 
HETATM   35  C   UNL     1      -7.163  -1.483 -34.185  1.00  0.00     0.037 A 
HETATM   36  C   UNL     1      -7.387  -0.686 -33.067  1.00  0.00     0.077 A 
BRANCH  36  37
HETATM   37  O   UNL     1      -8.686  -0.376 -32.777  1.00  0.00    -0.360 OA
HETATM   38  H   UNL     1      -9.068   0.128 -33.522  1.00  0.00     0.217 HD
ENDBRANCH  36  37
ENDBRANCH  30  31
ENDBRANCH   1  29
TORSDOF 8
ENDMDL
MODEL 5
REMARK VINA RESULT:      -9.3      1.983      7.264
REMARK  8 active torsions:
REMARK  status: ('A' for Active; 'I' for Inactive)
REMARK    1  A    between atoms: C_3  and  C_4 
REMARK    2  A    between atoms: N_5  and  N_6 
REMARK    3  A    between atoms: C_17  and  C_18 
REMARK       I    between atoms: C_18  and  N_19 
REMARK    4  A    between atoms: N_19  and  C_20 
REMARK    5  A    between atoms: C_20  and  C_21 
REMARK    6  A    between atoms: C_21  and  C_22 
REMARK    7  A    between atoms: C_29  and  N_30 
REMARK    8  A    between atoms: C_31  and  O_32 
ROOT
HETATM    1  N   UNL     1      -6.144   2.666 -31.350  1.00  0.00    -0.202 N 
HETATM    2  C   UNL     1      -5.206   3.371 -32.077  1.00  0.00     0.183 A 
HETATM    3  C   UNL     1      -5.841   3.895 -33.200  1.00  0.00     0.124 A 
HETATM    4  N   UNL     1      -5.154   4.635 -34.108  1.00  0.00    -0.242 NA
HETATM    5  C   UNL     1      -3.856   4.836 -33.807  1.00  0.00     0.086 A 
HETATM    6  C   UNL     1      -3.241   4.298 -32.646  1.00  0.00     0.088 A 
HETATM    7  N   UNL     1      -3.902   3.541 -31.756  1.00  0.00    -0.225 NA
HETATM    8  C   UNL     1      -3.081   5.605 -34.667  1.00  0.00     0.034 A 
HETATM    9  C   UNL     1      -1.729   5.856 -34.413  1.00  0.00     0.002 A 
HETATM   10  C   UNL     1      -1.136   5.327 -33.276  1.00  0.00     0.002 A 
HETATM   11  C   UNL     1      -1.899   4.552 -32.404  1.00  0.00     0.034 A 
HETATM   12  C   UNL     1      -7.205   3.509 -33.149  1.00  0.00     0.104 A 
HETATM   13  C   UNL     1      -7.373   2.779 -31.978  1.00  0.00     0.123 A 
ENDROOT
BRANCH  12  14
HETATM   14  C   UNL     1      -8.291   3.828 -34.051  1.00  0.00     0.257 C 
HETATM   15  N   UNL     1      -9.045   2.712 -34.379  1.00  0.00    -0.356 N 
HETATM   16  H   UNL     1      -8.625   1.829 -34.115  1.00  0.00     0.162 HD
HETATM   17  O   UNL     1      -8.602   4.976 -34.340  1.00  0.00    -0.267 OA
BRANCH  15  18
HETATM   18  C   UNL     1     -10.481   2.764 -34.187  1.00  0.00     0.127 C 
BRANCH  18  19
HETATM   19  C   UNL     1     -11.159   1.402 -34.036  1.00  0.00     0.053 C 
BRANCH  19  20
HETATM   20  C   UNL     1     -12.625   1.539 -33.701  1.00  0.00    -0.082 C 
HETATM   21  C   UNL     1     -13.543   0.468 -34.237  1.00  0.00     0.034 C 
HETATM   22  C   UNL     1     -15.022   0.858 -34.193  1.00  0.00     0.005 C 
HETATM   23  C   UNL     1     -15.384   1.528 -32.871  1.00  0.00     0.004 C 
HETATM   24  C   UNL     1     -14.534   2.774 -32.631  1.00  0.00     0.027 C 
HETATM   25  C   UNL     1     -13.087   2.577 -32.977  1.00  0.00    -0.024 C 
ENDBRANCH  19  20
ENDBRANCH  18  19
ENDBRANCH  15  18
ENDBRANCH  12  14
BRANCH  13  26
HETATM   26  N   UNL     1      -8.489   2.235 -31.405  1.00  0.00    -0.286 NA
HETATM   27  H   UNL     1      -9.017   2.831 -30.765  1.00  0.00     0.125 HD
HETATM   28  H   UNL     1      -8.352   1.311 -30.983  1.00  0.00     0.125 HD
ENDBRANCH  13  26
BRANCH   1  29
HETATM   29  N   UNL     1      -5.988   2.089 -30.118  1.00  0.00    -0.176 NA
HETATM   30  C   UNL     1      -5.404   0.929 -30.099  1.00  0.00     0.153 C 
BRANCH  30  31
HETATM   31  C   UNL     1      -5.058   0.062 -31.232  1.00  0.00     0.016 A 
HETATM   32  C   UNL     1      -6.087  -0.582 -31.921  1.00  0.00     0.016 A 
HETATM   33  C   UNL     1      -5.792  -1.304 -33.078  1.00  0.00     0.001 A 
HETATM   34  C   UNL     1      -4.482  -1.346 -33.561  1.00  0.00     0.003 A 
HETATM   35  C   UNL     1      -3.458  -0.690 -32.873  1.00  0.00     0.037 A 
HETATM   36  C   UNL     1      -3.743  -0.001 -31.698  1.00  0.00     0.077 A 
BRANCH  36  37
HETATM   37  O   UNL     1      -2.692   0.595 -31.059  1.00  0.00    -0.360 OA
HETATM   38  H   UNL     1      -2.323   1.294 -31.633  1.00  0.00     0.217 HD
ENDBRANCH  36  37
ENDBRANCH  30  31
ENDBRANCH   1  29
TORSDOF 8
ENDMDL
MODEL 6
REMARK VINA RESULT:      -9.1      1.998      7.127
REMARK  8 active torsions:
REMARK  status: ('A' for Active; 'I' for Inactive)
REMARK    1  A    between atoms: C_3  and  C_4 
REMARK    2  A    between atoms: N_5  and  N_6 
REMARK    3  A    between atoms: C_17  and  C_18 
REMARK       I    between atoms: C_18  and  N_19 
REMARK    4  A    between atoms: N_19  and  C_20 
REMARK    5  A    between atoms: C_20  and  C_21 
REMARK    6  A    between atoms: C_21  and  C_22 
REMARK    7  A    between atoms: C_29  and  N_30 
REMARK    8  A    between atoms: C_31  and  O_32 
ROOT
HETATM    1  N   UNL     1      -6.926   2.257 -31.197  1.00  0.00    -0.202 N 
HETATM    2  C   UNL     1      -6.059   2.961 -32.008  1.00  0.00     0.183 A 
HETATM    3  C   UNL     1      -6.821   3.768 -32.850  1.00  0.00     0.124 A 
HETATM    4  N   UNL     1      -6.227   4.572 -33.769  1.00  0.00    -0.242 NA
HETATM    5  C   UNL     1      -4.881   4.542 -33.761  1.00  0.00     0.086 A 
HETATM    6  C   UNL     1      -4.132   3.716 -32.880  1.00  0.00     0.088 A 
HETATM    7  N   UNL     1      -4.708   2.896 -31.988  1.00  0.00    -0.225 NA
HETATM    8  C   UNL     1      -4.187   5.354 -34.651  1.00  0.00     0.034 A 
HETATM    9  C   UNL     1      -2.790   5.374 -34.693  1.00  0.00     0.002 A 
HETATM   10  C   UNL     1      -2.067   4.566 -33.830  1.00  0.00     0.002 A 
HETATM   11  C   UNL     1      -2.746   3.744 -32.932  1.00  0.00     0.034 A 
HETATM   12  C   UNL     1      -8.188   3.559 -32.534  1.00  0.00     0.104 A 
HETATM   13  C   UNL     1      -8.224   2.648 -31.485  1.00  0.00     0.123 A 
ENDROOT
BRANCH  12  14
HETATM   14  C   UNL     1      -9.371   4.183 -33.087  1.00  0.00     0.257 C 
HETATM   15  N   UNL     1      -9.509   3.934 -34.443  1.00  0.00    -0.356 N 
HETATM   16  H   UNL     1      -8.688   3.537 -34.883  1.00  0.00     0.162 HD
HETATM   17  O   UNL     1     -10.229   4.714 -32.395  1.00  0.00    -0.267 OA
BRANCH  15  18
HETATM   18  C   UNL     1     -10.762   3.384 -34.923  1.00  0.00     0.127 C 
BRANCH  18  19
HETATM   19  C   UNL     1     -11.096   1.990 -34.391  1.00  0.00     0.053 C 
BRANCH  19  20
HETATM   20  C   UNL     1     -12.527   1.898 -33.916  1.00  0.00    -0.082 C 
HETATM   21  C   UNL     1     -13.332   0.729 -34.424  1.00  0.00     0.034 C 
HETATM   22  C   UNL     1     -14.840   0.897 -34.224  1.00  0.00     0.005 C 
HETATM   23  C   UNL     1     -15.161   1.452 -32.840  1.00  0.00     0.004 C 
HETATM   24  C   UNL     1     -14.475   2.798 -32.610  1.00  0.00     0.027 C 
HETATM   25  C   UNL     1     -13.056   2.827 -33.098  1.00  0.00    -0.024 C 
ENDBRANCH  19  20
ENDBRANCH  18  19
ENDBRANCH  15  18
ENDBRANCH  12  14
BRANCH  13  26
HETATM   26  N   UNL     1      -9.267   2.153 -30.753  1.00  0.00    -0.286 NA
HETATM   27  H   UNL     1      -9.855   1.450 -31.205  1.00  0.00     0.125 HD
HETATM   28  H   UNL     1      -9.857   2.860 -30.306  1.00  0.00     0.125 HD
ENDBRANCH  13  26
BRANCH   1  29
HETATM   29  N   UNL     1      -6.612   1.441 -30.144  1.00  0.00    -0.176 NA
HETATM   30  C   UNL     1      -6.172   0.258 -30.449  1.00  0.00     0.153 C 
BRANCH  30  31
HETATM   31  C   UNL     1      -6.144  -0.396 -31.764  1.00  0.00     0.016 A 
HETATM   32  C   UNL     1      -7.337  -0.513 -32.478  1.00  0.00     0.016 A 
HETATM   33  C   UNL     1      -7.312  -1.011 -33.781  1.00  0.00     0.001 A 
HETATM   34  C   UNL     1      -6.095  -1.350 -34.376  1.00  0.00     0.003 A 
HETATM   35  C   UNL     1      -4.902  -1.220 -33.660  1.00  0.00     0.037 A 
HETATM   36  C   UNL     1      -4.928  -0.760 -32.347  1.00  0.00     0.077 A 
BRANCH  36  37
HETATM   37  O   UNL     1      -3.730  -0.682 -31.693  1.00  0.00    -0.360 OA
HETATM   38  H   UNL     1      -3.017  -0.963 -32.299  1.00  0.00     0.217 HD
ENDBRANCH  36  37
ENDBRANCH  30  31
ENDBRANCH   1  29
TORSDOF 8
ENDMDL
MODEL 7
REMARK VINA RESULT:      -9.1      2.156      6.476
REMARK  8 active torsions:
REMARK  status: ('A' for Active; 'I' for Inactive)
REMARK    1  A    between atoms: C_3  and  C_4 
REMARK    2  A    between atoms: N_5  and  N_6 
REMARK    3  A    between atoms: C_17  and  C_18 
REMARK       I    between atoms: C_18  and  N_19 
REMARK    4  A    between atoms: N_19  and  C_20 
REMARK    5  A    between atoms: C_20  and  C_21 
REMARK    6  A    between atoms: C_21  and  C_22 
REMARK    7  A    between atoms: C_29  and  N_30 
REMARK    8  A    between atoms: C_31  and  O_32 
ROOT
HETATM    1  N   UNL     1      -7.161   1.292 -30.880  1.00  0.00    -0.202 N 
HETATM    2  C   UNL     1      -6.781   0.343 -31.807  1.00  0.00     0.183 A 
HETATM    3  C   UNL     1      -7.849   0.142 -32.677  1.00  0.00     0.124 A 
HETATM    4  N   UNL     1      -7.761  -0.752 -33.696  1.00  0.00    -0.242 NA
HETATM    5  C   UNL     1      -6.570  -1.373 -33.799  1.00  0.00     0.086 A 
HETATM    6  C   UNL     1      -5.495  -1.137 -32.903  1.00  0.00     0.088 A 
HETATM    7  N   UNL     1      -5.580  -0.277 -31.876  1.00  0.00    -0.225 NA
HETATM    8  C   UNL     1      -6.380  -2.287 -34.830  1.00  0.00     0.034 A 
HETATM    9  C   UNL     1      -5.168  -2.964 -34.998  1.00  0.00     0.002 A 
HETATM   10  C   UNL     1      -4.123  -2.727 -34.119  1.00  0.00     0.002 A 
HETATM   11  C   UNL     1      -4.298  -1.815 -33.079  1.00  0.00     0.034 A 
HETATM   12  C   UNL     1      -8.905   1.001 -32.276  1.00  0.00     0.104 A 
HETATM   13  C   UNL     1      -8.441   1.726 -31.185  1.00  0.00     0.123 A 
ENDROOT
BRANCH  12  14
HETATM   14  C   UNL     1     -10.208   1.204 -32.871  1.00  0.00     0.257 C 
HETATM   15  N   UNL     1     -10.418   2.526 -33.232  1.00  0.00    -0.356 N 
HETATM   16  H   UNL     1      -9.738   3.177 -32.859  1.00  0.00     0.162 HD
HETATM   17  O   UNL     1     -10.955   0.282 -33.173  1.00  0.00    -0.267 OA
BRANCH  15  18
HETATM   18  C   UNL     1     -10.830   2.816 -34.592  1.00  0.00     0.127 C 
BRANCH  18  19
HETATM   19  C   UNL     1     -12.141   3.592 -34.714  1.00  0.00     0.053 C 
BRANCH  19  20
HETATM   20  C   UNL     1     -13.290   2.861 -34.060  1.00  0.00    -0.082 C 
HETATM   21  C   UNL     1     -13.872   3.493 -32.820  1.00  0.00     0.034 C 
HETATM   22  C   UNL     1     -14.749   2.539 -32.006  1.00  0.00     0.005 C 
HETATM   23  C   UNL     1     -15.671   1.723 -32.906  1.00  0.00     0.004 C 
HETATM   24  C   UNL     1     -14.874   0.916 -33.930  1.00  0.00     0.027 C 
HETATM   25  C   UNL     1     -13.751   1.695 -34.550  1.00  0.00    -0.024 C 
ENDBRANCH  19  20
ENDBRANCH  18  19
ENDBRANCH  15  18
ENDBRANCH  12  14
BRANCH  13  26
HETATM   26  N   UNL     1      -9.014   2.733 -30.459  1.00  0.00    -0.286 NA
HETATM   27  H   UNL     1      -8.399   3.487 -30.149  1.00  0.00     0.125 HD
HETATM   28  H   UNL     1      -9.602   2.424 -29.678  1.00  0.00     0.125 HD
ENDBRANCH  13  26
BRANCH   1  29
HETATM   29  N   UNL     1      -6.387   1.879 -29.916  1.00  0.00    -0.176 NA
HETATM   30  C   UNL     1      -5.797   2.987 -30.252  1.00  0.00     0.153 C 
BRANCH  30  31
HETATM   31  C   UNL     1      -5.692   3.598 -31.584  1.00  0.00     0.016 A 
HETATM   32  C   UNL     1      -6.532   4.667 -31.897  1.00  0.00     0.016 A 
HETATM   33  C   UNL     1      -6.359   5.345 -33.104  1.00  0.00     0.001 A 
HETATM   34  C   UNL     1      -5.327   4.979 -33.970  1.00  0.00     0.003 A 
HETATM   35  C   UNL     1      -4.481   3.915 -33.646  1.00  0.00     0.037 A 
HETATM   36  C   UNL     1      -4.675   3.212 -32.460  1.00  0.00     0.077 A 
BRANCH  36  37
HETATM   37  O   UNL     1      -3.832   2.165 -32.216  1.00  0.00    -0.360 OA
HETATM   38  H   UNL     1      -4.315   1.474 -31.723  1.00  0.00     0.217 HD
ENDBRANCH  36  37
ENDBRANCH  30  31
ENDBRANCH   1  29
TORSDOF 8
ENDMDL
MODEL 8
REMARK VINA RESULT:      -8.9      4.008      7.935
REMARK  8 active torsions:
REMARK  status: ('A' for Active; 'I' for Inactive)
REMARK    1  A    between atoms: C_3  and  C_4 
REMARK    2  A    between atoms: N_5  and  N_6 
REMARK    3  A    between atoms: C_17  and  C_18 
REMARK       I    between atoms: C_18  and  N_19 
REMARK    4  A    between atoms: N_19  and  C_20 
REMARK    5  A    between atoms: C_20  and  C_21 
REMARK    6  A    between atoms: C_21  and  C_22 
REMARK    7  A    between atoms: C_29  and  N_30 
REMARK    8  A    between atoms: C_31  and  O_32 
ROOT
HETATM    1  N   UNL     1      -4.534   5.762 -32.103  1.00  0.00    -0.202 N 
HETATM    2  C   UNL     1      -4.873   4.484 -31.709  1.00  0.00     0.183 A 
HETATM    3  C   UNL     1      -5.262   4.536 -30.373  1.00  0.00     0.124 A 
HETATM    4  N   UNL     1      -5.644   3.413 -29.713  1.00  0.00    -0.242 NA
HETATM    5  C   UNL     1      -5.647   2.292 -30.461  1.00  0.00     0.086 A 
HETATM    6  C   UNL     1      -5.257   2.274 -31.826  1.00  0.00     0.088 A 
HETATM    7  N   UNL     1      -4.850   3.372 -32.481  1.00  0.00    -0.225 NA
HETATM    8  C   UNL     1      -6.050   1.098 -29.875  1.00  0.00     0.034 A 
HETATM    9  C   UNL     1      -6.082  -0.101 -30.594  1.00  0.00     0.002 A 
HETATM   10  C   UNL     1      -5.700  -0.110 -31.927  1.00  0.00     0.002 A 
HETATM   11  C   UNL     1      -5.291   1.079 -32.529  1.00  0.00     0.034 A 
HETATM   12  C   UNL     1      -5.168   5.885 -29.945  1.00  0.00     0.104 A 
HETATM   13  C   UNL     1      -4.750   6.628 -31.044  1.00  0.00     0.123 A 
ENDROOT
BRANCH  12  14
HETATM   14  C   UNL     1      -5.495   6.475 -28.665  1.00  0.00     0.257 C 
HETATM   15  N   UNL     1      -4.664   6.022 -27.652  1.00  0.00    -0.356 N 
HETATM   16  H   UNL     1      -4.098   5.220 -27.901  1.00  0.00     0.162 HD
HETATM   17  O   UNL     1      -6.295   7.392 -28.538  1.00  0.00    -0.267 OA
BRANCH  15  18
HETATM   18  C   UNL     1      -3.977   6.999 -26.830  1.00  0.00     0.127 C 
BRANCH  18  19
HETATM   19  C   UNL     1      -2.706   6.488 -26.151  1.00  0.00     0.053 C 
BRANCH  19  20
HETATM   20  C   UNL     1      -1.461   7.068 -26.780  1.00  0.00    -0.082 C 
HETATM   21  C   UNL     1      -1.543   8.503 -27.239  1.00  0.00     0.034 C 
HETATM   22  C   UNL     1      -0.412   8.902 -28.189  1.00  0.00     0.005 C 
HETATM   23  C   UNL     1       0.934   8.370 -27.710  1.00  0.00     0.004 C 
HETATM   24  C   UNL     1       0.912   6.848 -27.575  1.00  0.00     0.027 C 
HETATM   25  C   UNL     1      -0.346   6.331 -26.939  1.00  0.00    -0.024 C 
ENDBRANCH  19  20
ENDBRANCH  18  19
ENDBRANCH  15  18
ENDBRANCH  12  14
BRANCH  13  26
HETATM   26  N   UNL     1      -4.567   7.972 -31.209  1.00  0.00    -0.286 NA
HETATM   27  H   UNL     1      -4.680   8.341 -32.155  1.00  0.00     0.125 HD
HETATM   28  H   UNL     1      -3.709   8.347 -30.793  1.00  0.00     0.125 HD
ENDBRANCH  13  26
BRANCH   1  29
HETATM   29  N   UNL     1      -4.212   6.193 -33.362  1.00  0.00    -0.176 NA
HETATM   30  C   UNL     1      -2.946   6.340 -33.610  1.00  0.00     0.153 C 
BRANCH  30  31
HETATM   31  C   UNL     1      -1.819   6.290 -32.669  1.00  0.00     0.016 A 
HETATM   32  C   UNL     1      -1.250   5.052 -32.371  1.00  0.00     0.016 A 
HETATM   33  C   UNL     1      -0.099   4.996 -31.585  1.00  0.00     0.001 A 
HETATM   34  C   UNL     1       0.498   6.176 -31.136  1.00  0.00     0.003 A 
HETATM   35  C   UNL     1      -0.069   7.414 -31.447  1.00  0.00     0.037 A 
HETATM   36  C   UNL     1      -1.239   7.471 -32.199  1.00  0.00     0.077 A 
BRANCH  36  37
HETATM   37  O   UNL     1      -1.758   8.711 -32.444  1.00  0.00    -0.360 OA
HETATM   38  H   UNL     1      -2.427   8.918 -31.764  1.00  0.00     0.217 HD
ENDBRANCH  36  37
ENDBRANCH  30  31
ENDBRANCH   1  29
TORSDOF 8
ENDMDL
MODEL 9
REMARK VINA RESULT:      -8.8      2.251      3.265
REMARK  8 active torsions:
REMARK  status: ('A' for Active; 'I' for Inactive)
REMARK    1  A    between atoms: C_3  and  C_4 
REMARK    2  A    between atoms: N_5  and  N_6 
REMARK    3  A    between atoms: C_17  and  C_18 
REMARK       I    between atoms: C_18  and  N_19 
REMARK    4  A    between atoms: N_19  and  C_20 
REMARK    5  A    between atoms: C_20  and  C_21 
REMARK    6  A    between atoms: C_21  and  C_22 
REMARK    7  A    between atoms: C_29  and  N_30 
REMARK    8  A    between atoms: C_31  and  O_32 
ROOT
HETATM    1  N   UNL     1      -8.060   3.208 -31.110  1.00  0.00    -0.202 N 
HETATM    2  C   UNL     1      -8.632   4.028 -32.061  1.00  0.00     0.183 A 
HETATM    3  C   UNL     1      -9.002   3.235 -33.144  1.00  0.00     0.124 A 
HETATM    4  N   UNL     1      -9.588   3.781 -34.241  1.00  0.00    -0.242 NA
HETATM    5  C   UNL     1      -9.802   5.109 -34.164  1.00  0.00     0.086 A 
HETATM    6  C   UNL     1      -9.425   5.888 -33.039  1.00  0.00     0.088 A 
HETATM    7  N   UNL     1      -8.819   5.365 -31.962  1.00  0.00    -0.225 NA
HETATM    8  C   UNL     1     -10.422   5.750 -35.231  1.00  0.00     0.034 A 
HETATM    9  C   UNL     1     -10.678   7.123 -35.216  1.00  0.00     0.002 A 
HETATM   10  C   UNL     1     -10.307   7.878 -34.113  1.00  0.00     0.002 A 
HETATM   11  C   UNL     1      -9.683   7.251 -33.035  1.00  0.00     0.034 A 
HETATM   12  C   UNL     1      -8.656   1.894 -32.840  1.00  0.00     0.104 A 
HETATM   13  C   UNL     1      -8.108   1.899 -31.562  1.00  0.00     0.123 A 
ENDROOT
BRANCH  12  14
HETATM   14  C   UNL     1      -8.865   0.686 -33.610  1.00  0.00     0.257 C 
HETATM   15  N   UNL     1      -8.319   0.776 -34.882  1.00  0.00    -0.356 N 
HETATM   16  H   UNL     1      -8.040   1.710 -35.154  1.00  0.00     0.162 HD
HETATM   17  O   UNL     1      -9.315  -0.344 -33.126  1.00  0.00    -0.267 OA
BRANCH  15  18
HETATM   18  C   UNL     1      -7.410  -0.265 -35.320  1.00  0.00     0.127 C 
BRANCH  18  19
HETATM   19  C   UNL     1      -6.309  -0.619 -34.319  1.00  0.00     0.053 C 
BRANCH  19  20
HETATM   20  C   UNL     1      -5.923  -2.077 -34.403  1.00  0.00    -0.082 C 
HETATM   21  C   UNL     1      -4.531  -2.433 -33.942  1.00  0.00     0.034 C 
HETATM   22  C   UNL     1      -4.077  -3.821 -34.399  1.00  0.00     0.005 C 
HETATM   23  C   UNL     1      -5.184  -4.855 -34.228  1.00  0.00     0.004 C 
HETATM   24  C   UNL     1      -6.437  -4.460 -35.008  1.00  0.00     0.027 C 
HETATM   25  C   UNL     1      -6.774  -3.003 -34.884  1.00  0.00    -0.024 C 
ENDBRANCH  19  20
ENDBRANCH  18  19
ENDBRANCH  15  18
ENDBRANCH  12  14
BRANCH  13  26
HETATM   26  N   UNL     1      -7.676   0.881 -30.760  1.00  0.00    -0.286 NA
HETATM   27  H   UNL     1      -7.588  -0.041 -31.191  1.00  0.00     0.125 HD
HETATM   28  H   UNL     1      -8.165   0.797 -29.864  1.00  0.00     0.125 HD
ENDBRANCH  13  26
BRANCH   1  29
HETATM   29  N   UNL     1      -7.665   3.543 -29.843  1.00  0.00    -0.176 NA
HETATM   30  C   UNL     1      -6.431   3.927 -29.712  1.00  0.00     0.153 C 
BRANCH  30  31
HETATM   31  C   UNL     1      -5.346   3.871 -30.700  1.00  0.00     0.016 A 
HETATM   32  C   UNL     1      -4.596   2.699 -30.806  1.00  0.00     0.016 A 
HETATM   33  C   UNL     1      -3.650   2.578 -31.824  1.00  0.00     0.001 A 
HETATM   34  C   UNL     1      -3.487   3.609 -32.752  1.00  0.00     0.003 A 
HETATM   35  C   UNL     1      -4.248   4.776 -32.648  1.00  0.00     0.037 A 
HETATM   36  C   UNL     1      -5.165   4.915 -31.611  1.00  0.00     0.077 A 
BRANCH  36  37
HETATM   37  O   UNL     1      -5.857   6.092 -31.550  1.00  0.00    -0.360 OA
HETATM   38  H   UNL     1      -5.311   6.760 -31.093  1.00  0.00     0.217 HD
ENDBRANCH  36  37
ENDBRANCH  30  31
ENDBRANCH   1  29
TORSDOF 8
ENDMDL
MODEL 10
REMARK VINA RESULT:      -8.7      1.827      6.160
REMARK  8 active torsions:
REMARK  status: ('A' for Active; 'I' for Inactive)
REMARK    1  A    between atoms: C_3  and  C_4 
REMARK    2  A    between atoms: N_5  and  N_6 
REMARK    3  A    between atoms: C_17  and  C_18 
REMARK       I    between atoms: C_18  and  N_19 
REMARK    4  A    between atoms: N_19  and  C_20 
REMARK    5  A    between atoms: C_20  and  C_21 
REMARK    6  A    between atoms: C_21  and  C_22 
REMARK    7  A    between atoms: C_29  and  N_30 
REMARK    8  A    between atoms: C_31  and  O_32 
ROOT
HETATM    1  N   UNL     1      -6.430   2.968 -31.088  1.00  0.00    -0.202 N 
HETATM    2  C   UNL     1      -6.008   1.790 -31.670  1.00  0.00     0.183 A 
HETATM    3  C   UNL     1      -6.765   1.586 -32.821  1.00  0.00     0.124 A 
HETATM    4  N   UNL     1      -6.571   0.489 -33.598  1.00  0.00    -0.242 NA
HETATM    5  C   UNL     1      -5.586  -0.330 -33.183  1.00  0.00     0.086 A 
HETATM    6  C   UNL     1      -4.822  -0.087 -32.011  1.00  0.00     0.088 A 
HETATM    7  N   UNL     1      -5.024   0.977 -31.219  1.00  0.00    -0.225 NA
HETATM    8  C   UNL     1      -5.298  -1.464 -33.933  1.00  0.00     0.034 A 
HETATM    9  C   UNL     1      -4.286  -2.354 -33.563  1.00  0.00     0.002 A 
HETATM   10  C   UNL     1      -3.544  -2.110 -32.417  1.00  0.00     0.002 A 
HETATM   11  C   UNL     1      -3.821  -0.978 -31.652  1.00  0.00     0.034 A 
HETATM   12  C   UNL     1      -7.665   2.675 -32.949  1.00  0.00     0.104 A 
HETATM   13  C   UNL     1      -7.412   3.533 -31.884  1.00  0.00     0.123 A 
ENDROOT
BRANCH  12  14
HETATM   14  C   UNL     1      -8.632   2.960 -33.987  1.00  0.00     0.257 C 
HETATM   15  N   UNL     1      -9.013   1.818 -34.675  1.00  0.00    -0.356 N 
HETATM   16  H   UNL     1      -8.433   1.007 -34.497  1.00  0.00     0.162 HD
HETATM   17  O   UNL     1      -9.170   4.051 -34.115  1.00  0.00    -0.267 OA
BRANCH  15  18
HETATM   18  C   UNL     1     -10.427   1.519 -34.792  1.00  0.00     0.127 C 
BRANCH  18  19
HETATM   19  C   UNL     1     -11.058   0.903 -33.543  1.00  0.00     0.053 C 
BRANCH  19  20
HETATM   20  C   UNL     1     -12.528   1.233 -33.436  1.00  0.00    -0.082 C 
HETATM   21  C   UNL     1     -13.493   0.176 -33.912  1.00  0.00     0.034 C 
HETATM   22  C   UNL     1     -14.913   0.705 -34.132  1.00  0.00     0.005 C 
HETATM   23  C   UNL     1     -15.348   1.626 -32.997  1.00  0.00     0.004 C 
HETATM   24  C   UNL     1     -14.394   2.810 -32.848  1.00  0.00     0.027 C 
HETATM   25  C   UNL     1     -12.948   2.420 -32.958  1.00  0.00    -0.024 C 
ENDBRANCH  19  20
ENDBRANCH  18  19
ENDBRANCH  15  18
ENDBRANCH  12  14
BRANCH  13  26
HETATM   26  N   UNL     1      -7.935   4.754 -31.564  1.00  0.00    -0.286 NA
HETATM   27  H   UNL     1      -8.374   5.282 -32.321  1.00  0.00     0.125 HD
HETATM   28  H   UNL     1      -7.310   5.368 -31.034  1.00  0.00     0.125 HD
ENDBRANCH  13  26
BRANCH   1  29
HETATM   29  N   UNL     1      -5.883   3.613 -30.011  1.00  0.00    -0.176 NA
HETATM   30  C   UNL     1      -4.911   4.435 -30.270  1.00  0.00     0.153 C 
BRANCH  30  31
HETATM   31  C   UNL     1      -4.190   4.628 -31.535  1.00  0.00     0.016 A 
HETATM   32  C   UNL     1      -4.555   5.694 -32.358  1.00  0.00     0.016 A 
HETATM   33  C   UNL     1      -3.798   5.973 -33.497  1.00  0.00     0.001 A 
HETATM   34  C   UNL     1      -2.663   5.213 -33.784  1.00  0.00     0.003 A 
HETATM   35  C   UNL     1      -2.296   4.154 -32.951  1.00  0.00     0.037 A 
HETATM   36  C   UNL     1      -3.070   3.849 -31.835  1.00  0.00     0.077 A 
BRANCH  36  37
HETATM   37  O   UNL     1      -2.673   2.784 -31.077  1.00  0.00    -0.360 OA
HETATM   38  H   UNL     1      -2.907   2.951 -30.144  1.00  0.00     0.217 HD
ENDBRANCH  36  37
ENDBRANCH  30  31
ENDBRANCH   1  29
TORSDOF 8
ENDMDL
