MODEL 1
REMARK VINA RESULT:      -8.1      0.000      0.000
REMARK  7 active torsions:
REMARK  status: ('A' for Active; 'I' for Inactive)
REMARK    1  A    between atoms: C_2  and  C_3 
REMARK    2  A    between atoms: C_3  and  O_4 
REMARK    3  A    between atoms: O_4  and  C_5 
REMARK    4  A    between atoms: C_8  and  C_9 
REMARK    5  A    between atoms: C_9  and  C_10 
REMARK       I    between atoms: C_10  and  N_11 
REMARK    6  A    between atoms: N_11  and  C_12 
REMARK    7  A    between atoms: C_19  and  C_20 
REMARK       I    between atoms: C_20  and  N_21 
ROOT
HETATM    1  C   UNL     1      -6.048   3.382 -31.726  1.00  0.00     0.226 C 
HETATM    2  N   UNL     1      -4.830   3.246 -32.366  1.00  0.00    -0.327 N 
HETATM    3  O   UNL     1      -6.419   4.370 -31.096  1.00  0.00    -0.273 OA
HETATM    4  H   UNL     1      -4.661   2.368 -32.841  1.00  0.00     0.169 HD
ENDROOT
BRANCH   2   5
HETATM    5  C   UNL     1      -3.802   4.204 -32.500  1.00  0.00     0.035 A 
HETATM    6  C   UNL     1      -2.695   4.295 -31.645  1.00  0.00     0.046 A 
HETATM    7  C   UNL     1      -1.730   5.303 -31.862  1.00  0.00     0.030 A 
HETATM    8  C   UNL     1      -1.904   6.183 -32.923  1.00  0.00     0.063 A 
HETATM    9  C   UNL     1      -0.512   5.715 -31.240  1.00  0.00     0.156 A 
HETATM   10  N   UNL     1      -0.833   7.030 -32.873  1.00  0.00    -0.277 N 
HETATM   11  C   UNL     1      -2.990   6.120 -33.797  1.00  0.00     0.034 A 
HETATM   12  H   UNL     1      -0.634   7.804 -33.497  1.00  0.00     0.189 HD
HETATM   13  N   UNL     1       0.029   6.781 -31.875  1.00  0.00    -0.168 NA
HETATM   14  C   UNL     1      -3.933   5.112 -33.561  1.00  0.00     0.032 A 
BRANCH   9  15
HETATM   15  C   UNL     1       0.143   5.122 -30.066  1.00  0.00     0.270 C 
HETATM   16  N   UNL     1      -0.267   5.650 -28.872  1.00  0.00    -0.365 N 
HETATM   17  H   UNL     1      -0.966   6.385 -28.882  1.00  0.00     0.159 HD
HETATM   18  H   UNL     1       0.127   5.304 -28.012  1.00  0.00     0.159 HD
HETATM   19  O   UNL     1       0.984   4.231 -30.109  1.00  0.00    -0.266 OA
ENDBRANCH   9  15
ENDBRANCH   2   5
BRANCH   1  20
HETATM   20  C   UNL     1      -6.958   2.153 -31.786  1.00  0.00     0.141 C 
BRANCH  20  21
HETATM   21  C   UNL     1      -6.329   0.884 -32.315  1.00  0.00    -0.049 A 
HETATM   22  C   UNL     1      -5.470   0.125 -31.508  1.00  0.00     0.010 A 
HETATM   23  C   UNL     1      -4.816  -0.998 -32.025  1.00  0.00     0.037 A 
HETATM   24  C   UNL     1      -5.008  -1.372 -33.355  1.00  0.00     0.068 A 
HETATM   25  C   UNL     1      -5.886  -0.633 -34.151  1.00  0.00     0.037 A 
HETATM   26  C   UNL     1      -6.544   0.486 -33.639  1.00  0.00     0.010 A 
BRANCH  24  27
HETATM   27  O   UNL     1      -4.406  -2.419 -33.991  1.00  0.00    -0.351 OA
BRANCH  27  28
HETATM   28  C   UNL     1      -4.981  -2.852 -35.225  1.00  0.00     0.179 C 
BRANCH  28  29
HETATM   29  C   UNL     1      -5.500  -4.292 -35.081  1.00  0.00     0.002 C 
HETATM   30  C   UNL     1      -6.957  -4.311 -34.615  1.00  0.00     0.011 C 
HETATM   31  C   UNL     1      -4.633  -5.106 -34.119  1.00  0.00     0.011 C 
ENDBRANCH  28  29
ENDBRANCH  27  28
ENDBRANCH  24  27
ENDBRANCH  20  21
ENDBRANCH   1  20
TORSDOF 7
ENDMDL
MODEL 2
REMARK VINA RESULT:      -8.0      6.525      9.978
REMARK  7 active torsions:
REMARK  status: ('A' for Active; 'I' for Inactive)
REMARK    1  A    between atoms: C_2  and  C_3 
REMARK    2  A    between atoms: C_3  and  O_4 
REMARK    3  A    between atoms: O_4  and  C_5 
REMARK    4  A    between atoms: C_8  and  C_9 
REMARK    5  A    between atoms: C_9  and  C_10 
REMARK       I    between atoms: C_10  and  N_11 
REMARK    6  A    between atoms: N_11  and  C_12 
REMARK    7  A    between atoms: C_19  and  C_20 
REMARK       I    between atoms: C_20  and  N_21 
ROOT
HETATM    1  C   UNL     1      -9.853   0.869 -34.038  1.00  0.00     0.226 C 
HETATM    2  N   UNL     1      -8.706   0.721 -34.796  1.00  0.00    -0.327 N 
HETATM    3  O   UNL     1     -10.023   0.425 -32.904  1.00  0.00    -0.273 OA
HETATM    4  H   UNL     1      -8.715   1.138 -35.719  1.00  0.00     0.169 HD
ENDROOT
BRANCH   2   5
HETATM    5  C   UNL     1      -7.487   0.113 -34.428  1.00  0.00     0.035 A 
HETATM    6  C   UNL     1      -7.178  -1.233 -34.663  1.00  0.00     0.046 A 
HETATM    7  C   UNL     1      -5.931  -1.744 -34.239  1.00  0.00     0.030 A 
HETATM    8  C   UNL     1      -5.040  -0.895 -33.596  1.00  0.00     0.063 A 
HETATM    9  C   UNL     1      -5.265  -3.007 -34.287  1.00  0.00     0.156 A 
HETATM   10  N   UNL     1      -3.948  -1.663 -33.308  1.00  0.00    -0.277 N 
HETATM   11  C   UNL     1      -5.313   0.451 -33.347  1.00  0.00     0.034 A 
HETATM   12  H   UNL     1      -3.100  -1.371 -32.835  1.00  0.00     0.189 HD
HETATM   13  N   UNL     1      -4.043  -2.940 -33.709  1.00  0.00    -0.168 NA
HETATM   14  C   UNL     1      -6.554   0.934 -33.778  1.00  0.00     0.032 A 
BRANCH   9  15
HETATM   15  C   UNL     1      -5.760  -4.263 -34.867  1.00  0.00     0.270 C 
HETATM   16  N   UNL     1      -4.952  -5.343 -34.632  1.00  0.00    -0.365 N 
HETATM   17  H   UNL     1      -4.102  -5.204 -34.097  1.00  0.00     0.159 HD
HETATM   18  H   UNL     1      -5.211  -6.247 -34.990  1.00  0.00     0.159 HD
HETATM   19  O   UNL     1      -6.799  -4.377 -35.508  1.00  0.00    -0.266 OA
ENDBRANCH   9  15
ENDBRANCH   2   5
BRANCH   1  20
HETATM   20  C   UNL     1     -11.002   1.608 -34.727  1.00  0.00     0.141 C 
BRANCH  20  21
HETATM   21  C   UNL     1     -12.318   1.634 -33.983  1.00  0.00    -0.049 A 
HETATM   22  C   UNL     1     -13.268   0.623 -34.179  1.00  0.00     0.010 A 
HETATM   23  C   UNL     1     -14.521   0.694 -33.561  1.00  0.00     0.037 A 
HETATM   24  C   UNL     1     -14.840   1.779 -32.745  1.00  0.00     0.068 A 
HETATM   25  C   UNL     1     -13.883   2.772 -32.525  1.00  0.00     0.037 A 
HETATM   26  C   UNL     1     -12.631   2.705 -33.136  1.00  0.00     0.010 A 
BRANCH  24  27
HETATM   27  O   UNL     1     -16.034   1.987 -32.115  1.00  0.00    -0.351 OA
BRANCH  27  28
HETATM   28  C   UNL     1     -16.570   3.310 -32.151  1.00  0.00     0.179 C 
BRANCH  28  29
HETATM   29  C   UNL     1     -18.083   3.267 -31.883  1.00  0.00     0.002 C 
HETATM   30  C   UNL     1     -18.875   3.203 -33.191  1.00  0.00     0.011 C 
HETATM   31  C   UNL     1     -18.539   4.468 -31.054  1.00  0.00     0.011 C 
ENDBRANCH  28  29
ENDBRANCH  27  28
ENDBRANCH  24  27
ENDBRANCH  20  21
ENDBRANCH   1  20
TORSDOF 7
ENDMDL
MODEL 3
REMARK VINA RESULT:      -7.9      5.488      9.031
REMARK  7 active torsions:
REMARK  status: ('A' for Active; 'I' for Inactive)
REMARK    1  A    between atoms: C_2  and  C_3 
REMARK    2  A    between atoms: C_3  and  O_4 
REMARK    3  A    between atoms: O_4  and  C_5 
REMARK    4  A    between atoms: C_8  and  C_9 
REMARK    5  A    between atoms: C_9  and  C_10 
REMARK       I    between atoms: C_10  and  N_11 
REMARK    6  A    between atoms: N_11  and  C_12 
REMARK    7  A    between atoms: C_19  and  C_20 
REMARK       I    between atoms: C_20  and  N_21 
ROOT
HETATM    1  C   UNL     1      -8.605   2.679 -32.686  1.00  0.00     0.226 C 
HETATM    2  N   UNL     1      -9.698   3.131 -33.403  1.00  0.00    -0.327 N 
HETATM    3  O   UNL     1      -8.628   2.283 -31.523  1.00  0.00    -0.273 OA
HETATM    4  H   UNL     1      -9.524   3.434 -34.353  1.00  0.00     0.169 HD
ENDROOT
BRANCH   2   5
HETATM    5  C   UNL     1     -11.051   3.169 -33.003  1.00  0.00     0.035 A 
HETATM    6  C   UNL     1     -12.026   2.262 -33.440  1.00  0.00     0.046 A 
HETATM    7  C   UNL     1     -13.357   2.401 -32.988  1.00  0.00     0.030 A 
HETATM    8  C   UNL     1     -13.666   3.438 -32.117  1.00  0.00     0.063 A 
HETATM    9  C   UNL     1     -14.592   1.713 -33.193  1.00  0.00     0.156 A 
HETATM   10  N   UNL     1     -15.004   3.317 -31.867  1.00  0.00    -0.277 N 
HETATM   11  C   UNL     1     -12.721   4.357 -31.658  1.00  0.00     0.034 A 
HETATM   12  H   UNL     1     -15.573   3.910 -31.273  1.00  0.00     0.189 HD
HETATM   13  N   UNL     1     -15.598   2.290 -32.495  1.00  0.00    -0.168 NA
HETATM   14  C   UNL     1     -11.409   4.198 -32.120  1.00  0.00     0.032 A 
BRANCH   9  15
HETATM   15  C   UNL     1     -14.834   0.529 -34.030  1.00  0.00     0.270 C 
HETATM   16  N   UNL     1     -14.042  -0.544 -33.721  1.00  0.00    -0.365 N 
HETATM   17  H   UNL     1     -13.372  -0.449 -32.966  1.00  0.00     0.159 HD
HETATM   18  H   UNL     1     -14.138  -1.400 -34.241  1.00  0.00     0.159 HD
HETATM   19  O   UNL     1     -15.661   0.467 -34.932  1.00  0.00    -0.266 OA
ENDBRANCH   9  15
ENDBRANCH   2   5
BRANCH   1  20
HETATM   20  C   UNL     1      -7.266   2.748 -33.423  1.00  0.00     0.141 C 
BRANCH  20  21
HETATM   21  C   UNL     1      -6.575   1.426 -33.671  1.00  0.00    -0.049 A 
HETATM   22  C   UNL     1      -7.120   0.493 -34.564  1.00  0.00     0.010 A 
HETATM   23  C   UNL     1      -6.532  -0.765 -34.725  1.00  0.00     0.037 A 
HETATM   24  C   UNL     1      -5.397  -1.108 -33.991  1.00  0.00     0.068 A 
HETATM   25  C   UNL     1      -4.836  -0.169 -33.124  1.00  0.00     0.037 A 
HETATM   26  C   UNL     1      -5.416   1.089 -32.961  1.00  0.00     0.010 A 
BRANCH  24  27
HETATM   27  O   UNL     1      -4.748  -2.310 -34.028  1.00  0.00    -0.351 OA
BRANCH  27  28
HETATM   28  C   UNL     1      -4.758  -3.021 -35.266  1.00  0.00     0.179 C 
BRANCH  28  29
HETATM   29  C   UNL     1      -5.280  -4.449 -35.044  1.00  0.00     0.002 C 
HETATM   30  C   UNL     1      -6.789  -4.454 -34.787  1.00  0.00     0.011 C 
HETATM   31  C   UNL     1      -4.552  -5.137 -33.888  1.00  0.00     0.011 C 
ENDBRANCH  28  29
ENDBRANCH  27  28
ENDBRANCH  24  27
ENDBRANCH  20  21
ENDBRANCH   1  20
TORSDOF 7
ENDMDL
MODEL 4
REMARK VINA RESULT:      -7.9      4.575      7.973
REMARK  7 active torsions:
REMARK  status: ('A' for Active; 'I' for Inactive)
REMARK    1  A    between atoms: C_2  and  C_3 
REMARK    2  A    between atoms: C_3  and  O_4 
REMARK    3  A    between atoms: O_4  and  C_5 
REMARK    4  A    between atoms: C_8  and  C_9 
REMARK    5  A    between atoms: C_9  and  C_10 
REMARK       I    between atoms: C_10  and  N_11 
REMARK    6  A    between atoms: N_11  and  C_12 
REMARK    7  A    between atoms: C_19  and  C_20 
REMARK       I    between atoms: C_20  and  N_21 
ROOT
HETATM    1  C   UNL     1      -8.008   2.853 -31.030  1.00  0.00     0.226 C 
HETATM    2  N   UNL     1      -8.102   2.803 -32.409  1.00  0.00    -0.327 N 
HETATM    3  O   UNL     1      -8.953   2.970 -30.252  1.00  0.00    -0.273 OA
HETATM    4  H   UNL     1      -7.234   2.712 -32.921  1.00  0.00     0.169 HD
ENDROOT
BRANCH   2   5
HETATM    5  C   UNL     1      -9.267   2.800 -33.206  1.00  0.00     0.035 A 
HETATM    6  C   UNL     1     -10.257   1.811 -33.148  1.00  0.00     0.046 A 
HETATM    7  C   UNL     1     -11.378   1.898 -34.003  1.00  0.00     0.030 A 
HETATM    8  C   UNL     1     -11.470   2.968 -34.884  1.00  0.00     0.063 A 
HETATM    9  C   UNL     1     -12.554   1.124 -34.243  1.00  0.00     0.156 A 
HETATM   10  N   UNL     1     -12.637   2.778 -35.568  1.00  0.00    -0.277 N 
HETATM   11  C   UNL     1     -10.505   3.973 -34.967  1.00  0.00     0.034 A 
HETATM   12  H   UNL     1     -13.024   3.368 -36.297  1.00  0.00     0.189 HD
HETATM   13  N   UNL     1     -13.320   1.679 -35.211  1.00  0.00    -0.168 NA
HETATM   14  C   UNL     1      -9.404   3.865 -34.109  1.00  0.00     0.032 A 
BRANCH   9  15
HETATM   15  C   UNL     1     -12.962  -0.121 -33.577  1.00  0.00     0.270 C 
HETATM   16  N   UNL     1     -14.317  -0.309 -33.527  1.00  0.00    -0.365 N 
HETATM   17  H   UNL     1     -14.919   0.396 -33.936  1.00  0.00     0.159 HD
HETATM   18  H   UNL     1     -14.690  -1.136 -33.089  1.00  0.00     0.159 HD
HETATM   19  O   UNL     1     -12.190  -0.944 -33.098  1.00  0.00    -0.266 OA
ENDBRANCH   9  15
ENDBRANCH   2   5
BRANCH   1  20
HETATM   20  C   UNL     1      -6.584   2.811 -30.470  1.00  0.00     0.141 C 
BRANCH  20  21
HETATM   21  C   UNL     1      -5.667   1.765 -31.063  1.00  0.00    -0.049 A 
HETATM   22  C   UNL     1      -4.474   2.140 -31.695  1.00  0.00     0.010 A 
HETATM   23  C   UNL     1      -3.671   1.183 -32.324  1.00  0.00     0.037 A 
HETATM   24  C   UNL     1      -4.053  -0.158 -32.332  1.00  0.00     0.068 A 
HETATM   25  C   UNL     1      -5.227  -0.537 -31.676  1.00  0.00     0.037 A 
HETATM   26  C   UNL     1      -6.030   0.413 -31.045  1.00  0.00     0.010 A 
BRANCH  24  27
HETATM   27  O   UNL     1      -3.382  -1.182 -32.937  1.00  0.00    -0.351 OA
BRANCH  27  28
HETATM   28  C   UNL     1      -3.841  -2.509 -32.676  1.00  0.00     0.179 C 
BRANCH  28  29
HETATM   29  C   UNL     1      -4.076  -3.250 -34.002  1.00  0.00     0.002 C 
HETATM   30  C   UNL     1      -5.472  -2.961 -34.558  1.00  0.00     0.011 C 
HETATM   31  C   UNL     1      -3.878  -4.757 -33.843  1.00  0.00     0.011 C 
ENDBRANCH  28  29
ENDBRANCH  27  28
ENDBRANCH  24  27
ENDBRANCH  20  21
ENDBRANCH   1  20
TORSDOF 7
ENDMDL
MODEL 5
REMARK VINA RESULT:      -7.9      3.017      4.325
REMARK  7 active torsions:
REMARK  status: ('A' for Active; 'I' for Inactive)
REMARK    1  A    between atoms: C_2  and  C_3 
REMARK    2  A    between atoms: C_3  and  O_4 
REMARK    3  A    between atoms: O_4  and  C_5 
REMARK    4  A    between atoms: C_8  and  C_9 
REMARK    5  A    between atoms: C_9  and  C_10 
REMARK       I    between atoms: C_10  and  N_11 
REMARK    6  A    between atoms: N_11  and  C_12 
REMARK    7  A    between atoms: C_19  and  C_20 
REMARK       I    between atoms: C_20  and  N_21 
ROOT
HETATM    1  C   UNL     1      -4.288   0.907 -32.296  1.00  0.00     0.226 C 
HETATM    2  N   UNL     1      -4.607   2.244 -32.144  1.00  0.00    -0.327 N 
HETATM    3  O   UNL     1      -3.220   0.471 -32.722  1.00  0.00    -0.273 OA
HETATM    4  H   UNL     1      -5.531   2.452 -31.786  1.00  0.00     0.169 HD
ENDROOT
BRANCH   2   5
HETATM    5  C   UNL     1      -3.786   3.370 -32.366  1.00  0.00     0.035 A 
HETATM    6  C   UNL     1      -2.662   3.688 -31.592  1.00  0.00     0.046 A 
HETATM    7  C   UNL     1      -1.917   4.850 -31.892  1.00  0.00     0.030 A 
HETATM    8  C   UNL     1      -2.320   5.651 -32.953  1.00  0.00     0.063 A 
HETATM    9  C   UNL     1      -0.758   5.496 -31.365  1.00  0.00     0.156 A 
HETATM   10  N   UNL     1      -1.424   6.682 -32.992  1.00  0.00    -0.277 N 
HETATM   11  C   UNL     1      -3.432   5.364 -33.747  1.00  0.00     0.034 A 
HETATM   12  H   UNL     1      -1.414   7.461 -33.641  1.00  0.00     0.189 HD
HETATM   13  N   UNL     1      -0.467   6.624 -32.053  1.00  0.00    -0.168 NA
HETATM   14  C   UNL     1      -4.153   4.207 -33.429  1.00  0.00     0.032 A 
BRANCH   9  15
HETATM   15  C   UNL     1       0.072   5.068 -30.230  1.00  0.00     0.270 C 
HETATM   16  N   UNL     1      -0.332   5.570 -29.022  1.00  0.00    -0.365 N 
HETATM   17  H   UNL     1      -1.143   6.178 -28.998  1.00  0.00     0.159 HD
HETATM   18  H   UNL     1       0.176   5.330 -28.187  1.00  0.00     0.159 HD
HETATM   19  O   UNL     1       1.045   4.327 -30.314  1.00  0.00    -0.266 OA
ENDBRANCH   9  15
ENDBRANCH   2   5
BRANCH   1  20
HETATM   20  C   UNL     1      -5.406  -0.077 -31.943  1.00  0.00     0.141 C 
BRANCH  20  21
HETATM   21  C   UNL     1      -6.726   0.136 -32.648  1.00  0.00    -0.049 A 
HETATM   22  C   UNL     1      -6.800   0.101 -34.047  1.00  0.00     0.010 A 
HETATM   23  C   UNL     1      -8.002   0.388 -34.703  1.00  0.00     0.037 A 
HETATM   24  C   UNL     1      -9.141   0.718 -33.969  1.00  0.00     0.068 A 
HETATM   25  C   UNL     1      -9.075   0.723 -32.574  1.00  0.00     0.037 A 
HETATM   26  C   UNL     1      -7.880   0.435 -31.914  1.00  0.00     0.010 A 
BRANCH  24  27
HETATM   27  O   UNL     1     -10.361   1.052 -34.484  1.00  0.00    -0.351 OA
BRANCH  27  28
HETATM   28  C   UNL     1     -11.484   0.977 -33.605  1.00  0.00     0.179 C 
BRANCH  28  29
HETATM   29  C   UNL     1     -12.784   0.922 -34.424  1.00  0.00     0.002 C 
HETATM   30  C   UNL     1     -13.289   2.328 -34.754  1.00  0.00     0.011 C 
HETATM   31  C   UNL     1     -13.871   0.133 -33.694  1.00  0.00     0.011 C 
ENDBRANCH  28  29
ENDBRANCH  27  28
ENDBRANCH  24  27
ENDBRANCH  20  21
ENDBRANCH   1  20
TORSDOF 7
ENDMDL
MODEL 6
REMARK VINA RESULT:      -7.8      3.293      8.685
REMARK  7 active torsions:
REMARK  status: ('A' for Active; 'I' for Inactive)
REMARK    1  A    between atoms: C_2  and  C_3 
REMARK    2  A    between atoms: C_3  and  O_4 
REMARK    3  A    between atoms: O_4  and  C_5 
REMARK    4  A    between atoms: C_8  and  C_9 
REMARK    5  A    between atoms: C_9  and  C_10 
REMARK       I    between atoms: C_10  and  N_11 
REMARK    6  A    between atoms: N_11  and  C_12 
REMARK    7  A    between atoms: C_19  and  C_20 
REMARK       I    between atoms: C_20  and  N_21 
ROOT
HETATM    1  C   UNL     1      -5.705   1.353 -31.146  1.00  0.00     0.226 C 
HETATM    2  N   UNL     1      -5.576   1.125 -32.504  1.00  0.00    -0.327 N 
HETATM    3  O   UNL     1      -6.132   0.546 -30.323  1.00  0.00    -0.273 OA
HETATM    4  H   UNL     1      -5.214   1.889 -33.061  1.00  0.00     0.169 HD
ENDROOT
BRANCH   2   5
HETATM    5  C   UNL     1      -5.825  -0.067 -33.218  1.00  0.00     0.035 A 
HETATM    6  C   UNL     1      -5.031  -1.217 -33.130  1.00  0.00     0.046 A 
HETATM    7  C   UNL     1      -5.363  -2.353 -33.902  1.00  0.00     0.030 A 
HETATM    8  C   UNL     1      -6.475  -2.299 -34.732  1.00  0.00     0.063 A 
HETATM    9  C   UNL     1      -4.829  -3.664 -34.089  1.00  0.00     0.156 A 
HETATM   10  N   UNL     1      -6.535  -3.520 -35.341  1.00  0.00    -0.277 N 
HETATM   11  C   UNL     1      -7.291  -1.172 -34.843  1.00  0.00     0.034 A 
HETATM   12  H   UNL     1      -7.221  -3.835 -36.018  1.00  0.00     0.189 HD
HETATM   13  N   UNL     1      -5.562  -4.372 -34.979  1.00  0.00    -0.168 NA
HETATM   14  C   UNL     1      -6.941  -0.059 -34.068  1.00  0.00     0.032 A 
BRANCH   9  15
HETATM   15  C   UNL     1      -3.647  -4.253 -33.445  1.00  0.00     0.270 C 
HETATM   16  N   UNL     1      -3.120  -5.323 -34.117  1.00  0.00    -0.365 N 
HETATM   17  H   UNL     1      -3.565  -5.621 -34.977  1.00  0.00     0.159 HD
HETATM   18  H   UNL     1      -2.307  -5.791 -33.751  1.00  0.00     0.159 HD
HETATM   19  O   UNL     1      -3.145  -3.853 -32.400  1.00  0.00    -0.266 OA
ENDBRANCH   9  15
ENDBRANCH   2   5
BRANCH   1  20
HETATM   20  C   UNL     1      -5.325   2.760 -30.680  1.00  0.00     0.141 C 
BRANCH  20  21
HETATM   21  C   UNL     1      -4.543   3.598 -31.666  1.00  0.00    -0.049 A 
HETATM   22  C   UNL     1      -3.209   3.289 -31.965  1.00  0.00     0.010 A 
HETATM   23  C   UNL     1      -2.458   4.117 -32.806  1.00  0.00     0.037 A 
HETATM   24  C   UNL     1      -3.029   5.265 -33.353  1.00  0.00     0.068 A 
HETATM   25  C   UNL     1      -4.367   5.558 -33.080  1.00  0.00     0.037 A 
HETATM   26  C   UNL     1      -5.122   4.734 -32.244  1.00  0.00     0.010 A 
BRANCH  24  27
HETATM   27  O   UNL     1      -2.398   6.172 -34.156  1.00  0.00    -0.351 OA
BRANCH  27  28
HETATM   28  C   UNL     1      -1.145   6.685 -33.703  1.00  0.00     0.179 C 
BRANCH  28  29
HETATM   29  C   UNL     1      -1.221   6.995 -32.199  1.00  0.00     0.002 C 
HETATM   30  C   UNL     1      -1.790   8.394 -31.951  1.00  0.00     0.011 C 
HETATM   31  C   UNL     1       0.149   6.862 -31.532  1.00  0.00     0.011 C 
ENDBRANCH  28  29
ENDBRANCH  27  28
ENDBRANCH  24  27
ENDBRANCH  20  21
ENDBRANCH   1  20
TORSDOF 7
ENDMDL
MODEL 7
REMARK VINA RESULT:      -7.8      3.309      9.114
REMARK  7 active torsions:
REMARK  status: ('A' for Active; 'I' for Inactive)
REMARK    1  A    between atoms: C_2  and  C_3 
REMARK    2  A    between atoms: C_3  and  O_4 
REMARK    3  A    between atoms: O_4  and  C_5 
REMARK    4  A    between atoms: C_8  and  C_9 
REMARK    5  A    between atoms: C_9  and  C_10 
REMARK       I    between atoms: C_10  and  N_11 
REMARK    6  A    between atoms: N_11  and  C_12 
REMARK    7  A    between atoms: C_19  and  C_20 
REMARK       I    between atoms: C_20  and  N_21 
ROOT
HETATM    1  C   UNL     1      -2.386   5.700 -34.109  1.00  0.00     0.226 C 
HETATM    2  N   UNL     1      -3.095   5.165 -33.048  1.00  0.00    -0.327 N 
HETATM    3  O   UNL     1      -2.259   5.183 -35.217  1.00  0.00    -0.273 OA
HETATM    4  H   UNL     1      -3.105   5.703 -32.191  1.00  0.00     0.169 HD
ENDROOT
BRANCH   2   5
HETATM    5  C   UNL     1      -3.866   3.983 -33.019  1.00  0.00     0.035 A 
HETATM    6  C   UNL     1      -3.416   2.763 -32.497  1.00  0.00     0.046 A 
HETATM    7  C   UNL     1      -4.267   1.636 -32.531  1.00  0.00     0.030 A 
HETATM    8  C   UNL     1      -5.534   1.767 -33.086  1.00  0.00     0.063 A 
HETATM    9  C   UNL     1      -4.186   0.271 -32.121  1.00  0.00     0.156 A 
HETATM   10  N   UNL     1      -6.106   0.531 -32.982  1.00  0.00    -0.277 N 
HETATM   11  C   UNL     1      -6.017   2.967 -33.612  1.00  0.00     0.034 A 
HETATM   12  H   UNL     1      -7.033   0.257 -33.290  1.00  0.00     0.189 HD
HETATM   13  N   UNL     1      -5.328  -0.398 -32.406  1.00  0.00    -0.168 NA
HETATM   14  C   UNL     1      -5.155   4.069 -33.566  1.00  0.00     0.032 A 
BRANCH   9  15
HETATM   15  C   UNL     1      -3.056  -0.406 -31.469  1.00  0.00     0.270 C 
HETATM   16  N   UNL     1      -3.036  -1.762 -31.653  1.00  0.00    -0.365 N 
HETATM   17  H   UNL     1      -3.773  -2.187 -32.205  1.00  0.00     0.159 HD
HETATM   18  H   UNL     1      -2.298  -2.310 -31.244  1.00  0.00     0.159 HD
HETATM   19  O   UNL     1      -2.188   0.156 -30.811  1.00  0.00    -0.266 OA
ENDBRANCH   9  15
ENDBRANCH   2   5
BRANCH   1  20
HETATM   20  C   UNL     1      -1.671   7.021 -33.818  1.00  0.00     0.141 C 
BRANCH  20  21
HETATM   21  C   UNL     1      -1.374   7.310 -32.364  1.00  0.00    -0.049 A 
HETATM   22  C   UNL     1      -2.169   8.207 -31.638  1.00  0.00     0.010 A 
HETATM   23  C   UNL     1      -1.840   8.544 -30.321  1.00  0.00     0.037 A 
HETATM   24  C   UNL     1      -0.711   7.994 -29.716  1.00  0.00     0.068 A 
HETATM   25  C   UNL     1       0.065   7.077 -30.429  1.00  0.00     0.037 A 
HETATM   26  C   UNL     1      -0.260   6.734 -31.742  1.00  0.00     0.010 A 
BRANCH  24  27
HETATM   27  O   UNL     1      -0.260   8.265 -28.456  1.00  0.00    -0.351 OA
BRANCH  27  28
HETATM   28  C   UNL     1       1.144   8.151 -28.226  1.00  0.00     0.179 C 
BRANCH  28  29
HETATM   29  C   UNL     1       1.398   7.383 -26.918  1.00  0.00     0.002 C 
HETATM   30  C   UNL     1       0.110   6.745 -26.392  1.00  0.00     0.011 C 
HETATM   31  C   UNL     1       2.007   8.289 -25.847  1.00  0.00     0.011 C 
ENDBRANCH  28  29
ENDBRANCH  27  28
ENDBRANCH  24  27
ENDBRANCH  20  21
ENDBRANCH   1  20
TORSDOF 7
ENDMDL
MODEL 8
REMARK VINA RESULT:      -7.8      2.467      2.836
REMARK  7 active torsions:
REMARK  status: ('A' for Active; 'I' for Inactive)
REMARK    1  A    between atoms: C_2  and  C_3 
REMARK    2  A    between atoms: C_3  and  O_4 
REMARK    3  A    between atoms: O_4  and  C_5 
REMARK    4  A    between atoms: C_8  and  C_9 
REMARK    5  A    between atoms: C_9  and  C_10 
REMARK       I    between atoms: C_10  and  N_11 
REMARK    6  A    between atoms: N_11  and  C_12 
REMARK    7  A    between atoms: C_19  and  C_20 
REMARK       I    between atoms: C_20  and  N_21 
ROOT
HETATM    1  C   UNL     1      -5.593   3.115 -30.718  1.00  0.00     0.226 C 
HETATM    2  N   UNL     1      -5.104   4.052 -29.826  1.00  0.00    -0.327 N 
HETATM    3  O   UNL     1      -5.881   3.328 -31.894  1.00  0.00    -0.273 OA
HETATM    4  H   UNL     1      -4.919   3.730 -28.884  1.00  0.00     0.169 HD
ENDROOT
BRANCH   2   5
HETATM    5  C   UNL     1      -4.767   5.400 -30.072  1.00  0.00     0.035 A 
HETATM    6  C   UNL     1      -3.756   5.810 -30.951  1.00  0.00     0.046 A 
HETATM    7  C   UNL     1      -3.490   7.187 -31.113  1.00  0.00     0.030 A 
HETATM    8  C   UNL     1      -4.242   8.106 -30.391  1.00  0.00     0.063 A 
HETATM    9  C   UNL     1      -2.581   7.979 -31.878  1.00  0.00     0.156 A 
HETATM   10  N   UNL     1      -3.759   9.333 -30.747  1.00  0.00    -0.277 N 
HETATM   11  C   UNL     1      -5.259   7.735 -29.509  1.00  0.00     0.034 A 
HETATM   12  H   UNL     1      -4.073  10.237 -30.411  1.00  0.00     0.189 HD
HETATM   13  N   UNL     1      -2.759   9.300 -31.642  1.00  0.00    -0.168 NA
HETATM   14  C   UNL     1      -5.503   6.364 -29.367  1.00  0.00     0.032 A 
BRANCH   9  15
HETATM   15  C   UNL     1      -1.556   7.512 -32.821  1.00  0.00     0.270 C 
HETATM   16  N   UNL     1      -0.505   6.865 -32.228  1.00  0.00    -0.365 N 
HETATM   17  H   UNL     1      -0.509   6.759 -31.220  1.00  0.00     0.159 HD
HETATM   18  H   UNL     1       0.246   6.508 -32.796  1.00  0.00     0.159 HD
HETATM   19  O   UNL     1      -1.599   7.665 -34.036  1.00  0.00    -0.266 OA
ENDBRANCH   9  15
ENDBRANCH   2   5
BRANCH   1  20
HETATM   20  C   UNL     1      -5.832   1.720 -30.135  1.00  0.00     0.141 C 
BRANCH  20  21
HETATM   21  C   UNL     1      -5.366   0.557 -30.981  1.00  0.00    -0.049 A 
HETATM   22  C   UNL     1      -4.014   0.191 -31.006  1.00  0.00     0.010 A 
HETATM   23  C   UNL     1      -3.567  -0.825 -31.858  1.00  0.00     0.037 A 
HETATM   24  C   UNL     1      -4.466  -1.482 -32.697  1.00  0.00     0.068 A 
HETATM   25  C   UNL     1      -5.819  -1.139 -32.651  1.00  0.00     0.037 A 
HETATM   26  C   UNL     1      -6.271  -0.129 -31.801  1.00  0.00     0.010 A 
BRANCH  24  27
HETATM   27  O   UNL     1      -4.157  -2.462 -33.597  1.00  0.00    -0.351 OA
BRANCH  27  28
HETATM   28  C   UNL     1      -4.960  -2.545 -34.774  1.00  0.00     0.179 C 
BRANCH  28  29
HETATM   29  C   UNL     1      -5.373  -4.005 -35.022  1.00  0.00     0.002 C 
HETATM   30  C   UNL     1      -6.865  -4.212 -34.754  1.00  0.00     0.011 C 
HETATM   31  C   UNL     1      -4.550  -4.971 -34.169  1.00  0.00     0.011 C 
ENDBRANCH  28  29
ENDBRANCH  27  28
ENDBRANCH  24  27
ENDBRANCH  20  21
ENDBRANCH   1  20
TORSDOF 7
ENDMDL
MODEL 9
REMARK VINA RESULT:      -7.6      3.563      7.823
REMARK  7 active torsions:
REMARK  status: ('A' for Active; 'I' for Inactive)
REMARK    1  A    between atoms: C_2  and  C_3 
REMARK    2  A    between atoms: C_3  and  O_4 
REMARK    3  A    between atoms: O_4  and  C_5 
REMARK    4  A    between atoms: C_8  and  C_9 
REMARK    5  A    between atoms: C_9  and  C_10 
REMARK       I    between atoms: C_10  and  N_11 
REMARK    6  A    between atoms: N_11  and  C_12 
REMARK    7  A    between atoms: C_19  and  C_20 
REMARK       I    between atoms: C_20  and  N_21 
ROOT
HETATM    1  C   UNL     1      -8.038   2.173 -31.865  1.00  0.00     0.226 C 
HETATM    2  N   UNL     1      -7.078   1.931 -32.830  1.00  0.00    -0.327 N 
HETATM    3  O   UNL     1      -8.705   1.316 -31.288  1.00  0.00    -0.273 OA
HETATM    4  H   UNL     1      -6.613   2.740 -33.221  1.00  0.00     0.169 HD
ENDROOT
BRANCH   2   5
HETATM    5  C   UNL     1      -6.609   0.687 -33.303  1.00  0.00     0.035 A 
HETATM    6  C   UNL     1      -5.508   0.006 -32.769  1.00  0.00     0.046 A 
HETATM    7  C   UNL     1      -5.114  -1.229 -33.330  1.00  0.00     0.030 A 
HETATM    8  C   UNL     1      -5.833  -1.739 -34.403  1.00  0.00     0.063 A 
HETATM    9  C   UNL     1      -4.089  -2.193 -33.084  1.00  0.00     0.156 A 
HETATM   10  N   UNL     1      -5.222  -2.919 -34.724  1.00  0.00    -0.277 N 
HETATM   11  C   UNL     1      -6.937  -1.091 -34.960  1.00  0.00     0.034 A 
HETATM   12  H   UNL     1      -5.480  -3.561 -35.464  1.00  0.00     0.189 HD
HETATM   13  N   UNL     1      -4.169  -3.228 -33.952  1.00  0.00    -0.168 NA
HETATM   14  C   UNL     1      -7.307   0.131 -34.386  1.00  0.00     0.032 A 
BRANCH   9  15
HETATM   15  C   UNL     1      -3.044  -2.150 -32.052  1.00  0.00     0.270 C 
HETATM   16  N   UNL     1      -2.761  -3.368 -31.493  1.00  0.00    -0.365 N 
HETATM   17  H   UNL     1      -3.273  -4.180 -31.819  1.00  0.00     0.159 HD
HETATM   18  H   UNL     1      -2.057  -3.436 -30.777  1.00  0.00     0.159 HD
HETATM   19  O   UNL     1      -2.453  -1.137 -31.694  1.00  0.00    -0.266 OA
ENDBRANCH   9  15
ENDBRANCH   2   5
BRANCH   1  20
HETATM   20  C   UNL     1      -8.298   3.649 -31.557  1.00  0.00     0.141 C 
BRANCH  20  21
HETATM   21  C   UNL     1      -7.091   4.559 -31.591  1.00  0.00    -0.049 A 
HETATM   22  C   UNL     1      -6.963   5.537 -32.587  1.00  0.00     0.010 A 
HETATM   23  C   UNL     1      -5.805   6.317 -32.673  1.00  0.00     0.037 A 
HETATM   24  C   UNL     1      -4.760   6.124 -31.770  1.00  0.00     0.068 A 
HETATM   25  C   UNL     1      -4.899   5.170 -30.760  1.00  0.00     0.037 A 
HETATM   26  C   UNL     1      -6.053   4.392 -30.666  1.00  0.00     0.010 A 
BRANCH  24  27
HETATM   27  O   UNL     1      -3.568   6.790 -31.767  1.00  0.00    -0.351 OA
BRANCH  27  28
HETATM   28  C   UNL     1      -2.388   6.016 -31.545  1.00  0.00     0.179 C 
BRANCH  28  29
HETATM   29  C   UNL     1      -1.617   5.851 -32.865  1.00  0.00     0.002 C 
HETATM   30  C   UNL     1      -1.739   7.102 -33.737  1.00  0.00     0.011 C 
HETATM   31  C   UNL     1      -2.094   4.623 -33.641  1.00  0.00     0.011 C 
ENDBRANCH  28  29
ENDBRANCH  27  28
ENDBRANCH  24  27
ENDBRANCH  20  21
ENDBRANCH   1  20
TORSDOF 7
ENDMDL
MODEL 10
REMARK VINA RESULT:      -7.6      3.693      7.729
REMARK  7 active torsions:
REMARK  status: ('A' for Active; 'I' for Inactive)
REMARK    1  A    between atoms: C_2  and  C_3 
REMARK    2  A    between atoms: C_3  and  O_4 
REMARK    3  A    between atoms: O_4  and  C_5 
REMARK    4  A    between atoms: C_8  and  C_9 
REMARK    5  A    between atoms: C_9  and  C_10 
REMARK       I    between atoms: C_10  and  N_11 
REMARK    6  A    between atoms: N_11  and  C_12 
REMARK    7  A    between atoms: C_19  and  C_20 
REMARK       I    between atoms: C_20  and  N_21 
ROOT
HETATM    1  C   UNL     1      -8.285   1.315 -31.868  1.00  0.00     0.226 C 
HETATM    2  N   UNL     1      -7.215   1.193 -32.735  1.00  0.00    -0.327 N 
HETATM    3  O   UNL     1      -8.982   0.389 -31.457  1.00  0.00    -0.273 OA
HETATM    4  H   UNL     1      -6.738   2.049 -32.991  1.00  0.00     0.169 HD
ENDROOT
BRANCH   2   5
HETATM    5  C   UNL     1      -6.651   0.015 -33.268  1.00  0.00     0.035 A 
HETATM    6  C   UNL     1      -5.562  -0.662 -32.704  1.00  0.00     0.046 A 
HETATM    7  C   UNL     1      -5.067  -1.828 -33.329  1.00  0.00     0.030 A 
HETATM    8  C   UNL     1      -5.676  -2.275 -34.494  1.00  0.00     0.063 A 
HETATM    9  C   UNL     1      -4.018  -2.764 -33.080  1.00  0.00     0.156 A 
HETATM   10  N   UNL     1      -4.986  -3.397 -34.859  1.00  0.00    -0.277 N 
HETATM   11  C   UNL     1      -6.765  -1.630 -35.083  1.00  0.00     0.034 A 
HETATM   12  H   UNL     1      -5.155  -3.985 -35.667  1.00  0.00     0.189 HD
HETATM   13  N   UNL     1      -3.981  -3.726 -34.032  1.00  0.00    -0.168 NA
HETATM   14  C   UNL     1      -7.237  -0.477 -34.444  1.00  0.00     0.032 A 
BRANCH   9  15
HETATM   15  C   UNL     1      -3.058  -2.765 -31.967  1.00  0.00     0.270 C 
HETATM   16  N   UNL     1      -2.582  -1.525 -31.641  1.00  0.00    -0.365 N 
HETATM   17  H   UNL     1      -2.911  -0.725 -32.170  1.00  0.00     0.159 HD
HETATM   18  H   UNL     1      -1.919  -1.427 -30.889  1.00  0.00     0.159 HD
HETATM   19  O   UNL     1      -2.692  -3.764 -31.359  1.00  0.00    -0.266 OA
ENDBRANCH   9  15
ENDBRANCH   2   5
BRANCH   1  20
HETATM   20  C   UNL     1      -8.632   2.747 -31.453  1.00  0.00     0.141 C 
BRANCH  20  21
HETATM   21  C   UNL     1      -7.673   3.822 -31.912  1.00  0.00    -0.049 A 
HETATM   22  C   UNL     1      -7.688   4.271 -33.240  1.00  0.00     0.010 A 
HETATM   23  C   UNL     1      -6.743   5.199 -33.688  1.00  0.00     0.037 A 
HETATM   24  C   UNL     1      -5.768   5.685 -32.817  1.00  0.00     0.068 A 
HETATM   25  C   UNL     1      -5.772   5.261 -31.486  1.00  0.00     0.037 A 
HETATM   26  C   UNL     1      -6.715   4.338 -31.032  1.00  0.00     0.010 A 
BRANCH  24  27
HETATM   27  O   UNL     1      -4.771   6.562 -33.134  1.00  0.00    -0.351 OA
BRANCH  27  28
HETATM   28  C   UNL     1      -3.435   6.176 -32.811  1.00  0.00     0.179 C 
BRANCH  28  29
HETATM   29  C   UNL     1      -2.979   5.044 -33.746  1.00  0.00     0.002 C 
HETATM   30  C   UNL     1      -2.655   3.772 -32.959  1.00  0.00     0.011 C 
HETATM   31  C   UNL     1      -1.770   5.463 -34.583  1.00  0.00     0.011 C 
ENDBRANCH  28  29
ENDBRANCH  27  28
ENDBRANCH  24  27
ENDBRANCH  20  21
ENDBRANCH   1  20
TORSDOF 7
ENDMDL
