MODEL 1
REMARK VINA RESULT:      -9.0      0.000      0.000
REMARK  5 active torsions:
REMARK  status: ('A' for Active; 'I' for Inactive)
REMARK    1  A    between atoms: O_2  and  C_3 
REMARK    2  A    between atoms: C_7  and  C_9 
REMARK    3  A    between atoms: C_9  and  N_11 
REMARK       I    between atoms: N_11  and  C_12 
REMARK    4  A    between atoms: C_12  and  C_14 
REMARK    5  A    between atoms: C_17  and  C_20 
ROOT
HETATM    1  N   UNL     1      -4.769   3.652 -32.718  1.00  0.00    -0.349 N 
HETATM    2  C   UNL     1      -5.811   2.841 -32.331  1.00  0.00     0.252 C 
HETATM    3  O   UNL     1      -6.742   3.201 -31.622  1.00  0.00    -0.268 OA
HETATM    4  H   UNL     1      -3.946   3.221 -33.119  1.00  0.00     0.163 HD
ENDROOT
BRANCH   2   5
HETATM    5  C   UNL     1      -5.720   1.435 -32.798  1.00  0.00     0.032 A 
HETATM    6  C   UNL     1      -6.316   1.088 -34.012  1.00  0.00     0.018 A 
HETATM    7  C   UNL     1      -6.278  -0.240 -34.452  1.00  0.00     0.013 A 
HETATM    8  C   UNL     1      -5.629  -1.242 -33.705  1.00  0.00    -0.023 A 
HETATM    9  C   UNL     1      -5.008  -0.858 -32.502  1.00  0.00     0.013 A 
HETATM   10  C   UNL     1      -5.052   0.464 -32.048  1.00  0.00     0.018 A 
BRANCH   8  11
HETATM   11  C   UNL     1      -5.600  -2.643 -34.167  1.00  0.00     0.016 A 
HETATM   12  C   UNL     1      -6.677  -3.197 -34.879  1.00  0.00     0.034 A 
HETATM   13  C   UNL     1      -6.617  -4.522 -35.293  1.00  0.00     0.117 A 
HETATM   14  N   UNL     1      -5.568  -5.336 -35.057  1.00  0.00    -0.270 NA
HETATM   15  C   UNL     1      -4.534  -4.795 -34.373  1.00  0.00     0.159 A 
HETATM   16  C   UNL     1      -4.509  -3.486 -33.921  1.00  0.00     0.144 A 
HETATM   17  F   UNL     1      -3.436  -3.054 -33.242  1.00  0.00    -0.204 F 
ENDBRANCH   8  11
ENDBRANCH   2   5
BRANCH   1  18
HETATM   18  C   UNL     1      -4.665   5.036 -32.284  1.00  0.00     0.114 C 
HETATM   19  C   UNL     1      -5.561   5.950 -33.123  1.00  0.00     0.037 C 
BRANCH  18  20
HETATM   20  C   UNL     1      -3.213   5.483 -32.327  1.00  0.00    -0.033 A 
HETATM   21  C   UNL     1      -2.864   6.649 -33.022  1.00  0.00     0.009 A 
HETATM   22  C   UNL     1      -1.540   7.083 -33.055  1.00  0.00     0.003 A 
HETATM   23  C   UNL     1      -0.554   6.361 -32.385  1.00  0.00     0.037 A 
HETATM   24  C   UNL     1      -0.879   5.204 -31.675  1.00  0.00     0.068 A 
HETATM   25  C   UNL     1      -2.204   4.762 -31.659  1.00  0.00     0.046 A 
BRANCH  24  26
HETATM   26  O   UNL     1       0.177   4.601 -31.050  1.00  0.00    -0.356 OA
HETATM   27  C   UNL     1       0.532   5.098 -29.766  1.00  0.00     0.210 C 
ENDBRANCH  24  26
ENDBRANCH  18  20
ENDBRANCH   1  18
TORSDOF 5
ENDMDL
MODEL 2
REMARK VINA RESULT:      -8.9      5.405      8.521
REMARK  5 active torsions:
REMARK  status: ('A' for Active; 'I' for Inactive)
REMARK    1  A    between atoms: O_2  and  C_3 
REMARK    2  A    between atoms: C_7  and  C_9 
REMARK    3  A    between atoms: C_9  and  N_11 
REMARK       I    between atoms: N_11  and  C_12 
REMARK    4  A    between atoms: C_12  and  C_14 
REMARK    5  A    between atoms: C_17  and  C_20 
ROOT
HETATM    1  N   UNL     1     -10.427   1.932 -33.275  1.00  0.00    -0.349 N 
HETATM    2  C   UNL     1      -9.190   2.145 -33.839  1.00  0.00     0.252 C 
HETATM    3  O   UNL     1      -8.813   3.216 -34.297  1.00  0.00    -0.268 OA
HETATM    4  H   UNL     1     -10.729   0.979 -33.121  1.00  0.00     0.163 HD
ENDROOT
BRANCH   2   5
HETATM    5  C   UNL     1      -8.318   0.946 -33.911  1.00  0.00     0.032 A 
HETATM    6  C   UNL     1      -7.857   0.376 -32.724  1.00  0.00     0.018 A 
HETATM    7  C   UNL     1      -7.001  -0.730 -32.767  1.00  0.00     0.013 A 
HETATM    8  C   UNL     1      -6.604  -1.302 -33.992  1.00  0.00    -0.023 A 
HETATM    9  C   UNL     1      -7.111  -0.729 -35.173  1.00  0.00     0.013 A 
HETATM   10  C   UNL     1      -7.957   0.385 -35.138  1.00  0.00     0.018 A 
BRANCH   8  11
HETATM   11  C   UNL     1      -5.692  -2.462 -34.035  1.00  0.00     0.016 A 
HETATM   12  C   UNL     1      -4.411  -2.401 -33.464  1.00  0.00     0.034 A 
HETATM   13  C   UNL     1      -3.578  -3.511 -33.528  1.00  0.00     0.117 A 
HETATM   14  N   UNL     1      -3.922  -4.676 -34.114  1.00  0.00    -0.270 NA
HETATM   15  C   UNL     1      -5.158  -4.727 -34.661  1.00  0.00     0.159 A 
HETATM   16  C   UNL     1      -6.054  -3.670 -34.644  1.00  0.00     0.144 A 
HETATM   17  F   UNL     1      -7.252  -3.825 -35.225  1.00  0.00    -0.204 F 
ENDBRANCH   8  11
ENDBRANCH   2   5
BRANCH   1  18
HETATM   18  C   UNL     1     -11.431   2.982 -33.196  1.00  0.00     0.114 C 
HETATM   19  C   UNL     1     -11.288   3.791 -31.905  1.00  0.00     0.037 C 
BRANCH  18  20
HETATM   20  C   UNL     1     -12.819   2.378 -33.327  1.00  0.00    -0.033 A 
HETATM   21  C   UNL     1     -13.115   1.541 -34.412  1.00  0.00     0.009 A 
HETATM   22  C   UNL     1     -14.378   0.965 -34.538  1.00  0.00     0.003 A 
HETATM   23  C   UNL     1     -15.354   1.211 -33.573  1.00  0.00     0.037 A 
HETATM   24  C   UNL     1     -15.079   2.030 -32.477  1.00  0.00     0.068 A 
HETATM   25  C   UNL     1     -13.819   2.620 -32.364  1.00  0.00     0.046 A 
BRANCH  24  26
HETATM   26  O   UNL     1     -16.117   2.175 -31.598  1.00  0.00    -0.356 OA
HETATM   27  C   UNL     1     -17.341   2.671 -32.126  1.00  0.00     0.210 C 
ENDBRANCH  24  26
ENDBRANCH  18  20
ENDBRANCH   1  18
TORSDOF 5
ENDMDL
MODEL 3
REMARK VINA RESULT:      -8.8      4.659      7.230
REMARK  5 active torsions:
REMARK  status: ('A' for Active; 'I' for Inactive)
REMARK    1  A    between atoms: O_2  and  C_3 
REMARK    2  A    between atoms: C_7  and  C_9 
REMARK    3  A    between atoms: C_9  and  N_11 
REMARK       I    between atoms: N_11  and  C_12 
REMARK    4  A    between atoms: C_12  and  C_14 
REMARK    5  A    between atoms: C_17  and  C_20 
ROOT
HETATM    1  N   UNL     1      -9.165   2.859 -32.337  1.00  0.00    -0.349 N 
HETATM    2  C   UNL     1      -8.209   2.804 -33.325  1.00  0.00     0.252 C 
HETATM    3  O   UNL     1      -7.869   3.757 -34.014  1.00  0.00    -0.268 OA
HETATM    4  H   UNL     1      -9.530   1.990 -31.970  1.00  0.00     0.163 HD
ENDROOT
BRANCH   2   5
HETATM    5  C   UNL     1      -7.621   1.460 -33.555  1.00  0.00     0.032 A 
HETATM    6  C   UNL     1      -7.481   1.002 -34.866  1.00  0.00     0.018 A 
HETATM    7  C   UNL     1      -6.968  -0.277 -35.107  1.00  0.00     0.013 A 
HETATM    8  C   UNL     1      -6.565  -1.116 -34.050  1.00  0.00    -0.023 A 
HETATM    9  C   UNL     1      -6.686  -0.617 -32.739  1.00  0.00     0.013 A 
HETATM   10  C   UNL     1      -7.210   0.656 -32.490  1.00  0.00     0.018 A 
BRANCH   8  11
HETATM   11  C   UNL     1      -6.035  -2.470 -34.306  1.00  0.00     0.016 A 
HETATM   12  C   UNL     1      -6.860  -3.493 -34.800  1.00  0.00     0.034 A 
HETATM   13  C   UNL     1      -6.327  -4.756 -35.024  1.00  0.00     0.117 A 
HETATM   14  N   UNL     1      -5.037  -5.079 -34.797  1.00  0.00    -0.270 NA
HETATM   15  C   UNL     1      -4.248  -4.088 -34.322  1.00  0.00     0.159 A 
HETATM   16  C   UNL     1      -4.695  -2.800 -34.069  1.00  0.00     0.144 A 
HETATM   17  F   UNL     1      -3.829  -1.896 -33.588  1.00  0.00    -0.204 F 
ENDBRANCH   8  11
ENDBRANCH   2   5
BRANCH   1  18
HETATM   18  C   UNL     1      -9.893   4.081 -32.035  1.00  0.00     0.114 C 
HETATM   19  C   UNL     1      -9.361   4.746 -30.763  1.00  0.00     0.037 C 
BRANCH  18  20
HETATM   20  C   UNL     1     -11.379   3.783 -31.931  1.00  0.00    -0.033 A 
HETATM   21  C   UNL     1     -12.115   4.280 -30.846  1.00  0.00     0.009 A 
HETATM   22  C   UNL     1     -13.483   4.032 -30.745  1.00  0.00     0.003 A 
HETATM   23  C   UNL     1     -14.130   3.294 -31.734  1.00  0.00     0.037 A 
HETATM   24  C   UNL     1     -13.423   2.800 -32.831  1.00  0.00     0.068 A 
HETATM   25  C   UNL     1     -12.049   3.035 -32.920  1.00  0.00     0.046 A 
BRANCH  24  26
HETATM   26  O   UNL     1     -14.180   2.108 -33.736  1.00  0.00    -0.356 OA
HETATM   27  C   UNL     1     -14.280   0.702 -33.546  1.00  0.00     0.210 C 
ENDBRANCH  24  26
ENDBRANCH  18  20
ENDBRANCH   1  18
TORSDOF 5
ENDMDL
MODEL 4
REMARK VINA RESULT:      -8.5      1.978      2.413
REMARK  5 active torsions:
REMARK  status: ('A' for Active; 'I' for Inactive)
REMARK    1  A    between atoms: O_2  and  C_3 
REMARK    2  A    between atoms: C_7  and  C_9 
REMARK    3  A    between atoms: C_9  and  N_11 
REMARK       I    between atoms: N_11  and  C_12 
REMARK    4  A    between atoms: C_12  and  C_14 
REMARK    5  A    between atoms: C_17  and  C_20 
ROOT
HETATM    1  N   UNL     1      -4.266   3.464 -31.694  1.00  0.00    -0.349 N 
HETATM    2  C   UNL     1      -4.832   2.413 -31.009  1.00  0.00     0.252 C 
HETATM    3  O   UNL     1      -5.257   2.482 -29.863  1.00  0.00    -0.268 OA
HETATM    4  H   UNL     1      -3.755   3.266 -32.545  1.00  0.00     0.163 HD
ENDROOT
BRANCH   2   5
HETATM    5  C   UNL     1      -4.856   1.124 -31.745  1.00  0.00     0.032 A 
HETATM    6  C   UNL     1      -6.005   0.334 -31.682  1.00  0.00     0.018 A 
HETATM    7  C   UNL     1      -6.037  -0.904 -32.334  1.00  0.00     0.013 A 
HETATM    8  C   UNL     1      -4.935  -1.369 -33.078  1.00  0.00    -0.023 A 
HETATM    9  C   UNL     1      -3.802  -0.538 -33.153  1.00  0.00     0.013 A 
HETATM   10  C   UNL     1      -3.757   0.696 -32.493  1.00  0.00     0.018 A 
BRANCH   8  11
HETATM   11  C   UNL     1      -4.967  -2.680 -33.755  1.00  0.00     0.016 A 
HETATM   12  C   UNL     1      -3.970  -3.641 -33.526  1.00  0.00     0.034 A 
HETATM   13  C   UNL     1      -4.030  -4.863 -34.186  1.00  0.00     0.117 A 
HETATM   14  N   UNL     1      -5.006  -5.202 -35.053  1.00  0.00    -0.270 NA
HETATM   15  C   UNL     1      -5.964  -4.271 -35.267  1.00  0.00     0.159 A 
HETATM   16  C   UNL     1      -5.983  -3.028 -34.654  1.00  0.00     0.144 A 
HETATM   17  F   UNL     1      -6.976  -2.175 -34.946  1.00  0.00    -0.204 F 
ENDBRANCH   8  11
ENDBRANCH   2   5
BRANCH   1  18
HETATM   18  C   UNL     1      -4.095   4.776 -31.091  1.00  0.00     0.114 C 
HETATM   19  C   UNL     1      -5.428   5.521 -30.992  1.00  0.00     0.037 C 
BRANCH  18  20
HETATM   20  C   UNL     1      -3.065   5.574 -31.874  1.00  0.00    -0.033 A 
HETATM   21  C   UNL     1      -2.259   4.928 -32.822  1.00  0.00     0.009 A 
HETATM   22  C   UNL     1      -1.323   5.648 -33.562  1.00  0.00     0.003 A 
HETATM   23  C   UNL     1      -1.192   7.023 -33.370  1.00  0.00     0.037 A 
HETATM   24  C   UNL     1      -1.993   7.690 -32.442  1.00  0.00     0.068 A 
HETATM   25  C   UNL     1      -2.917   6.963 -31.689  1.00  0.00     0.046 A 
BRANCH  24  26
HETATM   26  O   UNL     1      -1.775   9.038 -32.364  1.00  0.00    -0.356 OA
HETATM   27  C   UNL     1      -2.147   9.679 -31.150  1.00  0.00     0.210 C 
ENDBRANCH  24  26
ENDBRANCH  18  20
ENDBRANCH   1  18
TORSDOF 5
ENDMDL
MODEL 5
REMARK VINA RESULT:      -8.5      1.830      2.221
REMARK  5 active torsions:
REMARK  status: ('A' for Active; 'I' for Inactive)
REMARK    1  A    between atoms: O_2  and  C_3 
REMARK    2  A    between atoms: C_7  and  C_9 
REMARK    3  A    between atoms: C_9  and  N_11 
REMARK       I    between atoms: N_11  and  C_12 
REMARK    4  A    between atoms: C_12  and  C_14 
REMARK    5  A    between atoms: C_17  and  C_20 
ROOT
HETATM    1  N   UNL     1      -3.876   4.079 -31.474  1.00  0.00    -0.349 N 
HETATM    2  C   UNL     1      -4.652   3.147 -30.824  1.00  0.00     0.252 C 
HETATM    3  O   UNL     1      -5.335   3.382 -29.835  1.00  0.00    -0.268 OA
HETATM    4  H   UNL     1      -3.189   3.754 -32.142  1.00  0.00     0.163 HD
ENDROOT
BRANCH   2   5
HETATM    5  C   UNL     1      -4.577   1.772 -31.378  1.00  0.00     0.032 A 
HETATM    6  C   UNL     1      -3.549   1.459 -32.268  1.00  0.00     0.018 A 
HETATM    7  C   UNL     1      -3.482   0.182 -32.835  1.00  0.00     0.013 A 
HETATM    8  C   UNL     1      -4.423  -0.814 -32.511  1.00  0.00    -0.023 A 
HETATM    9  C   UNL     1      -5.430  -0.483 -31.586  1.00  0.00     0.013 A 
HETATM   10  C   UNL     1      -5.512   0.796 -31.024  1.00  0.00     0.018 A 
BRANCH   8  11
HETATM   11  C   UNL     1      -4.356  -2.158 -33.120  1.00  0.00     0.016 A 
HETATM   12  C   UNL     1      -5.145  -2.493 -34.232  1.00  0.00     0.034 A 
HETATM   13  C   UNL     1      -5.060  -3.769 -34.774  1.00  0.00     0.117 A 
HETATM   14  N   UNL     1      -4.248  -4.735 -34.298  1.00  0.00    -0.270 NA
HETATM   15  C   UNL     1      -3.490  -4.404 -33.228  1.00  0.00     0.159 A 
HETATM   16  C   UNL     1      -3.512  -3.158 -32.622  1.00  0.00     0.144 A 
HETATM   17  F   UNL     1      -2.725  -2.939 -31.558  1.00  0.00    -0.204 F 
ENDBRANCH   8  11
ENDBRANCH   2   5
BRANCH   1  18
HETATM   18  C   UNL     1      -3.776   5.455 -31.015  1.00  0.00     0.114 C 
HETATM   19  C   UNL     1      -4.534   6.408 -31.942  1.00  0.00     0.037 C 
BRANCH  18  20
HETATM   20  C   UNL     1      -2.314   5.849 -30.881  1.00  0.00    -0.033 A 
HETATM   21  C   UNL     1      -1.359   5.279 -31.735  1.00  0.00     0.009 A 
HETATM   22  C   UNL     1      -0.017   5.643 -31.638  1.00  0.00     0.003 A 
HETATM   23  C   UNL     1       0.381   6.589 -30.694  1.00  0.00     0.037 A 
HETATM   24  C   UNL     1      -0.553   7.181 -29.843  1.00  0.00     0.068 A 
HETATM   25  C   UNL     1      -1.894   6.800 -29.930  1.00  0.00     0.046 A 
BRANCH  24  26
HETATM   26  O   UNL     1      -0.034   8.103 -28.977  1.00  0.00    -0.356 OA
HETATM   27  C   UNL     1       0.620   7.599 -27.819  1.00  0.00     0.210 C 
ENDBRANCH  24  26
ENDBRANCH  18  20
ENDBRANCH   1  18
TORSDOF 5
ENDMDL
MODEL 6
REMARK VINA RESULT:      -8.2      4.621      8.328
REMARK  5 active torsions:
REMARK  status: ('A' for Active; 'I' for Inactive)
REMARK    1  A    between atoms: O_2  and  C_3 
REMARK    2  A    between atoms: C_7  and  C_9 
REMARK    3  A    between atoms: C_9  and  N_11 
REMARK       I    between atoms: N_11  and  C_12 
REMARK    4  A    between atoms: C_12  and  C_14 
REMARK    5  A    between atoms: C_17  and  C_20 
ROOT
HETATM    1  N   UNL     1      -5.377   0.009 -32.249  1.00  0.00    -0.349 N 
HETATM    2  C   UNL     1      -6.525   0.196 -31.515  1.00  0.00     0.252 C 
HETATM    3  O   UNL     1      -6.703  -0.237 -30.385  1.00  0.00    -0.268 OA
HETATM    4  H   UNL     1      -5.398   0.215 -33.240  1.00  0.00     0.163 HD
ENDROOT
BRANCH   2   5
HETATM    5  C   UNL     1      -7.603   0.941 -32.214  1.00  0.00     0.032 A 
HETATM    6  C   UNL     1      -7.263   1.772 -33.283  1.00  0.00     0.018 A 
HETATM    7  C   UNL     1      -8.255   2.516 -33.932  1.00  0.00     0.013 A 
HETATM    8  C   UNL     1      -9.606   2.432 -33.542  1.00  0.00    -0.023 A 
HETATM    9  C   UNL     1      -9.926   1.562 -32.484  1.00  0.00     0.013 A 
HETATM   10  C   UNL     1      -8.938   0.824 -31.822  1.00  0.00     0.018 A 
BRANCH   8  11
HETATM   11  C   UNL     1     -10.649   3.226 -34.221  1.00  0.00     0.016 A 
HETATM   12  C   UNL     1     -10.700   4.623 -34.088  1.00  0.00     0.034 A 
HETATM   13  C   UNL     1     -11.700   5.337 -34.737  1.00  0.00     0.117 A 
HETATM   14  N   UNL     1     -12.649   4.769 -35.509  1.00  0.00    -0.270 NA
HETATM   15  C   UNL     1     -12.592   3.423 -35.633  1.00  0.00     0.159 A 
HETATM   16  C   UNL     1     -11.632   2.632 -35.022  1.00  0.00     0.144 A 
HETATM   17  F   UNL     1     -11.674   1.304 -35.204  1.00  0.00    -0.204 F 
ENDBRANCH   8  11
ENDBRANCH   2   5
BRANCH   1  18
HETATM   18  C   UNL     1      -4.254  -0.763 -31.742  1.00  0.00     0.114 C 
HETATM   19  C   UNL     1      -2.961   0.056 -31.761  1.00  0.00     0.037 C 
BRANCH  18  20
HETATM   20  C   UNL     1      -4.113  -2.051 -32.538  1.00  0.00    -0.033 A 
HETATM   21  C   UNL     1      -3.259  -3.063 -32.079  1.00  0.00     0.009 A 
HETATM   22  C   UNL     1      -3.131  -4.257 -32.786  1.00  0.00     0.003 A 
HETATM   23  C   UNL     1      -3.866  -4.454 -33.955  1.00  0.00     0.037 A 
HETATM   24  C   UNL     1      -4.733  -3.467 -34.425  1.00  0.00     0.068 A 
HETATM   25  C   UNL     1      -4.844  -2.265 -33.723  1.00  0.00     0.046 A 
BRANCH  24  26
HETATM   26  O   UNL     1      -5.405  -3.794 -35.570  1.00  0.00    -0.356 OA
HETATM   27  C   UNL     1      -6.634  -4.493 -35.416  1.00  0.00     0.210 C 
ENDBRANCH  24  26
ENDBRANCH  18  20
ENDBRANCH   1  18
TORSDOF 5
ENDMDL
MODEL 7
REMARK VINA RESULT:      -8.2      3.280      8.682
REMARK  5 active torsions:
REMARK  status: ('A' for Active; 'I' for Inactive)
REMARK    1  A    between atoms: O_2  and  C_3 
REMARK    2  A    between atoms: C_7  and  C_9 
REMARK    3  A    between atoms: C_9  and  N_11 
REMARK       I    between atoms: N_11  and  C_12 
REMARK    4  A    between atoms: C_12  and  C_14 
REMARK    5  A    between atoms: C_17  and  C_20 
ROOT
HETATM    1  N   UNL     1      -6.320   1.789 -32.435  1.00  0.00    -0.349 N 
HETATM    2  C   UNL     1      -5.866   2.787 -33.267  1.00  0.00     0.252 C 
HETATM    3  O   UNL     1      -6.277   2.982 -34.403  1.00  0.00    -0.268 OA
HETATM    4  H   UNL     1      -5.783   1.569 -31.607  1.00  0.00     0.163 HD
ENDROOT
BRANCH   2   5
HETATM    5  C   UNL     1      -4.771   3.620 -32.708  1.00  0.00     0.032 A 
HETATM    6  C   UNL     1      -3.642   2.987 -32.187  1.00  0.00     0.018 A 
HETATM    7  C   UNL     1      -2.615   3.749 -31.619  1.00  0.00     0.013 A 
HETATM    8  C   UNL     1      -2.684   5.154 -31.575  1.00  0.00    -0.023 A 
HETATM    9  C   UNL     1      -3.818   5.769 -32.137  1.00  0.00     0.013 A 
HETATM   10  C   UNL     1      -4.855   5.014 -32.696  1.00  0.00     0.018 A 
BRANCH   8  11
HETATM   11  C   UNL     1      -1.605   5.955 -30.964  1.00  0.00     0.016 A 
HETATM   12  C   UNL     1      -0.320   5.995 -31.529  1.00  0.00     0.034 A 
HETATM   13  C   UNL     1       0.673   6.755 -30.924  1.00  0.00     0.117 A 
HETATM   14  N   UNL     1       0.484   7.481 -29.802  1.00  0.00    -0.270 NA
HETATM   15  C   UNL     1      -0.756   7.439 -29.265  1.00  0.00     0.159 A 
HETATM   16  C   UNL     1      -1.805   6.708 -29.800  1.00  0.00     0.144 A 
HETATM   17  F   UNL     1      -2.994   6.728 -29.181  1.00  0.00    -0.204 F 
ENDBRANCH   8  11
ENDBRANCH   2   5
BRANCH   1  18
HETATM   18  C   UNL     1      -7.335   0.836 -32.856  1.00  0.00     0.114 C 
HETATM   19  C   UNL     1      -8.308   0.522 -31.717  1.00  0.00     0.037 C 
BRANCH  18  20
HETATM   20  C   UNL     1      -6.672  -0.423 -33.389  1.00  0.00    -0.033 A 
HETATM   21  C   UNL     1      -7.274  -1.137 -34.434  1.00  0.00     0.009 A 
HETATM   22  C   UNL     1      -6.669  -2.283 -34.948  1.00  0.00     0.003 A 
HETATM   23  C   UNL     1      -5.452  -2.720 -34.428  1.00  0.00     0.037 A 
HETATM   24  C   UNL     1      -4.826  -2.018 -33.396  1.00  0.00     0.068 A 
HETATM   25  C   UNL     1      -5.444  -0.880 -32.872  1.00  0.00     0.046 A 
BRANCH  24  26
HETATM   26  O   UNL     1      -3.630  -2.543 -32.991  1.00  0.00    -0.356 OA
HETATM   27  C   UNL     1      -2.998  -1.917 -31.881  1.00  0.00     0.210 C 
ENDBRANCH  24  26
ENDBRANCH  18  20
ENDBRANCH   1  18
TORSDOF 5
ENDMDL
MODEL 8
REMARK VINA RESULT:      -8.0     15.941     17.528
REMARK  5 active torsions:
REMARK  status: ('A' for Active; 'I' for Inactive)
REMARK    1  A    between atoms: O_2  and  C_3 
REMARK    2  A    between atoms: C_7  and  C_9 
REMARK    3  A    between atoms: C_9  and  N_11 
REMARK       I    between atoms: N_11  and  C_12 
REMARK    4  A    between atoms: C_12  and  C_14 
REMARK    5  A    between atoms: C_17  and  C_20 
ROOT
HETATM    1  N   UNL     1      -2.538 -13.403 -39.378  1.00  0.00    -0.349 N 
HETATM    2  C   UNL     1      -3.338 -12.349 -38.999  1.00  0.00     0.252 C 
HETATM    3  O   UNL     1      -2.938 -11.350 -38.417  1.00  0.00    -0.268 OA
HETATM    4  H   UNL     1      -2.980 -14.269 -39.657  1.00  0.00     0.163 HD
ENDROOT
BRANCH   2   5
HETATM    5  C   UNL     1      -4.782 -12.517 -39.303  1.00  0.00     0.032 A 
HETATM    6  C   UNL     1      -5.663 -12.787 -38.255  1.00  0.00     0.018 A 
HETATM    7  C   UNL     1      -7.022 -12.990 -38.522  1.00  0.00     0.013 A 
HETATM    8  C   UNL     1      -7.532 -12.907 -39.832  1.00  0.00    -0.023 A 
HETATM    9  C   UNL     1      -6.627 -12.601 -40.865  1.00  0.00     0.013 A 
HETATM   10  C   UNL     1      -5.265 -12.410 -40.609  1.00  0.00     0.018 A 
BRANCH   8  11
HETATM   11  C   UNL     1      -8.964 -13.133 -40.112  1.00  0.00     0.016 A 
HETATM   12  C   UNL     1      -9.903 -12.098 -39.975  1.00  0.00     0.034 A 
HETATM   13  C   UNL     1     -11.243 -12.349 -40.243  1.00  0.00     0.117 A 
HETATM   14  N   UNL     1     -11.720 -13.547 -40.638  1.00  0.00    -0.270 NA
HETATM   15  C   UNL     1     -10.808 -14.538 -40.769  1.00  0.00     0.159 A 
HETATM   16  C   UNL     1      -9.454 -14.379 -40.523  1.00  0.00     0.144 A 
HETATM   17  F   UNL     1      -8.638 -15.432 -40.675  1.00  0.00    -0.204 F 
ENDBRANCH   8  11
ENDBRANCH   2   5
BRANCH   1  18
HETATM   18  C   UNL     1      -1.113 -13.433 -39.087  1.00  0.00     0.114 C 
HETATM   19  C   UNL     1      -0.312 -13.953 -40.283  1.00  0.00     0.037 C 
BRANCH  18  20
HETATM   20  C   UNL     1      -0.859 -14.263 -37.839  1.00  0.00    -0.033 A 
HETATM   21  C   UNL     1      -1.640 -14.055 -36.694  1.00  0.00     0.009 A 
HETATM   22  C   UNL     1      -1.432 -14.820 -35.548  1.00  0.00     0.003 A 
HETATM   23  C   UNL     1      -0.449 -15.808 -35.540  1.00  0.00     0.037 A 
HETATM   24  C   UNL     1       0.332 -16.043 -36.672  1.00  0.00     0.068 A 
HETATM   25  C   UNL     1       0.134 -15.263 -37.813  1.00  0.00     0.046 A 
BRANCH  24  26
HETATM   26  O   UNL     1       1.247 -17.051 -36.537  1.00  0.00    -0.356 OA
HETATM   27  C   UNL     1       1.980 -17.413 -37.701  1.00  0.00     0.210 C 
ENDBRANCH  24  26
ENDBRANCH  18  20
ENDBRANCH   1  18
TORSDOF 5
ENDMDL
MODEL 9
REMARK VINA RESULT:      -8.0      5.543     11.070
REMARK  5 active torsions:
REMARK  status: ('A' for Active; 'I' for Inactive)
REMARK    1  A    between atoms: O_2  and  C_3 
REMARK    2  A    between atoms: C_7  and  C_9 
REMARK    3  A    between atoms: C_9  and  N_11 
REMARK       I    between atoms: N_11  and  C_12 
REMARK    4  A    between atoms: C_12  and  C_14 
REMARK    5  A    between atoms: C_17  and  C_20 
ROOT
HETATM    1  N   UNL     1      -0.959   5.669 -31.698  1.00  0.00    -0.349 N 
HETATM    2  C   UNL     1       0.186   5.346 -31.007  1.00  0.00     0.252 C 
HETATM    3  O   UNL     1       0.954   4.445 -31.321  1.00  0.00    -0.268 OA
HETATM    4  H   UNL     1      -1.635   6.277 -31.253  1.00  0.00     0.163 HD
ENDROOT
BRANCH   2   5
HETATM    5  C   UNL     1       0.428   6.147 -29.781  1.00  0.00     0.032 A 
HETATM    6  C   UNL     1       0.604   5.484 -28.566  1.00  0.00     0.018 A 
HETATM    7  C   UNL     1       0.792   6.219 -27.390  1.00  0.00     0.013 A 
HETATM    8  C   UNL     1       0.828   7.627 -27.404  1.00  0.00    -0.023 A 
HETATM    9  C   UNL     1       0.682   8.270 -28.647  1.00  0.00     0.013 A 
HETATM   10  C   UNL     1       0.481   7.542 -29.825  1.00  0.00     0.018 A 
BRANCH   8  11
HETATM   11  C   UNL     1       1.016   8.400 -26.161  1.00  0.00     0.016 A 
HETATM   12  C   UNL     1       2.276   8.501 -25.550  1.00  0.00     0.034 A 
HETATM   13  C   UNL     1       2.413   9.234 -24.378  1.00  0.00     0.117 A 
HETATM   14  N   UNL     1       1.395   9.875 -23.768  1.00  0.00    -0.270 NA
HETATM   15  C   UNL     1       0.185   9.775 -24.364  1.00  0.00     0.159 A 
HETATM   16  C   UNL     1      -0.044   9.066 -25.533  1.00  0.00     0.144 A 
HETATM   17  F   UNL     1      -1.288   9.023 -26.033  1.00  0.00    -0.204 F 
ENDBRANCH   8  11
ENDBRANCH   2   5
BRANCH   1  18
HETATM   18  C   UNL     1      -1.383   4.933 -32.878  1.00  0.00     0.114 C 
HETATM   19  C   UNL     1      -1.163   5.750 -34.152  1.00  0.00     0.037 C 
BRANCH  18  20
HETATM   20  C   UNL     1      -2.835   4.509 -32.727  1.00  0.00    -0.033 A 
HETATM   21  C   UNL     1      -3.206   3.657 -31.678  1.00  0.00     0.009 A 
HETATM   22  C   UNL     1      -4.536   3.274 -31.514  1.00  0.00     0.003 A 
HETATM   23  C   UNL     1      -5.510   3.749 -32.392  1.00  0.00     0.037 A 
HETATM   24  C   UNL     1      -5.167   4.610 -33.436  1.00  0.00     0.068 A 
HETATM   25  C   UNL     1      -3.830   4.976 -33.608  1.00  0.00     0.046 A 
BRANCH  24  26
HETATM   26  O   UNL     1      -6.217   5.014 -34.213  1.00  0.00    -0.356 OA
HETATM   27  C   UNL     1      -7.513   4.580 -33.816  1.00  0.00     0.210 C 
ENDBRANCH  24  26
ENDBRANCH  18  20
ENDBRANCH   1  18
TORSDOF 5
ENDMDL
MODEL 10
REMARK VINA RESULT:      -8.0      5.052     10.779
REMARK  5 active torsions:
REMARK  status: ('A' for Active; 'I' for Inactive)
REMARK    1  A    between atoms: O_2  and  C_3 
REMARK    2  A    between atoms: C_7  and  C_9 
REMARK    3  A    between atoms: C_9  and  N_11 
REMARK       I    between atoms: N_11  and  C_12 
REMARK    4  A    between atoms: C_12  and  C_14 
REMARK    5  A    between atoms: C_17  and  C_20 
ROOT
HETATM    1  N   UNL     1      -1.108   5.852 -31.912  1.00  0.00    -0.349 N 
HETATM    2  C   UNL     1      -0.092   5.492 -31.056  1.00  0.00     0.252 C 
HETATM    3  O   UNL     1       0.696   4.578 -31.262  1.00  0.00    -0.268 OA
HETATM    4  H   UNL     1      -1.833   6.468 -31.568  1.00  0.00     0.163 HD
ENDROOT
BRANCH   2   5
HETATM    5  C   UNL     1      -0.030   6.270 -29.794  1.00  0.00     0.032 A 
HETATM    6  C   UNL     1      -0.568   7.558 -29.769  1.00  0.00     0.018 A 
HETATM    7  C   UNL     1      -0.485   8.326 -28.603  1.00  0.00     0.013 A 
HETATM    8  C   UNL     1       0.118   7.822 -27.434  1.00  0.00    -0.023 A 
HETATM    9  C   UNL     1       0.623   6.509 -27.476  1.00  0.00     0.013 A 
HETATM   10  C   UNL     1       0.555   5.739 -28.642  1.00  0.00     0.018 A 
BRANCH   8  11
HETATM   11  C   UNL     1       0.215   8.639 -26.209  1.00  0.00     0.016 A 
HETATM   12  C   UNL     1      -0.935   9.055 -25.519  1.00  0.00     0.034 A 
HETATM   13  C   UNL     1      -0.806   9.827 -24.371  1.00  0.00     0.117 A 
HETATM   14  N   UNL     1       0.380  10.216 -23.857  1.00  0.00    -0.270 NA
HETATM   15  C   UNL     1       1.483   9.810 -24.526  1.00  0.00     0.159 A 
HETATM   16  C   UNL     1       1.447   9.039 -25.677  1.00  0.00     0.144 A 
HETATM   17  F   UNL     1       2.603   8.700 -26.267  1.00  0.00    -0.204 F 
ENDBRANCH   8  11
ENDBRANCH   2   5
BRANCH   1  18
HETATM   18  C   UNL     1      -1.357   5.141 -33.156  1.00  0.00     0.114 C 
HETATM   19  C   UNL     1      -1.214   6.069 -34.365  1.00  0.00     0.037 C 
BRANCH  18  20
HETATM   20  C   UNL     1      -2.729   4.488 -33.111  1.00  0.00    -0.033 A 
HETATM   21  C   UNL     1      -3.779   5.022 -33.871  1.00  0.00     0.009 A 
HETATM   22  C   UNL     1      -5.038   4.424 -33.856  1.00  0.00     0.003 A 
HETATM   23  C   UNL     1      -5.256   3.280 -33.090  1.00  0.00     0.037 A 
HETATM   24  C   UNL     1      -4.222   2.721 -32.337  1.00  0.00     0.068 A 
HETATM   25  C   UNL     1      -2.967   3.333 -32.339  1.00  0.00     0.046 A 
BRANCH  24  26
HETATM   26  O   UNL     1      -4.564   1.592 -31.645  1.00  0.00    -0.356 OA
HETATM   27  C   UNL     1      -3.505   0.711 -31.290  1.00  0.00     0.210 C 
ENDBRANCH  24  26
ENDBRANCH  18  20
ENDBRANCH   1  18
TORSDOF 5
ENDMDL
