MODEL 1
REMARK VINA RESULT:      -9.3      0.000      0.000
REMARK  8 active torsions:
REMARK  status: ('A' for Active; 'I' for Inactive)
REMARK    1  A    between atoms: C_5  and  S_6 
REMARK    2  A    between atoms: S_6  and  C_7 
REMARK    3  A    between atoms: C_7  and  C_8 
REMARK       I    between atoms: C_8  and  N_9 
REMARK    4  A    between atoms: N_9  and  C_10 
REMARK    5  A    between atoms: C_10  and  C_11 
REMARK    6  A    between atoms: C_11  and  C_12 
REMARK    7  A    between atoms: C_14  and  O_15 
REMARK    8  A    between atoms: C_17  and  O_18 
ROOT
HETATM    1  C   UNL     1      -3.010   4.193 -33.473  1.00  0.00     0.185 C 
ENDROOT
BRANCH   1   2
HETATM    2  S   UNL     1      -4.392   3.673 -32.415  1.00  0.00    -0.080 SA
BRANCH   2   3
HETATM    3  C   UNL     1      -3.936   2.039 -32.064  1.00  0.00     0.197 A 
HETATM    4  N   UNL     1      -4.472   0.882 -32.606  1.00  0.00    -0.271 N 
HETATM    5  C   UNL     1      -3.685  -0.130 -32.059  1.00  0.00     0.165 A 
HETATM    6  C   UNL     1      -5.546   0.614 -33.503  1.00  0.00     0.053 A 
HETATM    7  C   UNL     1      -3.886  -1.496 -32.422  1.00  0.00    -0.013 A 
HETATM    8  N   UNL     1      -2.808   0.386 -31.221  1.00  0.00    -0.128 NA
HETATM    9  C   UNL     1      -3.027  -2.608 -31.873  1.00  0.00     0.052 C 
HETATM   10  C   UNL     1      -4.875  -1.783 -33.290  1.00  0.00     0.024 A 
HETATM   11  C   UNL     1      -5.741  -0.738 -33.848  1.00  0.00    -0.008 A 
HETATM   12  C   UNL     1      -6.773  -1.095 -34.727  1.00  0.00     0.014 A 
HETATM   13  C   UNL     1      -7.614  -0.117 -35.253  1.00  0.00     0.001 A 
HETATM   14  C   UNL     1      -7.429   1.217 -34.903  1.00  0.00     0.002 A 
HETATM   15  C   UNL     1      -6.400   1.587 -34.030  1.00  0.00     0.031 A 
HETATM   16  N   UNL     1      -2.968   1.740 -31.224  1.00  0.00    -0.122 NA
ENDBRANCH   2   3
ENDBRANCH   1   2
BRANCH   1  17
HETATM   17  C   UNL     1      -3.470   5.293 -34.412  1.00  0.00     0.227 C 
HETATM   18  N   UNL     1      -2.624   6.332 -34.705  1.00  0.00    -0.360 N 
HETATM   19  H   UNL     1      -3.083   7.035 -35.273  1.00  0.00     0.162 HD
HETATM   20  O   UNL     1      -4.581   5.276 -34.943  1.00  0.00    -0.273 OA
BRANCH  18  21
HETATM   21  C   UNL     1      -1.450   6.735 -33.948  1.00  0.00     0.127 C 
BRANCH  21  22
HETATM   22  C   UNL     1      -1.789   7.758 -32.863  1.00  0.00     0.058 C 
BRANCH  22  23
HETATM   23  C   UNL     1      -1.261   7.322 -31.517  1.00  0.00    -0.054 A 
HETATM   24  C   UNL     1      -2.031   7.517 -30.360  1.00  0.00     0.046 A 
HETATM   25  C   UNL     1      -1.535   7.165 -29.099  1.00  0.00     0.102 A 
HETATM   26  C   UNL     1      -0.257   6.582 -28.991  1.00  0.00     0.101 A 
HETATM   27  C   UNL     1       0.505   6.379 -30.146  1.00  0.00     0.040 A 
HETATM   28  C   UNL     1       0.008   6.751 -31.400  1.00  0.00     0.010 A 
BRANCH  25  29
HETATM   29  O   UNL     1      -2.225   7.337 -27.924  1.00  0.00    -0.353 OA
HETATM   30  C   UNL     1      -2.599   8.664 -27.577  1.00  0.00     0.210 C 
ENDBRANCH  25  29
BRANCH  26  31
HETATM   31  O   UNL     1       0.154   6.259 -27.722  1.00  0.00    -0.353 OA
HETATM   32  C   UNL     1       1.080   7.128 -27.088  1.00  0.00     0.210 C 
ENDBRANCH  26  31
ENDBRANCH  22  23
ENDBRANCH  21  22
ENDBRANCH  18  21
ENDBRANCH   1  17
TORSDOF 8
ENDMDL
MODEL 2
REMARK VINA RESULT:      -8.9      1.324      2.221
REMARK  8 active torsions:
REMARK  status: ('A' for Active; 'I' for Inactive)
REMARK    1  A    between atoms: C_5  and  S_6 
REMARK    2  A    between atoms: S_6  and  C_7 
REMARK    3  A    between atoms: C_7  and  C_8 
REMARK       I    between atoms: C_8  and  N_9 
REMARK    4  A    between atoms: N_9  and  C_10 
REMARK    5  A    between atoms: C_10  and  C_11 
REMARK    6  A    between atoms: C_11  and  C_12 
REMARK    7  A    between atoms: C_14  and  O_15 
REMARK    8  A    between atoms: C_17  and  O_18 
ROOT
HETATM    1  C   UNL     1      -2.744   4.107 -31.615  1.00  0.00     0.185 C 
ENDROOT
BRANCH   1   2
HETATM    2  S   UNL     1      -4.218   3.260 -32.256  1.00  0.00    -0.080 SA
BRANCH   2   3
HETATM    3  C   UNL     1      -3.799   1.607 -31.959  1.00  0.00     0.197 A 
HETATM    4  N   UNL     1      -4.358   0.480 -32.541  1.00  0.00    -0.271 N 
HETATM    5  C   UNL     1      -3.595  -0.566 -32.025  1.00  0.00     0.165 A 
HETATM    6  C   UNL     1      -5.434   0.266 -33.450  1.00  0.00     0.053 A 
HETATM    7  C   UNL     1      -3.824  -1.915 -32.435  1.00  0.00    -0.013 A 
HETATM    8  N   UNL     1      -2.711  -0.099 -31.167  1.00  0.00    -0.128 NA
HETATM    9  C   UNL     1      -2.992  -3.063 -31.920  1.00  0.00     0.052 C 
HETATM   10  C   UNL     1      -4.816  -2.151 -33.316  1.00  0.00     0.024 A 
HETATM   11  C   UNL     1      -5.656  -1.070 -33.841  1.00  0.00    -0.008 A 
HETATM   12  C   UNL     1      -6.692  -1.374 -34.735  1.00  0.00     0.014 A 
HETATM   13  C   UNL     1      -7.509  -0.361 -35.232  1.00  0.00     0.001 A 
HETATM   14  C   UNL     1      -7.297   0.956 -34.836  1.00  0.00     0.002 A 
HETATM   15  C   UNL     1      -6.264   1.274 -33.947  1.00  0.00     0.031 A 
HETATM   16  N   UNL     1      -2.842   1.259 -31.126  1.00  0.00    -0.122 NA
ENDBRANCH   2   3
ENDBRANCH   1   2
BRANCH   1  17
HETATM   17  C   UNL     1      -2.187   5.038 -32.676  1.00  0.00     0.227 C 
HETATM   18  N   UNL     1      -0.878   5.439 -32.605  1.00  0.00    -0.360 N 
HETATM   19  H   UNL     1      -0.660   6.122 -33.323  1.00  0.00     0.162 HD
HETATM   20  O   UNL     1      -2.870   5.434 -33.621  1.00  0.00    -0.273 OA
BRANCH  18  21
HETATM   21  C   UNL     1      -0.018   5.392 -31.434  1.00  0.00     0.127 C 
BRANCH  21  22
HETATM   22  C   UNL     1       0.502   6.777 -31.046  1.00  0.00     0.058 C 
BRANCH  22  23
HETATM   23  C   UNL     1      -0.051   7.214 -29.711  1.00  0.00    -0.054 A 
HETATM   24  C   UNL     1       0.724   7.084 -28.548  1.00  0.00     0.046 A 
HETATM   25  C   UNL     1       0.206   7.437 -27.296  1.00  0.00     0.102 A 
HETATM   26  C   UNL     1      -1.100   7.955 -27.203  1.00  0.00     0.101 A 
HETATM   27  C   UNL     1      -1.868   8.094 -28.364  1.00  0.00     0.040 A 
HETATM   28  C   UNL     1      -1.349   7.721 -29.608  1.00  0.00     0.010 A 
BRANCH  25  29
HETATM   29  O   UNL     1       0.901   7.325 -26.117  1.00  0.00    -0.353 OA
HETATM   30  C   UNL     1       2.025   8.178 -25.939  1.00  0.00     0.210 C 
ENDBRANCH  25  29
BRANCH  26  31
HETATM   31  O   UNL     1      -1.531   8.284 -25.943  1.00  0.00    -0.353 OA
HETATM   32  C   UNL     1      -2.575   7.505 -25.379  1.00  0.00     0.210 C 
ENDBRANCH  26  31
ENDBRANCH  22  23
ENDBRANCH  21  22
ENDBRANCH  18  21
ENDBRANCH   1  17
TORSDOF 8
ENDMDL
MODEL 3
REMARK VINA RESULT:      -8.8      1.253      1.991
REMARK  8 active torsions:
REMARK  status: ('A' for Active; 'I' for Inactive)
REMARK    1  A    between atoms: C_5  and  S_6 
REMARK    2  A    between atoms: S_6  and  C_7 
REMARK    3  A    between atoms: C_7  and  C_8 
REMARK       I    between atoms: C_8  and  N_9 
REMARK    4  A    between atoms: N_9  and  C_10 
REMARK    5  A    between atoms: C_10  and  C_11 
REMARK    6  A    between atoms: C_11  and  C_12 
REMARK    7  A    between atoms: C_14  and  O_15 
REMARK    8  A    between atoms: C_17  and  O_18 
ROOT
HETATM    1  C   UNL     1      -2.947   3.202 -32.631  1.00  0.00     0.185 C 
ENDROOT
BRANCH   1   2
HETATM    2  S   UNL     1      -3.950   2.461 -31.310  1.00  0.00    -0.080 SA
BRANCH   2   3
HETATM    3  C   UNL     1      -3.728   0.775 -31.640  1.00  0.00     0.197 A 
HETATM    4  N   UNL     1      -4.450  -0.009 -32.525  1.00  0.00    -0.271 N 
HETATM    5  C   UNL     1      -3.801  -1.242 -32.472  1.00  0.00     0.165 A 
HETATM    6  C   UNL     1      -5.584   0.222 -33.356  1.00  0.00     0.053 A 
HETATM    7  C   UNL     1      -4.216  -2.328 -33.301  1.00  0.00    -0.013 A 
HETATM    8  N   UNL     1      -2.827  -1.200 -31.585  1.00  0.00    -0.128 NA
HETATM    9  C   UNL     1      -3.511  -3.662 -33.290  1.00  0.00     0.052 C 
HETATM   10  C   UNL     1      -5.268  -2.136 -34.120  1.00  0.00     0.024 A 
HETATM   11  C   UNL     1      -5.990  -0.859 -34.164  1.00  0.00    -0.008 A 
HETATM   12  C   UNL     1      -7.095  -0.721 -35.015  1.00  0.00     0.014 A 
HETATM   13  C   UNL     1      -7.801   0.479 -35.058  1.00  0.00     0.001 A 
HETATM   14  C   UNL     1      -7.407   1.543 -34.251  1.00  0.00     0.002 A 
HETATM   15  C   UNL     1      -6.303   1.419 -33.400  1.00  0.00     0.031 A 
HETATM   16  N   UNL     1      -2.785   0.060 -31.066  1.00  0.00    -0.122 NA
ENDBRANCH   2   3
ENDBRANCH   1   2
BRANCH   1  17
HETATM   17  C   UNL     1      -3.666   4.409 -33.204  1.00  0.00     0.227 C 
HETATM   18  N   UNL     1      -3.017   5.225 -34.094  1.00  0.00    -0.360 N 
HETATM   19  H   UNL     1      -3.579   6.035 -34.332  1.00  0.00     0.162 HD
HETATM   20  O   UNL     1      -4.833   4.674 -32.910  1.00  0.00    -0.273 OA
BRANCH  18  21
HETATM   21  C   UNL     1      -1.582   5.314 -34.303  1.00  0.00     0.127 C 
BRANCH  21  22
HETATM   22  C   UNL     1      -1.052   6.730 -34.072  1.00  0.00     0.058 C 
BRANCH  22  23
HETATM   23  C   UNL     1      -1.106   7.101 -32.609  1.00  0.00    -0.054 A 
HETATM   24  C   UNL     1      -0.266   6.458 -31.686  1.00  0.00     0.046 A 
HETATM   25  C   UNL     1      -0.340   6.755 -30.320  1.00  0.00     0.102 A 
HETATM   26  C   UNL     1      -1.250   7.729 -29.867  1.00  0.00     0.101 A 
HETATM   27  C   UNL     1      -2.080   8.376 -30.789  1.00  0.00     0.040 A 
HETATM   28  C   UNL     1      -2.012   8.059 -32.150  1.00  0.00     0.010 A 
BRANCH  25  29
HETATM   29  O   UNL     1       0.440   6.159 -29.360  1.00  0.00    -0.353 OA
HETATM   30  C   UNL     1       0.842   4.815 -29.589  1.00  0.00     0.210 C 
ENDBRANCH  25  29
BRANCH  26  31
HETATM   31  O   UNL     1      -1.257   7.967 -28.516  1.00  0.00    -0.353 OA
HETATM   32  C   UNL     1      -0.877   9.261 -28.072  1.00  0.00     0.210 C 
ENDBRANCH  26  31
ENDBRANCH  22  23
ENDBRANCH  21  22
ENDBRANCH  18  21
ENDBRANCH   1  17
TORSDOF 8
ENDMDL
MODEL 4
REMARK VINA RESULT:      -8.7      1.080      1.825
REMARK  8 active torsions:
REMARK  status: ('A' for Active; 'I' for Inactive)
REMARK    1  A    between atoms: C_5  and  S_6 
REMARK    2  A    between atoms: S_6  and  C_7 
REMARK    3  A    between atoms: C_7  and  C_8 
REMARK       I    between atoms: C_8  and  N_9 
REMARK    4  A    between atoms: N_9  and  C_10 
REMARK    5  A    between atoms: C_10  and  C_11 
REMARK    6  A    between atoms: C_11  and  C_12 
REMARK    7  A    between atoms: C_14  and  O_15 
REMARK    8  A    between atoms: C_17  and  O_18 
ROOT
HETATM    1  C   UNL     1      -4.338   5.796 -33.179  1.00  0.00     0.185 C 
ENDROOT
BRANCH   1   2
HETATM    2  S   UNL     1      -5.538   4.440 -33.321  1.00  0.00    -0.080 SA
BRANCH   2   3
HETATM    3  C   UNL     1      -4.622   3.124 -32.667  1.00  0.00     0.197 A 
HETATM    4  N   UNL     1      -4.805   1.771 -32.907  1.00  0.00    -0.271 N 
HETATM    5  C   UNL     1      -3.751   1.173 -32.219  1.00  0.00     0.165 A 
HETATM    6  C   UNL     1      -5.765   1.017 -33.641  1.00  0.00     0.053 A 
HETATM    7  C   UNL     1      -3.550  -0.240 -32.267  1.00  0.00    -0.013 A 
HETATM    8  N   UNL     1      -3.052   2.089 -31.580  1.00  0.00    -0.128 NA
HETATM    9  C   UNL     1      -2.397  -0.912 -31.561  1.00  0.00     0.052 C 
HETATM   10  C   UNL     1      -4.423  -0.982 -32.975  1.00  0.00     0.024 A 
HETATM   11  C   UNL     1      -5.562  -0.378 -33.674  1.00  0.00    -0.008 A 
HETATM   12  C   UNL     1      -6.456  -1.199 -34.374  1.00  0.00     0.014 A 
HETATM   13  C   UNL     1      -7.552  -0.642 -35.031  1.00  0.00     0.001 A 
HETATM   14  C   UNL     1      -7.759   0.734 -34.988  1.00  0.00     0.002 A 
HETATM   15  C   UNL     1      -6.872   1.564 -34.295  1.00  0.00     0.031 A 
HETATM   16  N   UNL     1      -3.599   3.307 -31.860  1.00  0.00    -0.122 NA
ENDBRANCH   2   3
ENDBRANCH   1   2
BRANCH   1  17
HETATM   17  C   UNL     1      -3.488   5.861 -34.434  1.00  0.00     0.227 C 
HETATM   18  N   UNL     1      -2.265   6.479 -34.393  1.00  0.00    -0.360 N 
HETATM   19  H   UNL     1      -1.842   6.525 -35.314  1.00  0.00     0.162 HD
HETATM   20  O   UNL     1      -3.854   5.355 -35.497  1.00  0.00    -0.273 OA
BRANCH  18  21
HETATM   21  C   UNL     1      -1.802   7.421 -33.389  1.00  0.00     0.127 C 
BRANCH  21  22
HETATM   22  C   UNL     1      -0.663   6.849 -32.543  1.00  0.00     0.058 C 
BRANCH  22  23
HETATM   23  C   UNL     1      -0.907   7.078 -31.071  1.00  0.00    -0.054 A 
HETATM   24  C   UNL     1       0.175   7.152 -30.180  1.00  0.00     0.046 A 
HETATM   25  C   UNL     1      -0.036   7.314 -28.805  1.00  0.00     0.102 A 
HETATM   26  C   UNL     1      -1.350   7.431 -28.312  1.00  0.00     0.101 A 
HETATM   27  C   UNL     1      -2.426   7.367 -29.202  1.00  0.00     0.040 A 
HETATM   28  C   UNL     1      -2.206   7.187 -30.572  1.00  0.00     0.010 A 
BRANCH  25  29
HETATM   29  O   UNL     1       0.972   7.382 -27.875  1.00  0.00    -0.353 OA
HETATM   30  C   UNL     1       1.648   8.625 -27.736  1.00  0.00     0.210 C 
ENDBRANCH  25  29
BRANCH  26  31
HETATM   31  O   UNL     1      -1.472   7.594 -26.955  1.00  0.00    -0.353 OA
HETATM   32  C   UNL     1      -2.451   6.815 -26.283  1.00  0.00     0.210 C 
ENDBRANCH  26  31
ENDBRANCH  22  23
ENDBRANCH  21  22
ENDBRANCH  18  21
ENDBRANCH   1  17
TORSDOF 8
ENDMDL
MODEL 5
REMARK VINA RESULT:      -8.3      2.074      3.518
REMARK  8 active torsions:
REMARK  status: ('A' for Active; 'I' for Inactive)
REMARK    1  A    between atoms: C_5  and  S_6 
REMARK    2  A    between atoms: S_6  and  C_7 
REMARK    3  A    between atoms: C_7  and  C_8 
REMARK       I    between atoms: C_8  and  N_9 
REMARK    4  A    between atoms: N_9  and  C_10 
REMARK    5  A    between atoms: C_10  and  C_11 
REMARK    6  A    between atoms: C_11  and  C_12 
REMARK    7  A    between atoms: C_14  and  O_15 
REMARK    8  A    between atoms: C_17  and  O_18 
ROOT
HETATM    1  C   UNL     1      -3.342   3.939 -31.556  1.00  0.00     0.185 C 
ENDROOT
BRANCH   1   2
HETATM    2  S   UNL     1      -3.720   2.194 -31.890  1.00  0.00    -0.080 SA
BRANCH   2   3
HETATM    3  C   UNL     1      -5.289   2.333 -32.610  1.00  0.00     0.197 A 
HETATM    4  N   UNL     1      -6.001   1.344 -33.269  1.00  0.00    -0.271 N 
HETATM    5  C   UNL     1      -7.221   1.957 -33.555  1.00  0.00     0.165 A 
HETATM    6  C   UNL     1      -5.717  -0.001 -33.641  1.00  0.00     0.053 A 
HETATM    7  C   UNL     1      -8.275   1.235 -34.193  1.00  0.00    -0.013 A 
HETATM    8  N   UNL     1      -7.198   3.212 -33.156  1.00  0.00    -0.128 NA
HETATM    9  C   UNL     1      -9.616   1.861 -34.483  1.00  0.00     0.052 C 
HETATM   10  C   UNL     1      -8.049  -0.049 -34.534  1.00  0.00     0.024 A 
HETATM   11  C   UNL     1      -6.760  -0.701 -34.278  1.00  0.00    -0.008 A 
HETATM   12  C   UNL     1      -6.570  -2.031 -34.677  1.00  0.00     0.014 A 
HETATM   13  C   UNL     1      -5.347  -2.661 -34.456  1.00  0.00     0.001 A 
HETATM   14  C   UNL     1      -4.312  -1.965 -33.838  1.00  0.00     0.002 A 
HETATM   15  C   UNL     1      -4.491  -0.639 -33.431  1.00  0.00     0.031 A 
HETATM   16  N   UNL     1      -5.990   3.446 -32.568  1.00  0.00    -0.122 NA
ENDBRANCH   2   3
ENDBRANCH   1   2
BRANCH   1  17
HETATM   17  C   UNL     1      -2.167   4.381 -32.410  1.00  0.00     0.227 C 
HETATM   18  N   UNL     1      -1.116   5.041 -31.826  1.00  0.00    -0.360 N 
HETATM   19  H   UNL     1      -0.443   5.350 -32.519  1.00  0.00     0.162 HD
HETATM   20  O   UNL     1      -2.114   4.147 -33.618  1.00  0.00    -0.273 OA
BRANCH  18  21
HETATM   21  C   UNL     1      -1.122   5.716 -30.540  1.00  0.00     0.127 C 
BRANCH  21  22
HETATM   22  C   UNL     1       0.258   6.261 -30.170  1.00  0.00     0.058 C 
BRANCH  22  23
HETATM   23  C   UNL     1       0.221   6.993 -28.850  1.00  0.00    -0.054 A 
HETATM   24  C   UNL     1      -0.765   6.685 -27.899  1.00  0.00     0.046 A 
HETATM   25  C   UNL     1      -0.844   7.390 -26.692  1.00  0.00     0.102 A 
HETATM   26  C   UNL     1       0.094   8.404 -26.415  1.00  0.00     0.101 A 
HETATM   27  C   UNL     1       1.082   8.703 -27.358  1.00  0.00     0.040 A 
HETATM   28  C   UNL     1       1.142   8.006 -28.570  1.00  0.00     0.010 A 
BRANCH  25  29
HETATM   29  O   UNL     1      -1.787   7.153 -25.723  1.00  0.00    -0.353 OA
HETATM   30  C   UNL     1      -3.091   7.676 -25.940  1.00  0.00     0.210 C 
ENDBRANCH  25  29
BRANCH  26  31
HETATM   31  O   UNL     1      -0.047   9.042 -25.209  1.00  0.00    -0.353 OA
HETATM   32  C   UNL     1       1.110   9.636 -24.638  1.00  0.00     0.210 C 
ENDBRANCH  26  31
ENDBRANCH  22  23
ENDBRANCH  21  22
ENDBRANCH  18  21
ENDBRANCH   1  17
TORSDOF 8
ENDMDL
MODEL 6
REMARK VINA RESULT:      -8.3      3.457      8.819
REMARK  8 active torsions:
REMARK  status: ('A' for Active; 'I' for Inactive)
REMARK    1  A    between atoms: C_5  and  S_6 
REMARK    2  A    between atoms: S_6  and  C_7 
REMARK    3  A    between atoms: C_7  and  C_8 
REMARK       I    between atoms: C_8  and  N_9 
REMARK    4  A    between atoms: N_9  and  C_10 
REMARK    5  A    between atoms: C_10  and  C_11 
REMARK    6  A    between atoms: C_11  and  C_12 
REMARK    7  A    between atoms: C_14  and  O_15 
REMARK    8  A    between atoms: C_17  and  O_18 
ROOT
HETATM    1  C   UNL     1      -5.795   4.246 -30.290  1.00  0.00     0.185 C 
ENDROOT
BRANCH   1   2
HETATM    2  S   UNL     1      -5.765   6.046 -30.539  1.00  0.00    -0.080 SA
BRANCH   2   3
HETATM    3  C   UNL     1      -4.132   6.409 -30.091  1.00  0.00     0.197 A 
HETATM    4  N   UNL     1      -3.009   6.369 -30.902  1.00  0.00    -0.271 N 
HETATM    5  C   UNL     1      -1.992   6.840 -30.074  1.00  0.00     0.165 A 
HETATM    6  C   UNL     1      -2.776   5.978 -32.252  1.00  0.00     0.053 A 
HETATM    7  C   UNL     1      -0.661   7.008 -30.566  1.00  0.00    -0.013 A 
HETATM    8  N   UNL     1      -2.465   7.072 -28.866  1.00  0.00    -0.128 NA
HETATM    9  C   UNL     1       0.452   7.548 -29.703  1.00  0.00     0.052 C 
HETATM   10  C   UNL     1      -0.412   6.674 -31.847  1.00  0.00     0.024 A 
HETATM   11  C   UNL     1      -1.458   6.139 -32.724  1.00  0.00    -0.008 A 
HETATM   12  C   UNL     1      -1.138   5.783 -34.041  1.00  0.00     0.014 A 
HETATM   13  C   UNL     1      -2.117   5.259 -34.884  1.00  0.00     0.001 A 
HETATM   14  C   UNL     1      -3.416   5.089 -34.413  1.00  0.00     0.002 A 
HETATM   15  C   UNL     1      -3.749   5.444 -33.102  1.00  0.00     0.031 A 
HETATM   16  N   UNL     1      -3.802   6.800 -28.879  1.00  0.00    -0.122 NA
ENDBRANCH   2   3
ENDBRANCH   1   2
BRANCH   1  17
HETATM   17  C   UNL     1      -7.196   3.806 -29.909  1.00  0.00     0.227 C 
HETATM   18  N   UNL     1      -7.535   2.480 -29.989  1.00  0.00    -0.360 N 
HETATM   19  H   UNL     1      -8.518   2.336 -29.788  1.00  0.00     0.162 HD
HETATM   20  O   UNL     1      -8.045   4.603 -29.507  1.00  0.00    -0.273 OA
BRANCH  18  21
HETATM   21  C   UNL     1      -6.842   1.451 -30.747  1.00  0.00     0.127 C 
BRANCH  21  22
HETATM   22  C   UNL     1      -7.332   1.373 -32.193  1.00  0.00     0.058 C 
BRANCH  22  23
HETATM   23  C   UNL     1      -6.806   0.138 -32.883  1.00  0.00    -0.054 A 
HETATM   24  C   UNL     1      -5.603  -0.449 -32.460  1.00  0.00     0.046 A 
HETATM   25  C   UNL     1      -5.076  -1.564 -33.122  1.00  0.00     0.102 A 
HETATM   26  C   UNL     1      -5.773  -2.123 -34.210  1.00  0.00     0.101 A 
HETATM   27  C   UNL     1      -6.977  -1.544 -34.624  1.00  0.00     0.040 A 
HETATM   28  C   UNL     1      -7.487  -0.418 -33.968  1.00  0.00     0.010 A 
BRANCH  25  29
HETATM   29  O   UNL     1      -3.900  -2.182 -32.772  1.00  0.00    -0.353 OA
HETATM   30  C   UNL     1      -2.986  -1.441 -31.974  1.00  0.00     0.210 C 
ENDBRANCH  25  29
BRANCH  26  31
HETATM   31  O   UNL     1      -5.195  -3.218 -34.800  1.00  0.00    -0.353 OA
HETATM   32  C   UNL     1      -6.052  -4.265 -35.231  1.00  0.00     0.210 C 
ENDBRANCH  26  31
ENDBRANCH  22  23
ENDBRANCH  21  22
ENDBRANCH  18  21
ENDBRANCH   1  17
TORSDOF 8
ENDMDL
MODEL 7
REMARK VINA RESULT:      -8.1      3.153      9.574
REMARK  8 active torsions:
REMARK  status: ('A' for Active; 'I' for Inactive)
REMARK    1  A    between atoms: C_5  and  S_6 
REMARK    2  A    between atoms: S_6  and  C_7 
REMARK    3  A    between atoms: C_7  and  C_8 
REMARK       I    between atoms: C_8  and  N_9 
REMARK    4  A    between atoms: N_9  and  C_10 
REMARK    5  A    between atoms: C_10  and  C_11 
REMARK    6  A    between atoms: C_11  and  C_12 
REMARK    7  A    between atoms: C_14  and  O_15 
REMARK    8  A    between atoms: C_17  and  O_18 
ROOT
HETATM    1  C   UNL     1      -2.962   3.897 -31.690  1.00  0.00     0.185 C 
ENDROOT
BRANCH   1   2
HETATM    2  S   UNL     1      -1.834   5.136 -32.394  1.00  0.00    -0.080 SA
BRANCH   2   3
HETATM    3  C   UNL     1      -0.832   5.478 -31.024  1.00  0.00     0.197 A 
HETATM    4  N   UNL     1      -0.853   6.614 -30.231  1.00  0.00    -0.271 N 
HETATM    5  C   UNL     1       0.075   6.330 -29.230  1.00  0.00     0.165 A 
HETATM    6  C   UNL     1      -1.572   7.843 -30.278  1.00  0.00     0.053 A 
HETATM    7  C   UNL     1       0.308   7.248 -28.160  1.00  0.00    -0.013 A 
HETATM    8  N   UNL     1       0.636   5.159 -29.455  1.00  0.00    -0.128 NA
HETATM    9  C   UNL     1       1.280   6.952 -27.045  1.00  0.00     0.052 C 
HETATM   10  C   UNL     1      -0.376   8.408 -28.160  1.00  0.00     0.024 A 
HETATM   11  C   UNL     1      -1.328   8.745 -29.224  1.00  0.00    -0.008 A 
HETATM   12  C   UNL     1      -1.994   9.977 -29.188  1.00  0.00     0.014 A 
HETATM   13  C   UNL     1      -2.890  10.319 -30.199  1.00  0.00     0.001 A 
HETATM   14  C   UNL     1      -3.122   9.433 -31.247  1.00  0.00     0.002 A 
HETATM   15  C   UNL     1      -2.466   8.198 -31.292  1.00  0.00     0.031 A 
HETATM   16  N   UNL     1       0.069   4.630 -30.577  1.00  0.00    -0.122 NA
ENDBRANCH   2   3
ENDBRANCH   1   2
BRANCH   1  17
HETATM   17  C   UNL     1      -4.396   4.373 -31.829  1.00  0.00     0.227 C 
HETATM   18  N   UNL     1      -5.413   3.454 -31.871  1.00  0.00    -0.360 N 
HETATM   19  H   UNL     1      -6.307   3.900 -32.049  1.00  0.00     0.162 HD
HETATM   20  O   UNL     1      -4.684   5.569 -31.885  1.00  0.00    -0.273 OA
BRANCH  18  21
HETATM   21  C   UNL     1      -5.292   2.038 -32.171  1.00  0.00     0.127 C 
BRANCH  21  22
HETATM   22  C   UNL     1      -5.939   1.676 -33.509  1.00  0.00     0.058 C 
BRANCH  22  23
HETATM   23  C   UNL     1      -5.900   0.186 -33.750  1.00  0.00    -0.054 A 
HETATM   24  C   UNL     1      -4.764  -0.557 -33.394  1.00  0.00     0.046 A 
HETATM   25  C   UNL     1      -4.692  -1.930 -33.657  1.00  0.00     0.102 A 
HETATM   26  C   UNL     1      -5.784  -2.582 -34.263  1.00  0.00     0.101 A 
HETATM   27  C   UNL     1      -6.920  -1.842 -34.608  1.00  0.00     0.040 A 
HETATM   28  C   UNL     1      -6.975  -0.467 -34.358  1.00  0.00     0.010 A 
BRANCH  25  29
HETATM   29  O   UNL     1      -3.610  -2.718 -33.349  1.00  0.00    -0.353 OA
HETATM   30  C   UNL     1      -3.200  -2.758 -31.988  1.00  0.00     0.210 C 
ENDBRANCH  25  29
BRANCH  26  31
HETATM   31  O   UNL     1      -5.639  -3.928 -34.481  1.00  0.00    -0.353 OA
HETATM   32  C   UNL     1      -6.320  -4.494 -35.591  1.00  0.00     0.210 C 
ENDBRANCH  26  31
ENDBRANCH  22  23
ENDBRANCH  21  22
ENDBRANCH  18  21
ENDBRANCH   1  17
TORSDOF 8
ENDMDL
MODEL 8
REMARK VINA RESULT:      -8.1      3.698      6.956
REMARK  8 active torsions:
REMARK  status: ('A' for Active; 'I' for Inactive)
REMARK    1  A    between atoms: C_5  and  S_6 
REMARK    2  A    between atoms: S_6  and  C_7 
REMARK    3  A    between atoms: C_7  and  C_8 
REMARK       I    between atoms: C_8  and  N_9 
REMARK    4  A    between atoms: N_9  and  C_10 
REMARK    5  A    between atoms: C_10  and  C_11 
REMARK    6  A    between atoms: C_11  and  C_12 
REMARK    7  A    between atoms: C_14  and  O_15 
REMARK    8  A    between atoms: C_17  and  O_18 
ROOT
HETATM    1  C   UNL     1      -5.512   3.920 -30.866  1.00  0.00     0.185 C 
ENDROOT
BRANCH   1   2
HETATM    2  S   UNL     1      -4.534   3.553 -32.352  1.00  0.00    -0.080 SA
BRANCH   2   3
HETATM    3  C   UNL     1      -4.031   1.930 -32.018  1.00  0.00     0.197 A 
HETATM    4  N   UNL     1      -4.519   0.765 -32.589  1.00  0.00    -0.271 N 
HETATM    5  C   UNL     1      -3.709  -0.229 -32.042  1.00  0.00     0.165 A 
HETATM    6  C   UNL     1      -5.566   0.477 -33.511  1.00  0.00     0.053 A 
HETATM    7  C   UNL     1      -3.858  -1.595 -32.431  1.00  0.00    -0.013 A 
HETATM    8  N   UNL     1      -2.866   0.300 -31.179  1.00  0.00    -0.128 NA
HETATM    9  C   UNL     1      -2.973  -2.688 -31.883  1.00  0.00     0.052 C 
HETATM   10  C   UNL     1      -4.821  -1.900 -33.323  1.00  0.00     0.024 A 
HETATM   11  C   UNL     1      -5.710  -0.875 -33.881  1.00  0.00    -0.008 A 
HETATM   12  C   UNL     1      -6.712  -1.250 -34.786  1.00  0.00     0.014 A 
HETATM   13  C   UNL     1      -7.575  -0.292 -35.313  1.00  0.00     0.001 A 
HETATM   14  C   UNL     1      -7.440   1.042 -34.938  1.00  0.00     0.002 A 
HETATM   15  C   UNL     1      -6.441   1.430 -34.039  1.00  0.00     0.031 A 
HETATM   16  N   UNL     1      -3.070   1.649 -31.164  1.00  0.00    -0.122 NA
ENDBRANCH   2   3
ENDBRANCH   1   2
BRANCH   1  17
HETATM   17  C   UNL     1      -5.470   5.410 -30.580  1.00  0.00     0.227 C 
HETATM   18  N   UNL     1      -6.540   6.013 -29.970  1.00  0.00    -0.360 N 
HETATM   19  H   UNL     1      -6.417   7.018 -29.915  1.00  0.00     0.162 HD
HETATM   20  O   UNL     1      -4.490   6.101 -30.860  1.00  0.00    -0.273 OA
BRANCH  18  21
HETATM   21  C   UNL     1      -7.894   5.492 -29.878  1.00  0.00     0.127 C 
BRANCH  21  22
HETATM   22  C   UNL     1      -8.679   5.698 -31.174  1.00  0.00     0.058 C 
BRANCH  22  23
HETATM   23  C   UNL     1      -9.139   4.380 -31.750  1.00  0.00    -0.054 A 
HETATM   24  C   UNL     1      -9.872   4.350 -32.946  1.00  0.00     0.046 A 
HETATM   25  C   UNL     1     -10.350   3.140 -33.466  1.00  0.00     0.102 A 
HETATM   26  C   UNL     1     -10.070   1.935 -32.795  1.00  0.00     0.101 A 
HETATM   27  C   UNL     1      -9.330   1.965 -31.608  1.00  0.00     0.040 A 
HETATM   28  C   UNL     1      -8.873   3.180 -31.086  1.00  0.00     0.010 A 
BRANCH  25  29
HETATM   29  O   UNL     1     -11.083   3.036 -34.623  1.00  0.00    -0.353 OA
HETATM   30  C   UNL     1     -11.427   4.244 -35.288  1.00  0.00     0.210 C 
ENDBRANCH  25  29
BRANCH  26  31
HETATM   31  O   UNL     1     -10.566   0.793 -33.371  1.00  0.00    -0.353 OA
HETATM   32  C   UNL     1     -10.286  -0.444 -32.733  1.00  0.00     0.210 C 
ENDBRANCH  26  31
ENDBRANCH  22  23
ENDBRANCH  21  22
ENDBRANCH  18  21
ENDBRANCH   1  17
TORSDOF 8
ENDMDL
MODEL 9
REMARK VINA RESULT:      -8.0      3.129      8.788
REMARK  8 active torsions:
REMARK  status: ('A' for Active; 'I' for Inactive)
REMARK    1  A    between atoms: C_5  and  S_6 
REMARK    2  A    between atoms: S_6  and  C_7 
REMARK    3  A    between atoms: C_7  and  C_8 
REMARK       I    between atoms: C_8  and  N_9 
REMARK    4  A    between atoms: N_9  and  C_10 
REMARK    5  A    between atoms: C_10  and  C_11 
REMARK    6  A    between atoms: C_11  and  C_12 
REMARK    7  A    between atoms: C_14  and  O_15 
REMARK    8  A    between atoms: C_17  and  O_18 
ROOT
HETATM    1  C   UNL     1      -5.383   5.434 -29.114  1.00  0.00     0.185 C 
ENDROOT
BRANCH   1   2
HETATM    2  S   UNL     1      -5.461   6.995 -30.039  1.00  0.00    -0.080 SA
BRANCH   2   3
HETATM    3  C   UNL     1      -4.657   6.545 -31.505  1.00  0.00     0.197 A 
HETATM    4  N   UNL     1      -3.291   6.472 -31.725  1.00  0.00    -0.271 N 
HETATM    5  C   UNL     1      -3.196   5.973 -33.024  1.00  0.00     0.165 A 
HETATM    6  C   UNL     1      -2.143   6.784 -30.941  1.00  0.00     0.053 A 
HETATM    7  C   UNL     1      -1.926   5.694 -33.614  1.00  0.00    -0.013 A 
HETATM    8  N   UNL     1      -4.400   5.829 -33.540  1.00  0.00    -0.128 NA
HETATM    9  C   UNL     1      -1.794   5.121 -35.003  1.00  0.00     0.052 C 
HETATM   10  C   UNL     1      -0.819   5.951 -32.889  1.00  0.00     0.024 A 
HETATM   11  C   UNL     1      -0.894   6.514 -31.537  1.00  0.00    -0.008 A 
HETATM   12  C   UNL     1       0.289   6.787 -30.837  1.00  0.00     0.014 A 
HETATM   13  C   UNL     1       0.236   7.335 -29.557  1.00  0.00     0.001 A 
HETATM   14  C   UNL     1      -0.997   7.613 -28.974  1.00  0.00     0.002 A 
HETATM   15  C   UNL     1      -2.186   7.342 -29.661  1.00  0.00     0.031 A 
HETATM   16  N   UNL     1      -5.311   6.189 -32.590  1.00  0.00    -0.122 NA
ENDBRANCH   2   3
ENDBRANCH   1   2
BRANCH   1  17
HETATM   17  C   UNL     1      -6.783   4.882 -28.921  1.00  0.00     0.227 C 
HETATM   18  N   UNL     1      -7.085   3.626 -29.382  1.00  0.00    -0.360 N 
HETATM   19  H   UNL     1      -8.070   3.416 -29.264  1.00  0.00     0.162 HD
HETATM   20  O   UNL     1      -7.663   5.520 -28.341  1.00  0.00    -0.273 OA
BRANCH  18  21
HETATM   21  C   UNL     1      -6.345   2.863 -30.373  1.00  0.00     0.127 C 
BRANCH  21  22
HETATM   22  C   UNL     1      -6.091   1.425 -29.919  1.00  0.00     0.058 C 
BRANCH  22  23
HETATM   23  C   UNL     1      -5.821   0.521 -31.098  1.00  0.00    -0.054 A 
HETATM   24  C   UNL     1      -6.807   0.323 -32.077  1.00  0.00     0.046 A 
HETATM   25  C   UNL     1      -6.590  -0.552 -33.148  1.00  0.00     0.102 A 
HETATM   26  C   UNL     1      -5.358  -1.224 -33.261  1.00  0.00     0.101 A 
HETATM   27  C   UNL     1      -4.372  -1.018 -32.290  1.00  0.00     0.040 A 
HETATM   28  C   UNL     1      -4.604  -0.156 -31.213  1.00  0.00     0.010 A 
BRANCH  25  29
HETATM   29  O   UNL     1      -7.512  -0.804 -34.135  1.00  0.00    -0.353 OA
HETATM   30  C   UNL     1      -8.240   0.306 -34.645  1.00  0.00     0.210 C 
ENDBRANCH  25  29
BRANCH  26  31
HETATM   31  O   UNL     1      -5.221  -2.058 -34.342  1.00  0.00    -0.353 OA
HETATM   32  C   UNL     1      -4.408  -3.211 -34.186  1.00  0.00     0.210 C 
ENDBRANCH  26  31
ENDBRANCH  22  23
ENDBRANCH  21  22
ENDBRANCH  18  21
ENDBRANCH   1  17
TORSDOF 8
ENDMDL
MODEL 10
REMARK VINA RESULT:      -7.9      2.972      9.015
REMARK  8 active torsions:
REMARK  status: ('A' for Active; 'I' for Inactive)
REMARK    1  A    between atoms: C_5  and  S_6 
REMARK    2  A    between atoms: S_6  and  C_7 
REMARK    3  A    between atoms: C_7  and  C_8 
REMARK       I    between atoms: C_8  and  N_9 
REMARK    4  A    between atoms: N_9  and  C_10 
REMARK    5  A    between atoms: C_10  and  C_11 
REMARK    6  A    between atoms: C_11  and  C_12 
REMARK    7  A    between atoms: C_14  and  O_15 
REMARK    8  A    between atoms: C_17  and  O_18 
ROOT
HETATM    1  C   UNL     1      -5.365   2.727 -32.397  1.00  0.00     0.185 C 
ENDROOT
BRANCH   1   2
HETATM    2  S   UNL     1      -5.331   4.147 -31.264  1.00  0.00    -0.080 SA
BRANCH   2   3
HETATM    3  C   UNL     1      -3.675   4.635 -31.403  1.00  0.00     0.197 A 
HETATM    4  N   UNL     1      -3.085   5.767 -30.866  1.00  0.00    -0.271 N 
HETATM    5  C   UNL     1      -1.738   5.619 -31.194  1.00  0.00     0.165 A 
HETATM    6  C   UNL     1      -3.575   6.890 -30.138  1.00  0.00     0.053 A 
HETATM    7  C   UNL     1      -0.766   6.572 -30.760  1.00  0.00    -0.013 A 
HETATM    8  N   UNL     1      -1.567   4.530 -31.915  1.00  0.00    -0.128 NA
HETATM    9  C   UNL     1       0.702   6.419 -31.070  1.00  0.00     0.052 C 
HETATM   10  C   UNL     1      -1.192   7.632 -30.046  1.00  0.00     0.024 A 
HETATM   11  C   UNL     1      -2.609   7.828 -29.723  1.00  0.00    -0.008 A 
HETATM   12  C   UNL     1      -3.001   8.962 -29.000  1.00  0.00     0.014 A 
HETATM   13  C   UNL     1      -4.345   9.172 -28.698  1.00  0.00     0.001 A 
HETATM   14  C   UNL     1      -5.300   8.251 -29.119  1.00  0.00     0.002 A 
HETATM   15  C   UNL     1      -4.922   7.113 -29.839  1.00  0.00     0.031 A 
HETATM   16  N   UNL     1      -2.779   3.917 -32.046  1.00  0.00    -0.122 NA
ENDBRANCH   2   3
ENDBRANCH   1   2
BRANCH   1  17
HETATM   17  C   UNL     1      -6.238   3.050 -33.596  1.00  0.00     0.227 C 
HETATM   18  N   UNL     1      -7.367   2.308 -33.831  1.00  0.00    -0.360 N 
HETATM   19  H   UNL     1      -7.809   2.574 -34.705  1.00  0.00     0.162 HD
HETATM   20  O   UNL     1      -5.977   3.979 -34.362  1.00  0.00    -0.273 OA
BRANCH  18  21
HETATM   21  C   UNL     1      -7.669   0.993 -33.293  1.00  0.00     0.127 C 
BRANCH  21  22
HETATM   22  C   UNL     1      -7.782  -0.066 -34.391  1.00  0.00     0.058 C 
BRANCH  22  23
HETATM   23  C   UNL     1      -6.689  -1.100 -34.268  1.00  0.00    -0.054 A 
HETATM   24  C   UNL     1      -5.546  -0.831 -33.499  1.00  0.00     0.046 A 
HETATM   25  C   UNL     1      -4.500  -1.758 -33.417  1.00  0.00     0.102 A 
HETATM   26  C   UNL     1      -4.606  -2.989 -34.093  1.00  0.00     0.101 A 
HETATM   27  C   UNL     1      -5.750  -3.260 -34.851  1.00  0.00     0.040 A 
HETATM   28  C   UNL     1      -6.782  -2.319 -34.942  1.00  0.00     0.010 A 
BRANCH  25  29
HETATM   29  O   UNL     1      -3.349  -1.559 -32.695  1.00  0.00    -0.353 OA
HETATM   30  C   UNL     1      -3.438  -0.730 -31.544  1.00  0.00     0.210 C 
ENDBRANCH  25  29
BRANCH  26  31
HETATM   31  O   UNL     1      -3.544  -3.846 -33.958  1.00  0.00    -0.353 OA
HETATM   32  C   UNL     1      -3.793  -5.119 -33.381  1.00  0.00     0.210 C 
ENDBRANCH  26  31
ENDBRANCH  22  23
ENDBRANCH  21  22
ENDBRANCH  18  21
ENDBRANCH   1  17
TORSDOF 8
ENDMDL
