MODEL 1
REMARK VINA RESULT:      -9.5      0.000      0.000
REMARK  4 active torsions:
REMARK  status: ('A' for Active; 'I' for Inactive)
REMARK    1  A    between atoms: O_2  and  C_3 
REMARK    2  A    between atoms: C_4  and  C_5 
REMARK    3  A    between atoms: C_9  and  C_10 
REMARK       I    between atoms: C_10  and  N_11 
REMARK    4  A    between atoms: N_11  and  N_12 
ROOT
HETATM    1  C   UNL     1      -8.923   1.636 -33.502  1.00  0.00     0.289 C 
HETATM    2  N   UNL     1      -9.664   2.299 -34.471  1.00  0.00    -0.241 N 
HETATM    3  O   UNL     1      -8.971   1.871 -32.300  1.00  0.00    -0.264 OA
HETATM    4  H   UNL     1      -9.401   2.180 -35.438  1.00  0.00     0.192 HD
ENDROOT
BRANCH   1   5
HETATM    5  C   UNL     1      -8.063   0.607 -34.032  1.00  0.00     0.121 A 
HETATM    6  N   UNL     1      -7.486   0.714 -35.267  1.00  0.00    -0.272 N 
HETATM    7  N   UNL     1      -6.711  -0.328 -35.603  1.00  0.00    -0.174 NA
HETATM    8  H   UNL     1      -7.592   1.483 -35.923  1.00  0.00     0.189 HD
HETATM    9  C   UNL     1      -6.757  -1.142 -34.542  1.00  0.00     0.092 A 
HETATM   10  C   UNL     1      -7.604  -0.598 -33.537  1.00  0.00     0.071 A 
BRANCH   9  11
HETATM   11  C   UNL     1      -6.035  -2.414 -34.476  1.00  0.00     0.028 A 
HETATM   12  C   UNL     1      -4.717  -2.539 -34.005  1.00  0.00     0.080 A 
HETATM   13  C   UNL     1      -4.082  -3.786 -34.006  1.00  0.00     0.037 A 
HETATM   14  C   UNL     1      -4.760  -4.929 -34.430  1.00  0.00     0.003 A 
HETATM   15  C   UNL     1      -6.073  -4.825 -34.875  1.00  0.00     0.001 A 
HETATM   16  C   UNL     1      -6.703  -3.579 -34.904  1.00  0.00     0.017 A 
BRANCH  12  17
HETATM   17  O   UNL     1      -3.940  -1.500 -33.561  1.00  0.00    -0.355 OA
HETATM   18  C   UNL     1      -3.795  -1.484 -32.143  1.00  0.00     0.210 C 
ENDBRANCH  12  17
ENDBRANCH   9  11
ENDBRANCH   1   5
BRANCH   2  19
HETATM   19  N   UNL     1     -10.430   3.378 -34.149  1.00  0.00    -0.165 NA
HETATM   20  C   UNL     1     -11.695   3.203 -33.926  1.00  0.00     0.157 A 
HETATM   21  C   UNL     1     -12.651   4.404 -33.760  1.00  0.00     0.277 A 
HETATM   22  C   UNL     1     -12.542   2.005 -33.808  1.00  0.00     0.027 A 
HETATM   23  O   UNL     1     -12.349   5.575 -33.737  1.00  0.00    -0.266 OA
HETATM   24  N   UNL     1     -13.910   3.856 -33.670  1.00  0.00    -0.321 N 
HETATM   25  C   UNL     1     -13.855   2.468 -33.689  1.00  0.00     0.048 A 
HETATM   26  H   UNL     1     -14.739   4.420 -33.554  1.00  0.00     0.169 HD
HETATM   27  C   UNL     1     -14.927   1.608 -33.568  1.00  0.00     0.030 A 
HETATM   28  C   UNL     1     -14.656   0.238 -33.550  1.00  0.00     0.002 A 
HETATM   29  C   UNL     1     -13.335  -0.236 -33.629  1.00  0.00     0.001 A 
HETATM   30  C   UNL     1     -12.259   0.652 -33.747  1.00  0.00     0.016 A 
ENDBRANCH   2  19
TORSDOF 4
ENDMDL
MODEL 2
REMARK VINA RESULT:      -9.2      1.744      8.513
REMARK  4 active torsions:
REMARK  status: ('A' for Active; 'I' for Inactive)
REMARK    1  A    between atoms: O_2  and  C_3 
REMARK    2  A    between atoms: C_4  and  C_5 
REMARK    3  A    between atoms: C_9  and  C_10 
REMARK       I    between atoms: C_10  and  N_11 
REMARK    4  A    between atoms: N_11  and  N_12 
ROOT
HETATM    1  C   UNL     1      -7.183   0.321 -32.239  1.00  0.00     0.289 C 
HETATM    2  N   UNL     1      -6.120   0.344 -33.131  1.00  0.00    -0.241 N 
HETATM    3  O   UNL     1      -7.098   0.015 -31.054  1.00  0.00    -0.264 OA
HETATM    4  H   UNL     1      -6.326   0.402 -34.118  1.00  0.00     0.192 HD
ENDROOT
BRANCH   1   5
HETATM    5  C   UNL     1      -8.444   0.704 -32.826  1.00  0.00     0.121 A 
HETATM    6  N   UNL     1      -8.511   1.372 -34.017  1.00  0.00    -0.272 N 
HETATM    7  N   UNL     1      -9.760   1.647 -34.422  1.00  0.00    -0.174 NA
HETATM    8  H   UNL     1      -7.728   1.667 -34.594  1.00  0.00     0.189 HD
HETATM    9  C   UNL     1     -10.548   1.119 -33.479  1.00  0.00     0.092 A 
HETATM   10  C   UNL     1      -9.761   0.527 -32.451  1.00  0.00     0.071 A 
BRANCH   9  11
HETATM   11  C   UNL     1     -12.009   1.182 -33.527  1.00  0.00     0.028 A 
HETATM   12  C   UNL     1     -12.741   2.379 -33.439  1.00  0.00     0.080 A 
HETATM   13  C   UNL     1     -14.141   2.354 -33.457  1.00  0.00     0.037 A 
HETATM   14  C   UNL     1     -14.828   1.149 -33.609  1.00  0.00     0.003 A 
HETATM   15  C   UNL     1     -14.117  -0.040 -33.722  1.00  0.00     0.001 A 
HETATM   16  C   UNL     1     -12.721  -0.026 -33.676  1.00  0.00     0.017 A 
BRANCH  12  17
HETATM   17  O   UNL     1     -12.193   3.626 -33.288  1.00  0.00    -0.355 OA
HETATM   18  C   UNL     1     -12.375   4.454 -34.435  1.00  0.00     0.210 C 
ENDBRANCH  12  17
ENDBRANCH   9  11
ENDBRANCH   1   5
BRANCH   2  19
HETATM   19  N   UNL     1      -4.890  -0.109 -32.765  1.00  0.00    -0.165 NA
HETATM   20  C   UNL     1      -4.566  -1.333 -33.040  1.00  0.00     0.157 A 
HETATM   21  C   UNL     1      -3.277  -1.966 -32.475  1.00  0.00     0.277 A 
HETATM   22  C   UNL     1      -5.216  -2.396 -33.825  1.00  0.00     0.027 A 
HETATM   23  O   UNL     1      -2.425  -1.414 -31.818  1.00  0.00    -0.266 OA
HETATM   24  N   UNL     1      -3.322  -3.288 -32.858  1.00  0.00    -0.321 N 
HETATM   25  C   UNL     1      -4.437  -3.542 -33.646  1.00  0.00     0.048 A 
HETATM   26  H   UNL     1      -2.594  -3.946 -32.621  1.00  0.00     0.169 HD
HETATM   27  C   UNL     1      -4.760  -4.747 -34.236  1.00  0.00     0.030 A 
HETATM   28  C   UNL     1      -5.898  -4.785 -35.045  1.00  0.00     0.002 A 
HETATM   29  C   UNL     1      -6.665  -3.628 -35.263  1.00  0.00     0.001 A 
HETATM   30  C   UNL     1      -6.319  -2.412 -34.659  1.00  0.00     0.016 A 
ENDBRANCH   2  19
TORSDOF 4
ENDMDL
MODEL 3
REMARK VINA RESULT:      -8.9      5.540      7.724
REMARK  4 active torsions:
REMARK  status: ('A' for Active; 'I' for Inactive)
REMARK    1  A    between atoms: O_2  and  C_3 
REMARK    2  A    between atoms: C_4  and  C_5 
REMARK    3  A    between atoms: C_9  and  C_10 
REMARK       I    between atoms: C_10  and  N_11 
REMARK    4  A    between atoms: N_11  and  N_12 
ROOT
HETATM    1  C   UNL     1      -5.819   3.499 -31.621  1.00  0.00     0.289 C 
HETATM    2  N   UNL     1      -4.656   3.834 -30.939  1.00  0.00    -0.241 N 
HETATM    3  O   UNL     1      -6.672   4.300 -31.988  1.00  0.00    -0.264 OA
HETATM    4  H   UNL     1      -4.130   3.092 -30.501  1.00  0.00     0.192 HD
ENDROOT
BRANCH   1   5
HETATM    5  C   UNL     1      -5.954   2.087 -31.882  1.00  0.00     0.121 A 
HETATM    6  N   UNL     1      -6.612   1.254 -31.021  1.00  0.00    -0.272 N 
HETATM    7  N   UNL     1      -6.650  -0.027 -31.417  1.00  0.00    -0.174 NA
HETATM    8  H   UNL     1      -7.054   1.513 -30.142  1.00  0.00     0.189 HD
HETATM    9  C   UNL     1      -6.016  -0.038 -32.596  1.00  0.00     0.092 A 
HETATM   10  C   UNL     1      -5.553   1.268 -32.920  1.00  0.00     0.071 A 
BRANCH   9  11
HETATM   11  C   UNL     1      -5.832  -1.249 -33.396  1.00  0.00     0.028 A 
HETATM   12  C   UNL     1      -4.593  -1.889 -33.567  1.00  0.00     0.080 A 
HETATM   13  C   UNL     1      -4.491  -3.026 -34.378  1.00  0.00     0.037 A 
HETATM   14  C   UNL     1      -5.622  -3.565 -34.990  1.00  0.00     0.003 A 
HETATM   15  C   UNL     1      -6.859  -2.957 -34.810  1.00  0.00     0.001 A 
HETATM   16  C   UNL     1      -6.963  -1.806 -34.026  1.00  0.00     0.017 A 
BRANCH  12  17
HETATM   17  O   UNL     1      -3.408  -1.465 -33.023  1.00  0.00    -0.355 OA
HETATM   18  C   UNL     1      -3.033  -2.207 -31.865  1.00  0.00     0.210 C 
ENDBRANCH  12  17
ENDBRANCH   9  11
ENDBRANCH   1   5
BRANCH   2  19
HETATM   19  N   UNL     1      -4.440   5.107 -30.509  1.00  0.00    -0.165 NA
HETATM   20  C   UNL     1      -3.588   5.846 -31.146  1.00  0.00     0.157 A 
HETATM   21  C   UNL     1      -3.147   7.217 -30.591  1.00  0.00     0.277 A 
HETATM   22  C   UNL     1      -2.830   5.664 -32.395  1.00  0.00     0.027 A 
HETATM   23  O   UNL     1      -3.572   7.772 -29.605  1.00  0.00    -0.266 OA
HETATM   24  N   UNL     1      -2.157   7.653 -31.443  1.00  0.00    -0.321 N 
HETATM   25  C   UNL     1      -1.974   6.764 -32.494  1.00  0.00     0.048 A 
HETATM   26  H   UNL     1      -1.684   8.536 -31.318  1.00  0.00     0.169 HD
HETATM   27  C   UNL     1      -1.098   6.918 -33.549  1.00  0.00     0.030 A 
HETATM   28  C   UNL     1      -1.105   5.936 -34.543  1.00  0.00     0.002 A 
HETATM   29  C   UNL     1      -1.991   4.847 -34.472  1.00  0.00     0.001 A 
HETATM   30  C   UNL     1      -2.876   4.709 -33.395  1.00  0.00     0.016 A 
ENDBRANCH   2  19
TORSDOF 4
ENDMDL
MODEL 4
REMARK VINA RESULT:      -8.8      0.937      1.821
REMARK  4 active torsions:
REMARK  status: ('A' for Active; 'I' for Inactive)
REMARK    1  A    between atoms: O_2  and  C_3 
REMARK    2  A    between atoms: C_4  and  C_5 
REMARK    3  A    between atoms: C_9  and  C_10 
REMARK       I    between atoms: C_10  and  N_11 
REMARK    4  A    between atoms: N_11  and  N_12 
ROOT
HETATM    1  C   UNL     1      -8.624   1.832 -32.839  1.00  0.00     0.289 C 
HETATM    2  N   UNL     1      -9.365   2.373 -33.881  1.00  0.00    -0.241 N 
HETATM    3  O   UNL     1      -8.763   2.121 -31.655  1.00  0.00    -0.264 OA
HETATM    4  H   UNL     1      -9.036   2.231 -34.824  1.00  0.00     0.192 HD
ENDROOT
BRANCH   1   5
HETATM    5  C   UNL     1      -7.643   0.863 -33.264  1.00  0.00     0.121 A 
HETATM    6  N   UNL     1      -7.279   0.735 -34.576  1.00  0.00    -0.272 N 
HETATM    7  N   UNL     1      -6.351  -0.209 -34.797  1.00  0.00    -0.174 NA
HETATM    8  H   UNL     1      -7.637   1.270 -35.362  1.00  0.00     0.189 HD
HETATM    9  C   UNL     1      -6.074  -0.705 -33.586  1.00  0.00     0.092 A 
HETATM   10  C   UNL     1      -6.872  -0.067 -32.596  1.00  0.00     0.071 A 
BRANCH   9  11
HETATM   11  C   UNL     1      -5.094  -1.768 -33.360  1.00  0.00     0.028 A 
HETATM   12  C   UNL     1      -4.987  -2.914 -34.167  1.00  0.00     0.080 A 
HETATM   13  C   UNL     1      -4.046  -3.905 -33.865  1.00  0.00     0.037 A 
HETATM   14  C   UNL     1      -3.170  -3.750 -32.790  1.00  0.00     0.003 A 
HETATM   15  C   UNL     1      -3.248  -2.610 -31.998  1.00  0.00     0.001 A 
HETATM   16  C   UNL     1      -4.204  -1.631 -32.276  1.00  0.00     0.017 A 
BRANCH  12  17
HETATM   17  O   UNL     1      -5.781  -3.189 -35.250  1.00  0.00    -0.355 OA
HETATM   18  C   UNL     1      -6.706  -4.245 -35.004  1.00  0.00     0.210 C 
ENDBRANCH  12  17
ENDBRANCH   9  11
ENDBRANCH   1   5
BRANCH   2  19
HETATM   19  N   UNL     1     -10.244   3.388 -33.660  1.00  0.00    -0.165 NA
HETATM   20  C   UNL     1     -11.513   3.125 -33.641  1.00  0.00     0.157 A 
HETATM   21  C   UNL     1     -12.563   4.255 -33.602  1.00  0.00     0.277 A 
HETATM   22  C   UNL     1     -12.283   1.872 -33.682  1.00  0.00     0.027 A 
HETATM   23  O   UNL     1     -12.350   5.442 -33.507  1.00  0.00    -0.266 OA
HETATM   24  N   UNL     1     -13.781   3.624 -33.721  1.00  0.00    -0.321 N 
HETATM   25  C   UNL     1     -13.628   2.244 -33.760  1.00  0.00     0.048 A 
HETATM   26  H   UNL     1     -14.655   4.129 -33.724  1.00  0.00     0.169 HD
HETATM   27  C   UNL     1     -14.644   1.313 -33.827  1.00  0.00     0.030 A 
HETATM   28  C   UNL     1     -14.285  -0.037 -33.795  1.00  0.00     0.002 A 
HETATM   29  C   UNL     1     -12.938  -0.421 -33.676  1.00  0.00     0.001 A 
HETATM   30  C   UNL     1     -11.920   0.538 -33.606  1.00  0.00     0.016 A 
ENDBRANCH   2  19
TORSDOF 4
ENDMDL
MODEL 5
REMARK VINA RESULT:      -8.6      5.667      7.840
REMARK  4 active torsions:
REMARK  status: ('A' for Active; 'I' for Inactive)
REMARK    1  A    between atoms: O_2  and  C_3 
REMARK    2  A    between atoms: C_4  and  C_5 
REMARK    3  A    between atoms: C_9  and  C_10 
REMARK       I    between atoms: C_10  and  N_11 
REMARK    4  A    between atoms: N_11  and  N_12 
ROOT
HETATM    1  C   UNL     1      -5.780   3.703 -30.409  1.00  0.00     0.289 C 
HETATM    2  N   UNL     1      -5.480   4.595 -31.430  1.00  0.00    -0.241 N 
HETATM    3  O   UNL     1      -5.956   4.013 -29.236  1.00  0.00    -0.264 OA
HETATM    4  H   UNL     1      -5.148   4.223 -32.307  1.00  0.00     0.192 HD
ENDROOT
BRANCH   1   5
HETATM    5  C   UNL     1      -5.877   2.331 -30.845  1.00  0.00     0.121 A 
HETATM    6  N   UNL     1      -6.307   1.338 -30.010  1.00  0.00    -0.272 N 
HETATM    7  N   UNL     1      -6.343   0.122 -30.576  1.00  0.00    -0.174 NA
HETATM    8  H   UNL     1      -6.588   1.440 -29.038  1.00  0.00     0.189 HD
HETATM    9  C   UNL     1      -5.947   0.323 -31.838  1.00  0.00     0.092 A 
HETATM   10  C   UNL     1      -5.633   1.695 -32.046  1.00  0.00     0.071 A 
BRANCH   9  11
HETATM   11  C   UNL     1      -5.846  -0.751 -32.827  1.00  0.00     0.028 A 
HETATM   12  C   UNL     1      -6.901  -1.132 -33.674  1.00  0.00     0.080 A 
HETATM   13  C   UNL     1      -6.739  -2.195 -34.571  1.00  0.00     0.037 A 
HETATM   14  C   UNL     1      -5.517  -2.860 -34.669  1.00  0.00     0.003 A 
HETATM   15  C   UNL     1      -4.457  -2.480 -33.855  1.00  0.00     0.001 A 
HETATM   16  C   UNL     1      -4.621  -1.439 -32.937  1.00  0.00     0.017 A 
BRANCH  12  17
HETATM   17  O   UNL     1      -8.148  -0.562 -33.681  1.00  0.00    -0.355 OA
HETATM   18  C   UNL     1      -8.327   0.368 -34.746  1.00  0.00     0.210 C 
ENDBRANCH  12  17
ENDBRANCH   9  11
ENDBRANCH   1   5
BRANCH   2  19
HETATM   19  N   UNL     1      -5.232   5.906 -31.162  1.00  0.00    -0.165 NA
HETATM   20  C   UNL     1      -4.212   6.477 -31.722  1.00  0.00     0.157 A 
HETATM   21  C   UNL     1      -3.759   7.893 -31.304  1.00  0.00     0.277 A 
HETATM   22  C   UNL     1      -3.256   6.046 -32.754  1.00  0.00     0.027 A 
HETATM   23  O   UNL     1      -4.308   8.628 -30.517  1.00  0.00    -0.266 OA
HETATM   24  N   UNL     1      -2.593   8.121 -31.999  1.00  0.00    -0.321 N 
HETATM   25  C   UNL     1      -2.299   7.060 -32.846  1.00  0.00     0.048 A 
HETATM   26  H   UNL     1      -2.073   8.982 -31.917  1.00  0.00     0.169 HD
HETATM   27  C   UNL     1      -1.232   6.985 -33.718  1.00  0.00     0.030 A 
HETATM   28  C   UNL     1      -1.144   5.854 -34.533  1.00  0.00     0.002 A 
HETATM   29  C   UNL     1      -2.123   4.847 -34.476  1.00  0.00     0.001 A 
HETATM   30  C   UNL     1      -3.201   4.942 -33.588  1.00  0.00     0.016 A 
ENDBRANCH   2  19
TORSDOF 4
ENDMDL
MODEL 6
REMARK VINA RESULT:      -8.4      6.368      8.777
REMARK  4 active torsions:
REMARK  status: ('A' for Active; 'I' for Inactive)
REMARK    1  A    between atoms: O_2  and  C_3 
REMARK    2  A    between atoms: C_4  and  C_5 
REMARK    3  A    between atoms: C_9  and  C_10 
REMARK       I    between atoms: C_10  and  N_11 
REMARK    4  A    between atoms: N_11  and  N_12 
ROOT
HETATM    1  C   UNL     1      -5.943   4.223 -29.650  1.00  0.00     0.289 C 
HETATM    2  N   UNL     1      -4.826   4.948 -30.042  1.00  0.00    -0.241 N 
HETATM    3  O   UNL     1      -6.841   4.650 -28.932  1.00  0.00    -0.264 OA
HETATM    4  H   UNL     1      -4.052   4.448 -30.451  1.00  0.00     0.192 HD
ENDROOT
BRANCH   1   5
HETATM    5  C   UNL     1      -5.976   2.878 -30.172  1.00  0.00     0.121 A 
HETATM    6  N   UNL     1      -6.209   1.798 -29.367  1.00  0.00    -0.272 N 
HETATM    7  N   UNL     1      -6.211   0.622 -30.014  1.00  0.00    -0.174 NA
HETATM    8  H   UNL     1      -6.372   1.811 -28.364  1.00  0.00     0.189 HD
HETATM    9  C   UNL     1      -5.997   0.939 -31.297  1.00  0.00     0.092 A 
HETATM   10  C   UNL     1      -5.832   2.345 -31.438  1.00  0.00     0.071 A 
BRANCH   9  11
HETATM   11  C   UNL     1      -5.931  -0.056 -32.367  1.00  0.00     0.028 A 
HETATM   12  C   UNL     1      -4.854  -0.942 -32.542  1.00  0.00     0.080 A 
HETATM   13  C   UNL     1      -4.847  -1.843 -33.614  1.00  0.00     0.037 A 
HETATM   14  C   UNL     1      -5.927  -1.907 -34.495  1.00  0.00     0.003 A 
HETATM   15  C   UNL     1      -7.010  -1.053 -34.321  1.00  0.00     0.001 A 
HETATM   16  C   UNL     1      -7.010  -0.132 -33.271  1.00  0.00     0.017 A 
BRANCH  12  17
HETATM   17  O   UNL     1      -3.736  -0.986 -31.750  1.00  0.00    -0.355 OA
HETATM   18  C   UNL     1      -3.006  -2.202 -31.888  1.00  0.00     0.210 C 
ENDBRANCH  12  17
ENDBRANCH   9  11
ENDBRANCH   1   5
BRANCH   2  19
HETATM   19  N   UNL     1      -4.585   6.188 -29.535  1.00  0.00    -0.165 NA
HETATM   20  C   UNL     1      -3.396   6.691 -29.650  1.00  0.00     0.157 A 
HETATM   21  C   UNL     1      -3.005   7.994 -28.922  1.00  0.00     0.277 A 
HETATM   22  C   UNL     1      -2.183   6.258 -30.362  1.00  0.00     0.027 A 
HETATM   23  O   UNL     1      -3.730   8.705 -28.265  1.00  0.00    -0.266 OA
HETATM   24  N   UNL     1      -1.659   8.155 -29.162  1.00  0.00    -0.321 N 
HETATM   25  C   UNL     1      -1.178   7.158 -30.001  1.00  0.00     0.048 A 
HETATM   26  H   UNL     1      -1.133   8.937 -28.800  1.00  0.00     0.169 HD
HETATM   27  C   UNL     1       0.112   7.048 -30.480  1.00  0.00     0.030 A 
HETATM   28  C   UNL     1       0.384   6.003 -31.366  1.00  0.00     0.002 A 
HETATM   29  C   UNL     1      -0.630   5.116 -31.766  1.00  0.00     0.001 A 
HETATM   30  C   UNL     1      -1.934   5.245 -31.273  1.00  0.00     0.016 A 
ENDBRANCH   2  19
TORSDOF 4
ENDMDL
MODEL 7
REMARK VINA RESULT:      -8.3      2.995      4.480
REMARK  4 active torsions:
REMARK  status: ('A' for Active; 'I' for Inactive)
REMARK    1  A    between atoms: O_2  and  C_3 
REMARK    2  A    between atoms: C_4  and  C_5 
REMARK    3  A    between atoms: C_9  and  C_10 
REMARK       I    between atoms: C_10  and  N_11 
REMARK    4  A    between atoms: N_11  and  N_12 
ROOT
HETATM    1  C   UNL     1      -9.421   1.434 -33.767  1.00  0.00     0.289 C 
HETATM    2  N   UNL     1      -8.920   2.410 -32.916  1.00  0.00    -0.241 N 
HETATM    3  O   UNL     1     -10.588   1.354 -34.134  1.00  0.00    -0.264 OA
HETATM    4  H   UNL     1      -8.007   2.268 -32.511  1.00  0.00     0.192 HD
ENDROOT
BRANCH   1   5
HETATM    5  C   UNL     1      -8.429   0.486 -34.211  1.00  0.00     0.121 A 
HETATM    6  N   UNL     1      -7.697   0.687 -35.349  1.00  0.00    -0.272 N 
HETATM    7  N   UNL     1      -6.816  -0.290 -35.614  1.00  0.00    -0.174 NA
HETATM    8  H   UNL     1      -7.764   1.478 -35.983  1.00  0.00     0.189 HD
HETATM    9  C   UNL     1      -6.950  -1.154 -34.602  1.00  0.00     0.092 A 
HETATM   10  C   UNL     1      -7.962  -0.711 -33.704  1.00  0.00     0.071 A 
BRANCH   9  11
HETATM   11  C   UNL     1      -6.161  -2.381 -34.485  1.00  0.00     0.028 A 
HETATM   12  C   UNL     1      -4.831  -2.411 -34.031  1.00  0.00     0.080 A 
HETATM   13  C   UNL     1      -4.130  -3.622 -33.981  1.00  0.00     0.037 A 
HETATM   14  C   UNL     1      -4.752  -4.819 -34.335  1.00  0.00     0.003 A 
HETATM   15  C   UNL     1      -6.075  -4.808 -34.763  1.00  0.00     0.001 A 
HETATM   16  C   UNL     1      -6.771  -3.600 -34.843  1.00  0.00     0.017 A 
BRANCH  12  17
HETATM   17  O   UNL     1      -4.105  -1.312 -33.652  1.00  0.00    -0.355 OA
HETATM   18  C   UNL     1      -4.010  -1.172 -32.237  1.00  0.00     0.210 C 
ENDBRANCH  12  17
ENDBRANCH   9  11
ENDBRANCH   1   5
BRANCH   2  19
HETATM   19  N   UNL     1      -9.751   3.304 -32.313  1.00  0.00    -0.165 NA
HETATM   20  C   UNL     1      -9.291   4.027 -31.340  1.00  0.00     0.157 A 
HETATM   21  C   UNL     1     -10.229   4.904 -30.484  1.00  0.00     0.277 A 
HETATM   22  C   UNL     1      -7.947   4.213 -30.769  1.00  0.00     0.027 A 
HETATM   23  O   UNL     1     -11.414   5.080 -30.652  1.00  0.00    -0.266 OA
HETATM   24  N   UNL     1      -9.435   5.418 -29.484  1.00  0.00    -0.321 N 
HETATM   25  C   UNL     1      -8.111   5.029 -29.647  1.00  0.00     0.048 A 
HETATM   26  H   UNL     1      -9.792   6.036 -28.771  1.00  0.00     0.169 HD
HETATM   27  C   UNL     1      -7.047   5.405 -28.852  1.00  0.00     0.030 A 
HETATM   28  C   UNL     1      -5.777   4.954 -29.219  1.00  0.00     0.002 A 
HETATM   29  C   UNL     1      -5.597   4.166 -30.370  1.00  0.00     0.001 A 
HETATM   30  C   UNL     1      -6.688   3.797 -31.166  1.00  0.00     0.016 A 
ENDBRANCH   2  19
TORSDOF 4
ENDMDL
MODEL 8
REMARK VINA RESULT:      -8.2      2.028      2.233
REMARK  4 active torsions:
REMARK  status: ('A' for Active; 'I' for Inactive)
REMARK    1  A    between atoms: O_2  and  C_3 
REMARK    2  A    between atoms: C_4  and  C_5 
REMARK    3  A    between atoms: C_9  and  C_10 
REMARK       I    between atoms: C_10  and  N_11 
REMARK    4  A    between atoms: N_11  and  N_12 
ROOT
HETATM    1  C   UNL     1      -7.534   2.496 -32.043  1.00  0.00     0.289 C 
HETATM    2  N   UNL     1      -8.721   2.137 -31.418  1.00  0.00    -0.241 N 
HETATM    3  O   UNL     1      -7.129   3.646 -32.171  1.00  0.00    -0.264 OA
HETATM    4  H   UNL     1      -9.064   1.197 -31.549  1.00  0.00     0.192 HD
ENDROOT
BRANCH   1   5
HETATM    5  C   UNL     1      -6.780   1.374 -32.546  1.00  0.00     0.121 A 
HETATM    6  N   UNL     1      -5.418   1.417 -32.666  1.00  0.00    -0.272 N 
HETATM    7  N   UNL     1      -4.874   0.288 -33.145  1.00  0.00    -0.174 NA
HETATM    8  H   UNL     1      -4.811   2.199 -32.436  1.00  0.00     0.189 HD
HETATM    9  C   UNL     1      -5.910  -0.540 -33.323  1.00  0.00     0.092 A 
HETATM   10  C   UNL     1      -7.127   0.106 -32.970  1.00  0.00     0.071 A 
BRANCH   9  11
HETATM   11  C   UNL     1      -5.766  -1.905 -33.831  1.00  0.00     0.028 A 
HETATM   12  C   UNL     1      -4.599  -2.673 -33.682  1.00  0.00     0.080 A 
HETATM   13  C   UNL     1      -4.526  -3.961 -34.228  1.00  0.00     0.037 A 
HETATM   14  C   UNL     1      -5.624  -4.517 -34.885  1.00  0.00     0.003 A 
HETATM   15  C   UNL     1      -6.794  -3.778 -35.018  1.00  0.00     0.001 A 
HETATM   16  C   UNL     1      -6.863  -2.482 -34.502  1.00  0.00     0.017 A 
BRANCH  12  17
HETATM   17  O   UNL     1      -3.453  -2.249 -33.060  1.00  0.00    -0.355 OA
HETATM   18  C   UNL     1      -3.100  -3.056 -31.939  1.00  0.00     0.210 C 
ENDBRANCH  12  17
ENDBRANCH   9  11
ENDBRANCH   1   5
BRANCH   2  19
HETATM   19  N   UNL     1      -9.605   3.084 -31.000  1.00  0.00    -0.165 NA
HETATM   20  C   UNL     1     -10.628   3.358 -31.748  1.00  0.00     0.157 A 
HETATM   21  C   UNL     1     -11.549   4.557 -31.434  1.00  0.00     0.277 A 
HETATM   22  C   UNL     1     -11.169   2.756 -32.977  1.00  0.00     0.027 A 
HETATM   23  O   UNL     1     -11.486   5.289 -30.474  1.00  0.00    -0.266 OA
HETATM   24  N   UNL     1     -12.432   4.622 -32.488  1.00  0.00    -0.321 N 
HETATM   25  C   UNL     1     -12.224   3.579 -33.381  1.00  0.00     0.048 A 
HETATM   26  H   UNL     1     -13.158   5.322 -32.545  1.00  0.00     0.169 HD
HETATM   27  C   UNL     1     -12.962   3.319 -34.518  1.00  0.00     0.030 A 
HETATM   28  C   UNL     1     -12.631   2.180 -35.256  1.00  0.00     0.002 A 
HETATM   29  C   UNL     1     -11.598   1.325 -34.835  1.00  0.00     0.001 A 
HETATM   30  C   UNL     1     -10.861   1.603 -33.677  1.00  0.00     0.016 A 
ENDBRANCH   2  19
TORSDOF 4
ENDMDL
MODEL 9
REMARK VINA RESULT:      -8.1      5.983      8.675
REMARK  4 active torsions:
REMARK  status: ('A' for Active; 'I' for Inactive)
REMARK    1  A    between atoms: O_2  and  C_3 
REMARK    2  A    between atoms: C_4  and  C_5 
REMARK    3  A    between atoms: C_9  and  C_10 
REMARK       I    between atoms: C_10  and  N_11 
REMARK    4  A    between atoms: N_11  and  N_12 
ROOT
HETATM    1  C   UNL     1      -5.262   4.047 -33.321  1.00  0.00     0.289 C 
HETATM    2  N   UNL     1      -6.013   3.120 -32.610  1.00  0.00    -0.241 N 
HETATM    3  O   UNL     1      -5.575   4.514 -34.411  1.00  0.00    -0.264 OA
HETATM    4  H   UNL     1      -5.575   2.645 -31.835  1.00  0.00     0.192 HD
ENDROOT
BRANCH   1   5
HETATM    5  C   UNL     1      -4.044   4.441 -32.657  1.00  0.00     0.121 A 
HETATM    6  N   UNL     1      -2.857   3.806 -32.893  1.00  0.00    -0.272 N 
HETATM    7  N   UNL     1      -1.822   4.301 -32.197  1.00  0.00    -0.174 NA
HETATM    8  H   UNL     1      -2.700   3.023 -33.523  1.00  0.00     0.189 HD
HETATM    9  C   UNL     1      -2.338   5.316 -31.495  1.00  0.00     0.092 A 
HETATM   10  C   UNL     1      -3.734   5.431 -31.745  1.00  0.00     0.071 A 
BRANCH   9  11
HETATM   11  C   UNL     1      -1.545   6.152 -30.593  1.00  0.00     0.028 A 
HETATM   12  C   UNL     1      -0.334   5.739 -30.012  1.00  0.00     0.080 A 
HETATM   13  C   UNL     1       0.350   6.584 -29.129  1.00  0.00     0.037 A 
HETATM   14  C   UNL     1      -0.134   7.862 -28.851  1.00  0.00     0.003 A 
HETATM   15  C   UNL     1      -1.318   8.294 -29.438  1.00  0.00     0.001 A 
HETATM   16  C   UNL     1      -2.021   7.445 -30.296  1.00  0.00     0.017 A 
BRANCH  12  17
HETATM   17  O   UNL     1       0.252   4.514 -30.201  1.00  0.00    -0.355 OA
HETATM   18  C   UNL     1       1.531   4.602 -30.824  1.00  0.00     0.210 C 
ENDBRANCH  12  17
ENDBRANCH   9  11
ENDBRANCH   1   5
BRANCH   2  19
HETATM   19  N   UNL     1      -7.125   2.556 -33.154  1.00  0.00    -0.165 NA
HETATM   20  C   UNL     1      -7.051   1.347 -33.617  1.00  0.00     0.157 A 
HETATM   21  C   UNL     1      -8.211   0.729 -34.427  1.00  0.00     0.277 A 
HETATM   22  C   UNL     1      -6.003   0.315 -33.579  1.00  0.00     0.027 A 
HETATM   23  O   UNL     1      -9.290   1.228 -34.646  1.00  0.00    -0.266 OA
HETATM   24  N   UNL     1      -7.742  -0.491 -34.859  1.00  0.00    -0.321 N 
HETATM   25  C   UNL     1      -6.468  -0.741 -34.366  1.00  0.00     0.048 A 
HETATM   26  H   UNL     1      -8.300  -1.119 -35.418  1.00  0.00     0.169 HD
HETATM   27  C   UNL     1      -5.727  -1.888 -34.565  1.00  0.00     0.030 A 
HETATM   28  C   UNL     1      -4.485  -1.972 -33.932  1.00  0.00     0.002 A 
HETATM   29  C   UNL     1      -4.026  -0.932 -33.105  1.00  0.00     0.001 A 
HETATM   30  C   UNL     1      -4.793   0.224 -32.912  1.00  0.00     0.016 A 
ENDBRANCH   2  19
TORSDOF 4
ENDMDL
MODEL 10
REMARK VINA RESULT:      -8.1      5.888      8.550
REMARK  4 active torsions:
REMARK  status: ('A' for Active; 'I' for Inactive)
REMARK    1  A    between atoms: O_2  and  C_3 
REMARK    2  A    between atoms: C_4  and  C_5 
REMARK    3  A    between atoms: C_9  and  C_10 
REMARK       I    between atoms: C_10  and  N_11 
REMARK    4  A    between atoms: N_11  and  N_12 
ROOT
HETATM    1  C   UNL     1      -6.028   4.255 -33.269  1.00  0.00     0.289 C 
HETATM    2  N   UNL     1      -6.367   3.280 -32.340  1.00  0.00    -0.241 N 
HETATM    3  O   UNL     1      -6.724   4.589 -34.221  1.00  0.00    -0.264 OA
HETATM    4  H   UNL     1      -5.645   2.934 -31.726  1.00  0.00     0.192 HD
ENDROOT
BRANCH   1   5
HETATM    5  C   UNL     1      -4.749   4.875 -33.020  1.00  0.00     0.121 A 
HETATM    6  N   UNL     1      -4.090   5.580 -33.988  1.00  0.00    -0.272 N 
HETATM    7  N   UNL     1      -2.917   6.094 -33.589  1.00  0.00    -0.174 NA
HETATM    8  H   UNL     1      -4.400   5.738 -34.943  1.00  0.00     0.189 HD
HETATM    9  C   UNL     1      -2.809   5.739 -32.303  1.00  0.00     0.092 A 
HETATM   10  C   UNL     1      -3.933   4.961 -31.909  1.00  0.00     0.071 A 
BRANCH   9  11
HETATM   11  C   UNL     1      -1.667   6.104 -31.464  1.00  0.00     0.028 A 
HETATM   12  C   UNL     1      -1.695   7.143 -30.519  1.00  0.00     0.080 A 
HETATM   13  C   UNL     1      -0.549   7.456 -29.778  1.00  0.00     0.037 A 
HETATM   14  C   UNL     1       0.621   6.713 -29.932  1.00  0.00     0.003 A 
HETATM   15  C   UNL     1       0.657   5.665 -30.845  1.00  0.00     0.001 A 
HETATM   16  C   UNL     1      -0.474   5.367 -31.609  1.00  0.00     0.017 A 
BRANCH  12  17
HETATM   17  O   UNL     1      -2.776   7.948 -30.269  1.00  0.00    -0.355 OA
HETATM   18  C   UNL     1      -2.647   9.245 -30.847  1.00  0.00     0.210 C 
ENDBRANCH  12  17
ENDBRANCH   9  11
ENDBRANCH   1   5
BRANCH   2  19
HETATM   19  N   UNL     1      -7.483   2.517 -32.503  1.00  0.00    -0.165 NA
HETATM   20  C   UNL     1      -7.347   1.285 -32.881  1.00  0.00     0.157 A 
HETATM   21  C   UNL     1      -8.571   0.432 -33.281  1.00  0.00     0.277 A 
HETATM   22  C   UNL     1      -6.179   0.411 -33.072  1.00  0.00     0.027 A 
HETATM   23  O   UNL     1      -9.734   0.757 -33.218  1.00  0.00    -0.266 OA
HETATM   24  N   UNL     1      -8.051  -0.756 -33.743  1.00  0.00    -0.321 N 
HETATM   25  C   UNL     1      -6.668  -0.779 -33.618  1.00  0.00     0.048 A 
HETATM   26  H   UNL     1      -8.634  -1.510 -34.074  1.00  0.00     0.169 HD
HETATM   27  C   UNL     1      -5.838  -1.833 -33.939  1.00  0.00     0.030 A 
HETATM   28  C   UNL     1      -4.473  -1.682 -33.682  1.00  0.00     0.002 A 
HETATM   29  C   UNL     1      -3.977  -0.504 -33.097  1.00  0.00     0.001 A 
HETATM   30  C   UNL     1      -4.835   0.554 -32.774  1.00  0.00     0.016 A 
ENDBRANCH   2  19
TORSDOF 4
ENDMDL
