MODEL 1
REMARK VINA RESULT:      -9.7      0.000      0.000
REMARK  4 active torsions:
REMARK  status: ('A' for Active; 'I' for Inactive)
REMARK    1  A    between atoms: C_5  and  C_6 
REMARK       I    between atoms: C_6  and  N_7 
REMARK    2  A    between atoms: N_7  and  C_8 
REMARK    3  A    between atoms: C_12  and  C_13 
REMARK    4  A    between atoms: C_13  and  C_14 
ROOT
HETATM    1  C   UNL     1      -8.617   0.348 -32.619  1.00  0.00     0.747 A 
HETATM    2  N   UNL     1      -7.974   0.276 -31.450  1.00  0.00     0.020 NA
HETATM    3  N   UNL     1      -6.724  -0.022 -31.844  1.00  0.00    -0.248 N 
HETATM    4  H   UNL     1      -6.003  -0.170 -31.148  1.00  0.00     0.191 HD
HETATM    5  C   UNL     1      -6.646  -0.123 -33.202  1.00  0.00     0.144 A 
HETATM    6  N   UNL     1      -7.831   0.134 -33.709  1.00  0.00    -0.046 NA
ENDROOT
BRANCH   1   7
HETATM    7  N   UNL     1      -9.963   0.573 -32.667  1.00  0.00    -0.150 N 
HETATM    8  C   UNL     1     -10.577   1.482 -33.490  1.00  0.00     0.271 C 
HETATM    9  O   UNL     1     -10.041   2.259 -34.271  1.00  0.00    -0.267 OA
HETATM   10  H   UNL     1     -10.496  -0.069 -32.103  1.00  0.00     0.188 HD
BRANCH   8  11
HETATM   11  C   UNL     1     -12.060   1.442 -33.462  1.00  0.00     0.045 A 
HETATM   12  C   UNL     1     -12.856   2.575 -33.164  1.00  0.00     0.008 A 
HETATM   13  C   UNL     1     -14.245   2.408 -33.116  1.00  0.00     0.043 A 
HETATM   14  C   UNL     1     -12.610   3.959 -32.906  1.00  0.00     0.032 A 
HETATM   15  C   UNL     1     -14.875   1.182 -33.367  1.00  0.00     0.030 A 
HETATM   16  N   UNL     1     -14.799   3.628 -32.796  1.00  0.00    -0.365 N 
HETATM   17  C   UNL     1     -14.071   0.087 -33.693  1.00  0.00     0.003 A 
HETATM   18  C   UNL     1     -12.687   0.213 -33.742  1.00  0.00     0.018 A 
HETATM   19  H   UNL     1     -15.790   3.797 -32.692  1.00  0.00     0.165 HD
HETATM   20  C   UNL     1     -13.819   4.573 -32.670  1.00  0.00     0.089 A 
ENDBRANCH   8  11
ENDBRANCH   1   7
BRANCH   5  21
HETATM   21  C   UNL     1      -5.416  -0.533 -33.932  1.00  0.00     0.119 C 
BRANCH  21  22
HETATM   22  C   UNL     1      -5.314  -2.031 -34.131  1.00  0.00    -0.045 A 
HETATM   23  C   UNL     1      -6.312  -2.742 -34.818  1.00  0.00     0.050 A 
HETATM   24  C   UNL     1      -6.195  -4.118 -35.007  1.00  0.00     0.119 A 
HETATM   25  F   UNL     1      -7.165  -4.781 -35.648  1.00  0.00    -0.206 F 
HETATM   26  C   UNL     1      -5.088  -4.813 -34.542  1.00  0.00     0.084 A 
HETATM   27  C   UNL     1      -4.090  -4.110 -33.885  1.00  0.00     0.119 A 
HETATM   28  F   UNL     1      -3.008  -4.763 -33.440  1.00  0.00    -0.206 F 
HETATM   29  C   UNL     1      -4.188  -2.734 -33.678  1.00  0.00     0.050 A 
ENDBRANCH  21  22
ENDBRANCH   5  21
TORSDOF 4
ENDMDL
MODEL 2
REMARK VINA RESULT:      -9.4      1.102      2.573
REMARK  4 active torsions:
REMARK  status: ('A' for Active; 'I' for Inactive)
REMARK    1  A    between atoms: C_5  and  C_6 
REMARK       I    between atoms: C_6  and  N_7 
REMARK    2  A    between atoms: N_7  and  C_8 
REMARK    3  A    between atoms: C_12  and  C_13 
REMARK    4  A    between atoms: C_13  and  C_14 
ROOT
HETATM    1  C   UNL     1      -7.652   0.754 -32.893  1.00  0.00     0.747 A 
HETATM    2  N   UNL     1      -7.401   0.265 -31.675  1.00  0.00     0.020 NA
HETATM    3  N   UNL     1      -6.217  -0.343 -31.864  1.00  0.00    -0.248 N 
HETATM    4  H   UNL     1      -5.783  -0.841 -31.096  1.00  0.00     0.191 HD
HETATM    5  C   UNL     1      -5.797  -0.212 -33.155  1.00  0.00     0.144 A 
HETATM    6  N   UNL     1      -6.682   0.503 -33.813  1.00  0.00    -0.046 NA
ENDROOT
BRANCH   1   7
HETATM    7  N   UNL     1      -8.821   1.406 -33.160  1.00  0.00    -0.150 N 
HETATM    8  C   UNL     1     -10.070   0.844 -33.080  1.00  0.00     0.271 C 
HETATM    9  O   UNL     1     -10.345  -0.319 -32.805  1.00  0.00    -0.267 OA
HETATM   10  H   UNL     1      -8.700   2.391 -33.333  1.00  0.00     0.188 HD
BRANCH   8  11
HETATM   11  C   UNL     1     -11.193   1.793 -33.278  1.00  0.00     0.045 A 
HETATM   12  C   UNL     1     -12.510   1.374 -33.590  1.00  0.00     0.008 A 
HETATM   13  C   UNL     1     -13.479   2.361 -33.807  1.00  0.00     0.043 A 
HETATM   14  C   UNL     1     -13.178   0.118 -33.727  1.00  0.00     0.032 A 
HETATM   15  C   UNL     1     -13.207   3.731 -33.710  1.00  0.00     0.030 A 
HETATM   16  N   UNL     1     -14.661   1.721 -34.107  1.00  0.00    -0.365 N 
HETATM   17  C   UNL     1     -11.909   4.119 -33.367  1.00  0.00     0.003 A 
HETATM   18  C   UNL     1     -10.918   3.167 -33.153  1.00  0.00     0.018 A 
HETATM   19  H   UNL     1     -15.531   2.193 -34.312  1.00  0.00     0.165 HD
HETATM   20  C   UNL     1     -14.491   0.366 -34.058  1.00  0.00     0.089 A 
ENDBRANCH   8  11
ENDBRANCH   1   7
BRANCH   5  21
HETATM   21  C   UNL     1      -4.568  -0.856 -33.693  1.00  0.00     0.119 C 
BRANCH  21  22
HETATM   22  C   UNL     1      -4.757  -2.323 -34.015  1.00  0.00    -0.045 A 
HETATM   23  C   UNL     1      -3.858  -3.293 -33.538  1.00  0.00     0.050 A 
HETATM   24  C   UNL     1      -4.055  -4.641 -33.830  1.00  0.00     0.119 A 
HETATM   25  F   UNL     1      -3.177  -5.548 -33.382  1.00  0.00    -0.206 F 
HETATM   26  C   UNL     1      -5.147  -5.061 -34.574  1.00  0.00     0.084 A 
HETATM   27  C   UNL     1      -6.050  -4.110 -35.025  1.00  0.00     0.119 A 
HETATM   28  F   UNL     1      -7.116  -4.498 -35.735  1.00  0.00    -0.206 F 
HETATM   29  C   UNL     1      -5.870  -2.753 -34.753  1.00  0.00     0.050 A 
ENDBRANCH  21  22
ENDBRANCH   5  21
TORSDOF 4
ENDMDL
MODEL 3
REMARK VINA RESULT:      -9.3      0.985      2.069
REMARK  4 active torsions:
REMARK  status: ('A' for Active; 'I' for Inactive)
REMARK    1  A    between atoms: C_5  and  C_6 
REMARK       I    between atoms: C_6  and  N_7 
REMARK    2  A    between atoms: N_7  and  C_8 
REMARK    3  A    between atoms: C_12  and  C_13 
REMARK    4  A    between atoms: C_13  and  C_14 
ROOT
HETATM    1  C   UNL     1      -8.844   0.629 -33.813  1.00  0.00     0.747 A 
HETATM    2  N   UNL     1      -8.629   0.615 -35.133  1.00  0.00     0.020 NA
HETATM    3  N   UNL     1      -7.391   0.097 -35.201  1.00  0.00    -0.248 N 
HETATM    4  H   UNL     1      -6.942  -0.007 -36.104  1.00  0.00     0.191 HD
HETATM    5  C   UNL     1      -6.902  -0.178 -33.958  1.00  0.00     0.144 A 
HETATM    6  N   UNL     1      -7.821   0.128 -33.070  1.00  0.00    -0.046 NA
ENDROOT
BRANCH   1   7
HETATM    7  N   UNL     1      -9.992   1.154 -33.296  1.00  0.00    -0.150 N 
HETATM    8  C   UNL     1     -10.574   2.327 -33.707  1.00  0.00     0.271 C 
HETATM    9  O   UNL     1     -10.156   3.107 -34.554  1.00  0.00    -0.267 OA
HETATM   10  H   UNL     1     -10.448   0.547 -32.633  1.00  0.00     0.188 HD
BRANCH   8  11
HETATM   11  C   UNL     1     -11.894   2.615 -33.092  1.00  0.00     0.045 A 
HETATM   12  C   UNL     1     -13.085   1.955 -33.479  1.00  0.00     0.008 A 
HETATM   13  C   UNL     1     -14.282   2.345 -32.866  1.00  0.00     0.043 A 
HETATM   14  C   UNL     1     -13.422   0.894 -34.376  1.00  0.00     0.032 A 
HETATM   15  C   UNL     1     -14.345   3.339 -31.880  1.00  0.00     0.030 A 
HETATM   16  N   UNL     1     -15.293   1.584 -33.408  1.00  0.00    -0.365 N 
HETATM   17  C   UNL     1     -13.152   3.952 -31.491  1.00  0.00     0.003 A 
HETATM   18  C   UNL     1     -11.945   3.596 -32.084  1.00  0.00     0.018 A 
HETATM   19  H   UNL     1     -16.267   1.657 -33.149  1.00  0.00     0.165 HD
HETATM   20  C   UNL     1     -14.783   0.702 -34.320  1.00  0.00     0.089 A 
ENDBRANCH   8  11
ENDBRANCH   1   7
BRANCH   5  21
HETATM   21  C   UNL     1      -5.522  -0.672 -33.703  1.00  0.00     0.119 C 
BRANCH  21  22
HETATM   22  C   UNL     1      -5.354  -2.148 -33.999  1.00  0.00    -0.045 A 
HETATM   23  C   UNL     1      -6.346  -2.867 -34.687  1.00  0.00     0.050 A 
HETATM   24  C   UNL     1      -6.170  -4.221 -34.966  1.00  0.00     0.119 A 
HETATM   25  F   UNL     1      -7.135  -4.894 -35.606  1.00  0.00    -0.206 F 
HETATM   26  C   UNL     1      -5.009  -4.884 -34.594  1.00  0.00     0.084 A 
HETATM   27  C   UNL     1      -4.018  -4.171 -33.938  1.00  0.00     0.119 A 
HETATM   28  F   UNL     1      -2.886  -4.792 -33.581  1.00  0.00    -0.206 F 
HETATM   29  C   UNL     1      -4.175  -2.817 -33.640  1.00  0.00     0.050 A 
ENDBRANCH  21  22
ENDBRANCH   5  21
TORSDOF 4
ENDMDL
MODEL 4
REMARK VINA RESULT:      -9.2      3.694      8.963
REMARK  4 active torsions:
REMARK  status: ('A' for Active; 'I' for Inactive)
REMARK    1  A    between atoms: C_5  and  C_6 
REMARK       I    between atoms: C_6  and  N_7 
REMARK    2  A    between atoms: N_7  and  C_8 
REMARK    3  A    between atoms: C_12  and  C_13 
REMARK    4  A    between atoms: C_13  and  C_14 
ROOT
HETATM    1  C   UNL     1      -8.910   0.413 -33.081  1.00  0.00     0.747 A 
HETATM    2  N   UNL     1      -9.150   1.090 -31.953  1.00  0.00     0.020 NA
HETATM    3  N   UNL     1     -10.150   1.904 -32.332  1.00  0.00    -0.248 N 
HETATM    4  H   UNL     1     -10.527   2.573 -31.671  1.00  0.00     0.191 HD
HETATM    5  C   UNL     1     -10.478   1.707 -33.641  1.00  0.00     0.144 A 
HETATM    6  N   UNL     1      -9.720   0.747 -34.122  1.00  0.00    -0.046 NA
ENDROOT
BRANCH   1   7
HETATM    7  N   UNL     1      -7.895  -0.497 -33.150  1.00  0.00    -0.150 N 
HETATM    8  C   UNL     1      -6.868  -0.460 -34.059  1.00  0.00     0.271 C 
HETATM    9  O   UNL     1      -6.709   0.347 -34.967  1.00  0.00    -0.267 OA
HETATM   10  H   UNL     1      -7.906  -1.167 -32.398  1.00  0.00     0.188 HD
BRANCH   8  11
HETATM   11  C   UNL     1      -5.809  -1.477 -33.843  1.00  0.00     0.045 A 
HETATM   12  C   UNL     1      -4.755  -1.306 -32.914  1.00  0.00     0.008 A 
HETATM   13  C   UNL     1      -3.782  -2.310 -32.831  1.00  0.00     0.043 A 
HETATM   14  C   UNL     1      -4.399  -0.323 -31.939  1.00  0.00     0.032 A 
HETATM   15  C   UNL     1      -3.821  -3.474 -33.609  1.00  0.00     0.030 A 
HETATM   16  N   UNL     1      -2.862  -1.919 -31.884  1.00  0.00    -0.365 N 
HETATM   17  C   UNL     1      -4.890  -3.636 -34.493  1.00  0.00     0.003 A 
HETATM   18  C   UNL     1      -5.870  -2.656 -34.609  1.00  0.00     0.018 A 
HETATM   19  H   UNL     1      -2.048  -2.456 -31.621  1.00  0.00     0.165 HD
HETATM   20  C   UNL     1      -3.227  -0.720 -31.337  1.00  0.00     0.089 A 
ENDBRANCH   8  11
ENDBRANCH   1   7
BRANCH   5  21
HETATM   21  C   UNL     1     -11.484   2.522 -34.373  1.00  0.00     0.119 C 
BRANCH  21  22
HETATM   22  C   UNL     1     -12.907   2.242 -33.938  1.00  0.00    -0.045 A 
HETATM   23  C   UNL     1     -13.692   1.280 -34.596  1.00  0.00     0.050 A 
HETATM   24  C   UNL     1     -14.995   1.023 -34.173  1.00  0.00     0.119 A 
HETATM   25  F   UNL     1     -15.733   0.116 -34.825  1.00  0.00    -0.206 F 
HETATM   26  C   UNL     1     -15.540   1.690 -33.086  1.00  0.00     0.084 A 
HETATM   27  C   UNL     1     -14.760   2.623 -32.419  1.00  0.00     0.119 A 
HETATM   28  F   UNL     1     -15.265   3.268 -31.361  1.00  0.00    -0.206 F 
HETATM   29  C   UNL     1     -13.455   2.903 -32.829  1.00  0.00     0.050 A 
ENDBRANCH  21  22
ENDBRANCH   5  21
TORSDOF 4
ENDMDL
MODEL 5
REMARK VINA RESULT:      -9.1      5.308      8.430
REMARK  4 active torsions:
REMARK  status: ('A' for Active; 'I' for Inactive)
REMARK    1  A    between atoms: C_5  and  C_6 
REMARK       I    between atoms: C_6  and  N_7 
REMARK    2  A    between atoms: N_7  and  C_8 
REMARK    3  A    between atoms: C_12  and  C_13 
REMARK    4  A    between atoms: C_13  and  C_14 
ROOT
HETATM    1  C   UNL     1      -5.326   2.478 -32.499  1.00  0.00     0.747 A 
HETATM    2  N   UNL     1      -6.014   2.323 -31.363  1.00  0.00     0.020 NA
HETATM    3  N   UNL     1      -6.767   1.246 -31.646  1.00  0.00    -0.248 N 
HETATM    4  H   UNL     1      -7.429   0.906 -30.958  1.00  0.00     0.191 HD
HETATM    5  C   UNL     1      -6.526   0.793 -32.909  1.00  0.00     0.144 A 
HETATM    6  N   UNL     1      -5.596   1.546 -33.453  1.00  0.00    -0.046 NA
ENDROOT
BRANCH   1   7
HETATM    7  N   UNL     1      -4.468   3.526 -32.663  1.00  0.00    -0.150 N 
HETATM    8  C   UNL     1      -3.191   3.581 -32.164  1.00  0.00     0.271 C 
HETATM    9  O   UNL     1      -2.629   2.743 -31.469  1.00  0.00    -0.267 OA
HETATM   10  H   UNL     1      -4.821   4.241 -33.279  1.00  0.00     0.188 HD
BRANCH   8  11
HETATM   11  C   UNL     1      -2.405   4.763 -32.596  1.00  0.00     0.045 A 
HETATM   12  C   UNL     1      -1.358   5.317 -31.819  1.00  0.00     0.008 A 
HETATM   13  C   UNL     1      -0.719   6.466 -32.302  1.00  0.00     0.043 A 
HETATM   14  C   UNL     1      -0.705   4.981 -30.593  1.00  0.00     0.032 A 
HETATM   15  C   UNL     1      -1.057   7.071 -33.519  1.00  0.00     0.030 A 
HETATM   16  N   UNL     1       0.239   6.825 -31.381  1.00  0.00    -0.365 N 
HETATM   17  C   UNL     1      -2.069   6.486 -34.283  1.00  0.00     0.003 A 
HETATM   18  C   UNL     1      -2.732   5.350 -33.832  1.00  0.00     0.018 A 
HETATM   19  H   UNL     1       0.852   7.623 -31.474  1.00  0.00     0.165 HD
HETATM   20  C   UNL     1       0.258   5.932 -30.345  1.00  0.00     0.089 A 
ENDBRANCH   8  11
ENDBRANCH   1   7
BRANCH   5  21
HETATM   21  C   UNL     1      -7.273  -0.327 -33.543  1.00  0.00     0.119 C 
BRANCH  21  22
HETATM   22  C   UNL     1      -6.399  -1.522 -33.858  1.00  0.00    -0.045 A 
HETATM   23  C   UNL     1      -5.134  -1.674 -33.263  1.00  0.00     0.050 A 
HETATM   24  C   UNL     1      -4.348  -2.788 -33.551  1.00  0.00     0.119 A 
HETATM   25  F   UNL     1      -3.139  -2.905 -32.989  1.00  0.00    -0.206 F 
HETATM   26  C   UNL     1      -4.798  -3.780 -34.410  1.00  0.00     0.084 A 
HETATM   27  C   UNL     1      -6.056  -3.645 -34.980  1.00  0.00     0.119 A 
HETATM   28  F   UNL     1      -6.512  -4.598 -35.802  1.00  0.00    -0.206 F 
HETATM   29  C   UNL     1      -6.858  -2.535 -34.712  1.00  0.00     0.050 A 
ENDBRANCH  21  22
ENDBRANCH   5  21
TORSDOF 4
ENDMDL
MODEL 6
REMARK VINA RESULT:      -8.8      6.106      8.816
REMARK  4 active torsions:
REMARK  status: ('A' for Active; 'I' for Inactive)
REMARK    1  A    between atoms: C_5  and  C_6 
REMARK       I    between atoms: C_6  and  N_7 
REMARK    2  A    between atoms: N_7  and  C_8 
REMARK    3  A    between atoms: C_12  and  C_13 
REMARK    4  A    between atoms: C_13  and  C_14 
ROOT
HETATM    1  C   UNL     1      -4.062   2.647 -31.339  1.00  0.00     0.747 A 
HETATM    2  N   UNL     1      -5.030   2.441 -30.440  1.00  0.00     0.020 NA
HETATM    3  N   UNL     1      -5.836   1.590 -31.097  1.00  0.00    -0.248 N 
HETATM    4  H   UNL     1      -6.693   1.274 -30.659  1.00  0.00     0.191 HD
HETATM    5  C   UNL     1      -5.352   1.313 -32.342  1.00  0.00     0.144 A 
HETATM    6  N   UNL     1      -4.215   1.954 -32.500  1.00  0.00    -0.046 NA
ENDROOT
BRANCH   1   7
HETATM    7  N   UNL     1      -3.048   3.524 -31.089  1.00  0.00    -0.150 N 
HETATM    8  C   UNL     1      -2.956   4.789 -31.613  1.00  0.00     0.271 C 
HETATM    9  O   UNL     1      -3.723   5.321 -32.408  1.00  0.00    -0.267 OA
HETATM   10  H   UNL     1      -2.399   3.198 -30.391  1.00  0.00     0.188 HD
BRANCH   8  11
HETATM   11  C   UNL     1      -1.836   5.603 -31.080  1.00  0.00     0.045 A 
HETATM   12  C   UNL     1      -2.023   6.661 -30.158  1.00  0.00     0.008 A 
HETATM   13  C   UNL     1      -0.899   7.396 -29.763  1.00  0.00     0.043 A 
HETATM   14  C   UNL     1      -3.131   7.209 -29.441  1.00  0.00     0.032 A 
HETATM   15  C   UNL     1       0.394   7.116 -30.224  1.00  0.00     0.030 A 
HETATM   16  N   UNL     1      -1.326   8.368 -28.887  1.00  0.00    -0.365 N 
HETATM   17  C   UNL     1       0.559   6.047 -31.107  1.00  0.00     0.003 A 
HETATM   18  C   UNL     1      -0.537   5.300 -31.528  1.00  0.00     0.018 A 
HETATM   19  H   UNL     1      -0.720   9.047 -28.445  1.00  0.00     0.165 HD
HETATM   20  C   UNL     1      -2.673   8.263 -28.683  1.00  0.00     0.089 A 
ENDBRANCH   8  11
ENDBRANCH   1   7
BRANCH   5  21
HETATM   21  C   UNL     1      -6.069   0.476 -33.342  1.00  0.00     0.119 C 
BRANCH  21  22
HETATM   22  C   UNL     1      -5.429  -0.880 -33.551  1.00  0.00    -0.045 A 
HETATM   23  C   UNL     1      -4.412  -1.343 -32.698  1.00  0.00     0.050 A 
HETATM   24  C   UNL     1      -3.844  -2.600 -32.895  1.00  0.00     0.119 A 
HETATM   25  F   UNL     1      -2.864  -3.015 -32.083  1.00  0.00    -0.206 F 
HETATM   26  C   UNL     1      -4.278  -3.430 -33.918  1.00  0.00     0.084 A 
HETATM   27  C   UNL     1      -5.298  -2.986 -34.746  1.00  0.00     0.119 A 
HETATM   28  F   UNL     1      -5.738  -3.779 -35.732  1.00  0.00    -0.206 F 
HETATM   29  C   UNL     1      -5.877  -1.728 -34.574  1.00  0.00     0.050 A 
ENDBRANCH  21  22
ENDBRANCH   5  21
TORSDOF 4
ENDMDL
MODEL 7
REMARK VINA RESULT:      -8.8      3.775      8.753
REMARK  4 active torsions:
REMARK  status: ('A' for Active; 'I' for Inactive)
REMARK    1  A    between atoms: C_5  and  C_6 
REMARK       I    between atoms: C_6  and  N_7 
REMARK    2  A    between atoms: N_7  and  C_8 
REMARK    3  A    between atoms: C_12  and  C_13 
REMARK    4  A    between atoms: C_13  and  C_14 
ROOT
HETATM    1  C   UNL     1      -8.298   2.411 -33.653  1.00  0.00     0.747 A 
HETATM    2  N   UNL     1      -8.334   3.694 -33.280  1.00  0.00     0.020 NA
HETATM    3  N   UNL     1      -9.522   4.087 -33.771  1.00  0.00    -0.248 N 
HETATM    4  H   UNL     1      -9.813   5.052 -33.661  1.00  0.00     0.191 HD
HETATM    5  C   UNL     1     -10.154   3.063 -34.411  1.00  0.00     0.144 A 
HETATM    6  N   UNL     1      -9.404   1.988 -34.322  1.00  0.00    -0.046 NA
ENDROOT
BRANCH   1   7
HETATM    7  N   UNL     1      -7.201   1.638 -33.402  1.00  0.00    -0.150 N 
HETATM    8  C   UNL     1      -7.124   0.680 -32.423  1.00  0.00     0.271 C 
HETATM    9  O   UNL     1      -7.982   0.389 -31.599  1.00  0.00    -0.267 OA
HETATM   10  H   UNL     1      -6.462   1.761 -34.074  1.00  0.00     0.188 HD
BRANCH   8  11
HETATM   11  C   UNL     1      -5.878  -0.126 -32.439  1.00  0.00     0.045 A 
HETATM   12  C   UNL     1      -5.653  -1.178 -33.360  1.00  0.00     0.008 A 
HETATM   13  C   UNL     1      -4.462  -1.905 -33.250  1.00  0.00     0.043 A 
HETATM   14  C   UNL     1      -6.354  -1.726 -34.479  1.00  0.00     0.032 A 
HETATM   15  C   UNL     1      -3.484  -1.625 -32.286  1.00  0.00     0.030 A 
HETATM   16  N   UNL     1      -4.475  -2.874 -34.229  1.00  0.00    -0.365 N 
HETATM   17  C   UNL     1      -3.713  -0.560 -31.411  1.00  0.00     0.003 A 
HETATM   18  C   UNL     1      -4.889   0.179 -31.486  1.00  0.00     0.018 A 
HETATM   19  H   UNL     1      -3.736  -3.547 -34.378  1.00  0.00     0.165 HD
HETATM   20  C   UNL     1      -5.613  -2.772 -34.979  1.00  0.00     0.089 A 
ENDBRANCH   8  11
ENDBRANCH   1   7
BRANCH   5  21
HETATM   21  C   UNL     1     -11.444   3.212 -35.138  1.00  0.00     0.119 C 
BRANCH  21  22
HETATM   22  C   UNL     1     -12.632   2.702 -34.351  1.00  0.00    -0.045 A 
HETATM   23  C   UNL     1     -13.454   1.680 -34.857  1.00  0.00     0.050 A 
HETATM   24  C   UNL     1     -14.534   1.211 -34.113  1.00  0.00     0.119 A 
HETATM   25  F   UNL     1     -15.316   0.249 -34.620  1.00  0.00    -0.206 F 
HETATM   26  C   UNL     1     -14.814   1.721 -32.854  1.00  0.00     0.084 A 
HETATM   27  C   UNL     1     -13.991   2.713 -32.342  1.00  0.00     0.119 A 
HETATM   28  F   UNL     1     -14.238   3.210 -31.123  1.00  0.00    -0.206 F 
HETATM   29  C   UNL     1     -12.907   3.205 -33.071  1.00  0.00     0.050 A 
ENDBRANCH  21  22
ENDBRANCH   5  21
TORSDOF 4
ENDMDL
MODEL 8
REMARK VINA RESULT:      -8.8      8.190     10.913
REMARK  4 active torsions:
REMARK  status: ('A' for Active; 'I' for Inactive)
REMARK    1  A    between atoms: C_5  and  C_6 
REMARK       I    between atoms: C_6  and  N_7 
REMARK    2  A    between atoms: N_7  and  C_8 
REMARK    3  A    between atoms: C_12  and  C_13 
REMARK    4  A    between atoms: C_13  and  C_14 
ROOT
HETATM    1  C   UNL     1      -2.202   4.581 -31.889  1.00  0.00     0.747 A 
HETATM    2  N   UNL     1      -2.875   5.704 -31.622  1.00  0.00     0.020 NA
HETATM    3  N   UNL     1      -1.893   6.516 -31.195  1.00  0.00    -0.248 N 
HETATM    4  H   UNL     1      -2.119   7.454 -30.887  1.00  0.00     0.191 HD
HETATM    5  C   UNL     1      -0.686   5.881 -31.211  1.00  0.00     0.144 A 
HETATM    6  N   UNL     1      -0.861   4.663 -31.673  1.00  0.00    -0.046 NA
ENDROOT
BRANCH   1   7
HETATM    7  N   UNL     1      -2.852   3.453 -32.297  1.00  0.00    -0.150 N 
HETATM    8  C   UNL     1      -3.912   2.877 -31.643  1.00  0.00     0.271 C 
HETATM    9  O   UNL     1      -4.416   3.237 -30.586  1.00  0.00    -0.267 OA
HETATM   10  H   UNL     1      -2.548   3.119 -33.197  1.00  0.00     0.188 HD
BRANCH   8  11
HETATM   11  C   UNL     1      -4.541   1.740 -32.359  1.00  0.00     0.045 A 
HETATM   12  C   UNL     1      -4.054   0.412 -32.275  1.00  0.00     0.008 A 
HETATM   13  C   UNL     1      -4.697  -0.573 -33.035  1.00  0.00     0.043 A 
HETATM   14  C   UNL     1      -3.022  -0.255 -31.545  1.00  0.00     0.032 A 
HETATM   15  C   UNL     1      -5.802  -0.304 -33.852  1.00  0.00     0.030 A 
HETATM   16  N   UNL     1      -4.045  -1.764 -32.805  1.00  0.00    -0.365 N 
HETATM   17  C   UNL     1      -6.285   1.006 -33.892  1.00  0.00     0.003 A 
HETATM   18  C   UNL     1      -5.667   2.012 -33.157  1.00  0.00     0.018 A 
HETATM   19  H   UNL     1      -4.298  -2.646 -33.229  1.00  0.00     0.165 HD
HETATM   20  C   UNL     1      -3.033  -1.583 -31.904  1.00  0.00     0.089 A 
ENDBRANCH   8  11
ENDBRANCH   1   7
BRANCH   5  21
HETATM   21  C   UNL     1       0.575   6.489 -30.709  1.00  0.00     0.119 C 
BRANCH  21  22
HETATM   22  C   UNL     1       0.522   6.839 -29.237  1.00  0.00    -0.045 A 
HETATM   23  C   UNL     1       0.974   8.085 -28.769  1.00  0.00     0.050 A 
HETATM   24  C   UNL     1       0.902   8.397 -27.413  1.00  0.00     0.119 A 
HETATM   25  F   UNL     1       1.355   9.582 -26.985  1.00  0.00    -0.206 F 
HETATM   26  C   UNL     1       0.369   7.502 -26.498  1.00  0.00     0.084 A 
HETATM   27  C   UNL     1      -0.101   6.281 -26.959  1.00  0.00     0.119 A 
HETATM   28  F   UNL     1      -0.630   5.408 -26.093  1.00  0.00    -0.206 F 
HETATM   29  C   UNL     1      -0.034   5.942 -28.312  1.00  0.00     0.050 A 
ENDBRANCH  21  22
ENDBRANCH   5  21
TORSDOF 4
ENDMDL
MODEL 9
REMARK VINA RESULT:      -8.7      1.619      2.286
REMARK  4 active torsions:
REMARK  status: ('A' for Active; 'I' for Inactive)
REMARK    1  A    between atoms: C_5  and  C_6 
REMARK       I    between atoms: C_6  and  N_7 
REMARK    2  A    between atoms: N_7  and  C_8 
REMARK    3  A    between atoms: C_12  and  C_13 
REMARK    4  A    between atoms: C_13  and  C_14 
ROOT
HETATM    1  C   UNL     1     -10.313   1.072 -33.286  1.00  0.00     0.747 A 
HETATM    2  N   UNL     1      -9.968  -0.018 -32.593  1.00  0.00     0.020 NA
HETATM    3  N   UNL     1      -8.845  -0.399 -33.225  1.00  0.00    -0.248 N 
HETATM    4  H   UNL     1      -8.364  -1.240 -32.927  1.00  0.00     0.191 HD
HETATM    5  C   UNL     1      -8.549   0.443 -34.256  1.00  0.00     0.144 A 
HETATM    6  N   UNL     1      -9.454   1.395 -34.291  1.00  0.00    -0.046 NA
ENDROOT
BRANCH   1   7
HETATM    7  N   UNL     1     -11.464   1.748 -33.004  1.00  0.00    -0.150 N 
HETATM    8  C   UNL     1     -12.622   1.665 -33.735  1.00  0.00     0.271 C 
HETATM    9  O   UNL     1     -12.808   1.024 -34.762  1.00  0.00    -0.267 OA
HETATM   10  H   UNL     1     -11.428   2.254 -32.134  1.00  0.00     0.188 HD
BRANCH   8  11
HETATM   11  C   UNL     1     -13.781   2.382 -33.147  1.00  0.00     0.045 A 
HETATM   12  C   UNL     1     -13.772   3.773 -32.883  1.00  0.00     0.008 A 
HETATM   13  C   UNL     1     -14.904   4.334 -32.279  1.00  0.00     0.043 A 
HETATM   14  C   UNL     1     -12.863   4.852 -33.109  1.00  0.00     0.032 A 
HETATM   15  C   UNL     1     -16.040   3.586 -31.946  1.00  0.00     0.030 A 
HETATM   16  N   UNL     1     -14.659   5.678 -32.108  1.00  0.00    -0.365 N 
HETATM   17  C   UNL     1     -16.038   2.222 -32.248  1.00  0.00     0.003 A 
HETATM   18  C   UNL     1     -14.929   1.628 -32.840  1.00  0.00     0.018 A 
HETATM   19  H   UNL     1     -15.309   6.331 -31.691  1.00  0.00     0.165 HD
HETATM   20  C   UNL     1     -13.429   6.002 -32.609  1.00  0.00     0.089 A 
ENDBRANCH   8  11
ENDBRANCH   1   7
BRANCH   5  21
HETATM   21  C   UNL     1      -7.418   0.231 -35.200  1.00  0.00     0.119 C 
BRANCH  21  22
HETATM   22  C   UNL     1      -6.439  -0.822 -34.726  1.00  0.00    -0.045 A 
HETATM   23  C   UNL     1      -6.562  -2.163 -35.131  1.00  0.00     0.050 A 
HETATM   24  C   UNL     1      -5.643  -3.117 -34.700  1.00  0.00     0.119 A 
HETATM   25  F   UNL     1      -5.788  -4.392 -35.081  1.00  0.00    -0.206 F 
HETATM   26  C   UNL     1      -4.578  -2.768 -33.882  1.00  0.00     0.084 A 
HETATM   27  C   UNL     1      -4.440  -1.442 -33.501  1.00  0.00     0.119 A 
HETATM   28  F   UNL     1      -3.411  -1.085 -32.721  1.00  0.00    -0.206 F 
HETATM   29  C   UNL     1      -5.351  -0.470 -33.914  1.00  0.00     0.050 A 
ENDBRANCH  21  22
ENDBRANCH   5  21
TORSDOF 4
ENDMDL
MODEL 10
REMARK VINA RESULT:      -8.7      3.725      9.018
REMARK  4 active torsions:
REMARK  status: ('A' for Active; 'I' for Inactive)
REMARK    1  A    between atoms: C_5  and  C_6 
REMARK       I    between atoms: C_6  and  N_7 
REMARK    2  A    between atoms: N_7  and  C_8 
REMARK    3  A    between atoms: C_12  and  C_13 
REMARK    4  A    between atoms: C_13  and  C_14 
ROOT
HETATM    1  C   UNL     1      -8.433   1.931 -33.533  1.00  0.00     0.747 A 
HETATM    2  N   UNL     1      -8.339   3.222 -33.200  1.00  0.00     0.020 NA
HETATM    3  N   UNL     1      -9.486   3.716 -33.698  1.00  0.00    -0.248 N 
HETATM    4  H   UNL     1      -9.679   4.707 -33.617  1.00  0.00     0.191 HD
HETATM    5  C   UNL     1     -10.221   2.740 -34.304  1.00  0.00     0.144 A 
HETATM    6  N   UNL     1      -9.580   1.599 -34.184  1.00  0.00    -0.046 NA
ENDROOT
BRANCH   1   7
HETATM    7  N   UNL     1      -7.416   1.061 -33.263  1.00  0.00    -0.150 N 
HETATM    8  C   UNL     1      -6.642   0.440 -34.211  1.00  0.00     0.271 C 
HETATM    9  O   UNL     1      -6.751   0.521 -35.428  1.00  0.00    -0.267 OA
HETATM   10  H   UNL     1      -7.208   0.981 -32.281  1.00  0.00     0.188 HD
BRANCH   8  11
HETATM   11  C   UNL     1      -5.508  -0.348 -33.667  1.00  0.00     0.045 A 
HETATM   12  C   UNL     1      -5.288  -1.708 -33.996  1.00  0.00     0.008 A 
HETATM   13  C   UNL     1      -4.216  -2.367 -33.383  1.00  0.00     0.043 A 
HETATM   14  C   UNL     1      -5.893  -2.659 -34.874  1.00  0.00     0.032 A 
HETATM   15  C   UNL     1      -3.348  -1.736 -32.481  1.00  0.00     0.030 A 
HETATM   16  N   UNL     1      -4.212  -3.666 -33.839  1.00  0.00    -0.365 N 
HETATM   17  C   UNL     1      -3.565  -0.385 -32.200  1.00  0.00     0.003 A 
HETATM   18  C   UNL     1      -4.625   0.300 -32.783  1.00  0.00     0.018 A 
HETATM   19  H   UNL     1      -3.543  -4.370 -33.557  1.00  0.00     0.165 HD
HETATM   20  C   UNL     1      -5.221  -3.852 -34.743  1.00  0.00     0.089 A 
ENDBRANCH   8  11
ENDBRANCH   1   7
BRANCH   5  21
HETATM   21  C   UNL     1     -11.495   2.994 -35.029  1.00  0.00     0.119 C 
BRANCH  21  22
HETATM   22  C   UNL     1     -12.715   2.501 -34.279  1.00  0.00    -0.045 A 
HETATM   23  C   UNL     1     -13.043   3.012 -33.011  1.00  0.00     0.050 A 
HETATM   24  C   UNL     1     -14.178   2.560 -32.341  1.00  0.00     0.119 A 
HETATM   25  F   UNL     1     -14.464   3.045 -31.127  1.00  0.00    -0.206 F 
HETATM   26  C   UNL     1     -15.019   1.615 -32.912  1.00  0.00     0.084 A 
HETATM   27  C   UNL     1     -14.711   1.128 -34.173  1.00  0.00     0.119 A 
HETATM   28  F   UNL     1     -15.517   0.224 -34.744  1.00  0.00    -0.206 F 
HETATM   29  C   UNL     1     -13.576   1.559 -34.861  1.00  0.00     0.050 A 
ENDBRANCH  21  22
ENDBRANCH   5  21
TORSDOF 4
ENDMDL
