MODEL 1
REMARK VINA RESULT:      -8.0      0.000      0.000
REMARK  3 active torsions:
REMARK  status: ('A' for Active; 'I' for Inactive)
REMARK    1  A    between atoms: C_6  and  N_7 
REMARK       I    between atoms: N_7  and  C_8 
REMARK    2  A    between atoms: C_8  and  C_9 
REMARK    3  A    between atoms: C_9  and  C_10 
ROOT
HETATM    1  C   UNL     1      -7.960   1.585 -31.580  1.00  0.00     0.286 C 
HETATM    2  N   UNL     1      -9.130   0.768 -32.137  1.00  0.00    -0.056 N 
HETATM    3  H   UNL     1      -8.781  -0.098 -32.570  1.00  0.00     0.278 HD
HETATM    4  H   UNL     1      -9.717   0.476 -31.343  1.00  0.00     0.278 HD
HETATM    5  C   UNL     1      -9.993   1.503 -33.127  1.00  0.00     0.209 C 
HETATM    6  C   UNL     1     -10.445   2.847 -32.519  1.00  0.00     0.115 C 
HETATM    7  N   UNL     1      -9.333   3.627 -31.999  1.00  0.00    -0.353 N 
HETATM    8  C   UNL     1      -8.280   3.071 -31.321  1.00  0.00     0.249 C 
HETATM    9  O   UNL     1      -7.550   3.764 -30.617  1.00  0.00    -0.271 OA
HETATM   10  C   UNL     1     -11.204   0.651 -33.496  1.00  0.00     0.035 C 
HETATM   11  C   UNL     1     -12.074   1.397 -34.512  1.00  0.00     0.002 C 
HETATM   12  C   UNL     1     -12.459   2.800 -34.035  1.00  0.00     0.002 C 
HETATM   13  C   UNL     1     -11.255   3.620 -33.562  1.00  0.00     0.027 C 
HETATM   14  H   UNL     1      -9.493   4.607 -31.769  1.00  0.00     0.163 HD
ENDROOT
BRANCH   1  15
HETATM   15  C   UNL     1      -6.686   1.424 -32.418  1.00  0.00     0.146 C 
BRANCH  15  16
HETATM   16  C   UNL     1      -6.201  -0.010 -32.426  1.00  0.00     0.224 C 
HETATM   17  N   UNL     1      -5.858  -0.478 -33.677  1.00  0.00    -0.327 N 
HETATM   18  H   UNL     1      -5.734   0.195 -34.429  1.00  0.00     0.169 HD
HETATM   19  O   UNL     1      -6.246  -0.653 -31.384  1.00  0.00    -0.273 OA
BRANCH  17  20
HETATM   20  C   UNL     1      -5.721  -1.828 -34.072  1.00  0.00     0.036 A 
HETATM   21  C   UNL     1      -4.564  -2.584 -33.875  1.00  0.00     0.053 A 
HETATM   22  C   UNL     1      -4.548  -3.939 -34.219  1.00  0.00     0.036 A 
HETATM   23  C   UNL     1      -5.670  -4.548 -34.774  1.00  0.00     0.024 A 
HETATM   24 CL   UNL     1      -3.130  -4.870 -33.924  1.00  0.00    -0.084 Cl
HETATM   25  C   UNL     1      -6.823  -3.796 -34.986  1.00  0.00     0.004 A 
HETATM   26  C   UNL     1      -6.849  -2.445 -34.631  1.00  0.00     0.029 A 
ENDBRANCH  17  20
ENDBRANCH  15  16
ENDBRANCH   1  15
TORSDOF 3
ENDMDL
MODEL 2
REMARK VINA RESULT:      -8.0      4.378      6.261
REMARK  3 active torsions:
REMARK  status: ('A' for Active; 'I' for Inactive)
REMARK    1  A    between atoms: C_6  and  N_7 
REMARK       I    between atoms: N_7  and  C_8 
REMARK    2  A    between atoms: C_8  and  C_9 
REMARK    3  A    between atoms: C_9  and  C_10 
ROOT
HETATM    1  C   UNL     1      -3.787   2.888 -31.927  1.00  0.00     0.286 C 
HETATM    2  N   UNL     1      -2.713   3.667 -32.694  1.00  0.00    -0.056 N 
HETATM    3  H   UNL     1      -2.015   3.017 -33.082  1.00  0.00     0.278 HD
HETATM    4  H   UNL     1      -3.166   4.117 -33.501  1.00  0.00     0.278 HD
HETATM    5  C   UNL     1      -2.008   4.724 -31.886  1.00  0.00     0.209 C 
HETATM    6  C   UNL     1      -3.051   5.648 -31.224  1.00  0.00     0.115 C 
HETATM    7  N   UNL     1      -4.065   4.909 -30.488  1.00  0.00    -0.353 N 
HETATM    8  C   UNL     1      -4.612   3.737 -30.939  1.00  0.00     0.249 C 
HETATM    9  O   UNL     1      -5.675   3.323 -30.483  1.00  0.00    -0.271 OA
HETATM   10  C   UNL     1      -1.076   5.531 -32.786  1.00  0.00     0.035 C 
HETATM   11  C   UNL     1      -0.353   6.598 -31.959  1.00  0.00     0.002 C 
HETATM   12  C   UNL     1      -1.320   7.479 -31.165  1.00  0.00     0.002 C 
HETATM   13  C   UNL     1      -2.327   6.669 -30.345  1.00  0.00     0.027 C 
HETATM   14  H   UNL     1      -4.671   5.421 -29.849  1.00  0.00     0.163 HD
ENDROOT
BRANCH   1  15
HETATM   15  C   UNL     1      -3.223   1.631 -31.252  1.00  0.00     0.146 C 
BRANCH  15  16
HETATM   16  C   UNL     1      -4.045   0.404 -31.584  1.00  0.00     0.224 C 
HETATM   17  N   UNL     1      -3.891  -0.040 -32.881  1.00  0.00    -0.327 N 
HETATM   18  H   UNL     1      -3.109   0.317 -33.425  1.00  0.00     0.169 HD
HETATM   19  O   UNL     1      -4.831  -0.023 -30.746  1.00  0.00    -0.273 OA
BRANCH  17  20
HETATM   20  C   UNL     1      -4.754  -0.904 -33.592  1.00  0.00     0.036 A 
HETATM   21  C   UNL     1      -4.515  -2.267 -33.772  1.00  0.00     0.053 A 
HETATM   22  C   UNL     1      -5.467  -3.063 -34.416  1.00  0.00     0.036 A 
HETATM   23  C   UNL     1      -6.651  -2.511 -34.898  1.00  0.00     0.024 A 
HETATM   24 CL   UNL     1      -5.182  -4.753 -34.586  1.00  0.00    -0.084 Cl
HETATM   25  C   UNL     1      -6.888  -1.149 -34.735  1.00  0.00     0.004 A 
HETATM   26  C   UNL     1      -5.946  -0.352 -34.080  1.00  0.00     0.029 A 
ENDBRANCH  17  20
ENDBRANCH  15  16
ENDBRANCH   1  15
TORSDOF 3
ENDMDL
MODEL 3
REMARK VINA RESULT:      -8.0      3.228      7.294
REMARK  3 active torsions:
REMARK  status: ('A' for Active; 'I' for Inactive)
REMARK    1  A    between atoms: C_6  and  N_7 
REMARK       I    between atoms: N_7  and  C_8 
REMARK    2  A    between atoms: C_8  and  C_9 
REMARK    3  A    between atoms: C_9  and  C_10 
ROOT
HETATM    1  C   UNL     1      -4.379   0.194 -32.379  1.00  0.00     0.286 C 
HETATM    2  N   UNL     1      -4.869  -0.618 -33.583  1.00  0.00    -0.056 N 
HETATM    3  H   UNL     1      -5.828  -0.337 -33.830  1.00  0.00     0.278 HD
HETATM    4  H   UNL     1      -4.280  -0.371 -34.390  1.00  0.00     0.278 HD
HETATM    5  C   UNL     1      -4.824  -2.110 -33.393  1.00  0.00     0.209 C 
HETATM    6  C   UNL     1      -3.413  -2.528 -32.931  1.00  0.00     0.115 C 
HETATM    7  N   UNL     1      -2.952  -1.765 -31.782  1.00  0.00    -0.353 N 
HETATM    8  C   UNL     1      -3.175  -0.421 -31.637  1.00  0.00     0.249 C 
HETATM    9  O   UNL     1      -2.505   0.247 -30.854  1.00  0.00    -0.271 OA
HETATM   10  C   UNL     1      -5.187  -2.812 -34.698  1.00  0.00     0.035 C 
HETATM   11  C   UNL     1      -5.151  -4.329 -34.499  1.00  0.00     0.002 C 
HETATM   12  C   UNL     1      -3.821  -4.812 -33.916  1.00  0.00     0.002 C 
HETATM   13  C   UNL     1      -3.401  -4.035 -32.666  1.00  0.00     0.027 C 
HETATM   14  H   UNL     1      -2.134  -2.098 -31.274  1.00  0.00     0.163 HD
ENDROOT
BRANCH   1  15
HETATM   15  C   UNL     1      -5.516   0.542 -31.410  1.00  0.00     0.146 C 
BRANCH  15  16
HETATM   16  C   UNL     1      -6.633   1.291 -32.106  1.00  0.00     0.224 C 
HETATM   17  N   UNL     1      -7.876   1.093 -31.542  1.00  0.00    -0.327 N 
HETATM   18  H   UNL     1      -7.927   0.677 -30.616  1.00  0.00     0.169 HD
HETATM   19  O   UNL     1      -6.378   1.905 -33.135  1.00  0.00    -0.273 OA
BRANCH  17  20
HETATM   20  C   UNL     1      -9.131   1.342 -32.142  1.00  0.00     0.036 A 
HETATM   21  C   UNL     1      -9.708   2.609 -32.243  1.00  0.00     0.053 A 
HETATM   22  C   UNL     1     -10.914   2.774 -32.931  1.00  0.00     0.036 A 
HETATM   23  C   UNL     1     -11.562   1.684 -33.507  1.00  0.00     0.024 A 
HETATM   24 CL   UNL     1     -11.589   4.350 -33.091  1.00  0.00    -0.084 Cl
HETATM   25  C   UNL     1     -10.999   0.416 -33.397  1.00  0.00     0.004 A 
HETATM   26  C   UNL     1      -9.786   0.248 -32.723  1.00  0.00     0.029 A 
ENDBRANCH  17  20
ENDBRANCH  15  16
ENDBRANCH   1  15
TORSDOF 3
ENDMDL
MODEL 4
REMARK VINA RESULT:      -7.9      4.897      7.549
REMARK  3 active torsions:
REMARK  status: ('A' for Active; 'I' for Inactive)
REMARK    1  A    between atoms: C_6  and  N_7 
REMARK       I    between atoms: N_7  and  C_8 
REMARK    2  A    between atoms: C_8  and  C_9 
REMARK    3  A    between atoms: C_9  and  C_10 
ROOT
HETATM    1  C   UNL     1      -6.349   1.470 -32.647  1.00  0.00     0.286 C 
HETATM    2  N   UNL     1      -5.198   0.458 -32.681  1.00  0.00    -0.056 N 
HETATM    3  H   UNL     1      -4.305   0.945 -32.839  1.00  0.00     0.278 HD
HETATM    4  H   UNL     1      -5.129   0.029 -31.748  1.00  0.00     0.278 HD
HETATM    5  C   UNL     1      -5.353  -0.635 -33.704  1.00  0.00     0.209 C 
HETATM    6  C   UNL     1      -6.730  -1.309 -33.533  1.00  0.00     0.115 C 
HETATM    7  N   UNL     1      -7.823  -0.350 -33.511  1.00  0.00    -0.353 N 
HETATM    8  C   UNL     1      -7.747   0.858 -32.870  1.00  0.00     0.249 C 
HETATM    9  O   UNL     1      -8.765   1.484 -32.584  1.00  0.00    -0.271 OA
HETATM   10  C   UNL     1      -4.234  -1.660 -33.544  1.00  0.00     0.035 C 
HETATM   11  C   UNL     1      -4.388  -2.764 -34.593  1.00  0.00     0.002 C 
HETATM   12  C   UNL     1      -5.781  -3.399 -34.575  1.00  0.00     0.002 C 
HETATM   13  C   UNL     1      -6.908  -2.364 -34.626  1.00  0.00     0.027 C 
HETATM   14  H   UNL     1      -8.775  -0.698 -33.612  1.00  0.00     0.163 HD
ENDROOT
BRANCH   1  15
HETATM   15  C   UNL     1      -6.103   2.662 -33.580  1.00  0.00     0.146 C 
BRANCH  15  16
HETATM   16  C   UNL     1      -5.023   3.577 -33.044  1.00  0.00     0.224 C 
HETATM   17  N   UNL     1      -4.703   4.620 -33.887  1.00  0.00    -0.327 N 
HETATM   18  H   UNL     1      -5.334   4.833 -34.655  1.00  0.00     0.169 HD
HETATM   19  O   UNL     1      -4.464   3.276 -31.996  1.00  0.00    -0.273 OA
BRANCH  17  20
HETATM   20  C   UNL     1      -3.532   5.412 -33.855  1.00  0.00     0.036 A 
HETATM   21  C   UNL     1      -3.352   6.502 -33.002  1.00  0.00     0.053 A 
HETATM   22  C   UNL     1      -2.127   7.174 -32.977  1.00  0.00     0.036 A 
HETATM   23  C   UNL     1      -1.080   6.781 -33.807  1.00  0.00     0.024 A 
HETATM   24 CL   UNL     1      -1.902   8.485 -31.884  1.00  0.00    -0.084 Cl
HETATM   25  C   UNL     1      -1.258   5.703 -34.670  1.00  0.00     0.004 A 
HETATM   26  C   UNL     1      -2.476   5.019 -34.689  1.00  0.00     0.029 A 
ENDBRANCH  17  20
ENDBRANCH  15  16
ENDBRANCH   1  15
TORSDOF 3
ENDMDL
MODEL 5
REMARK VINA RESULT:      -7.9      3.422      7.586
REMARK  3 active torsions:
REMARK  status: ('A' for Active; 'I' for Inactive)
REMARK    1  A    between atoms: C_6  and  N_7 
REMARK       I    between atoms: N_7  and  C_8 
REMARK    2  A    between atoms: C_8  and  C_9 
REMARK    3  A    between atoms: C_9  and  C_10 
ROOT
HETATM    1  C   UNL     1      -5.907  -0.133 -33.943  1.00  0.00     0.286 C 
HETATM    2  N   UNL     1      -5.967  -1.402 -34.801  1.00  0.00    -0.056 N 
HETATM    3  H   UNL     1      -6.931  -1.564 -35.123  1.00  0.00     0.278 HD
HETATM    4  H   UNL     1      -5.406  -1.235 -35.648  1.00  0.00     0.278 HD
HETATM    5  C   UNL     1      -5.456  -2.643 -34.121  1.00  0.00     0.209 C 
HETATM    6  C   UNL     1      -4.047  -2.378 -33.554  1.00  0.00     0.115 C 
HETATM    7  N   UNL     1      -3.992  -1.180 -32.731  1.00  0.00    -0.353 N 
HETATM    8  C   UNL     1      -4.658  -0.024 -33.045  1.00  0.00     0.249 C 
HETATM    9  O   UNL     1      -4.335   1.046 -32.536  1.00  0.00    -0.271 OA
HETATM   10  C   UNL     1      -5.422  -3.803 -35.113  1.00  0.00     0.035 C 
HETATM   11  C   UNL     1      -4.913  -5.067 -34.416  1.00  0.00     0.002 C 
HETATM   12  C   UNL     1      -3.571  -4.848 -33.713  1.00  0.00     0.002 C 
HETATM   13  C   UNL     1      -3.570  -3.620 -32.799  1.00  0.00     0.027 C 
HETATM   14  H   UNL     1      -3.171  -1.030 -32.146  1.00  0.00     0.163 HD
ENDROOT
BRANCH   1  15
HETATM   15  C   UNL     1      -7.195   0.088 -33.140  1.00  0.00     0.146 C 
BRANCH  15  16
HETATM   16  C   UNL     1      -8.325   0.574 -34.022  1.00  0.00     0.224 C 
HETATM   17  N   UNL     1      -9.283   1.307 -33.353  1.00  0.00    -0.327 N 
HETATM   18  H   UNL     1      -9.064   1.653 -32.421  1.00  0.00     0.169 HD
HETATM   19  O   UNL     1      -8.358   0.210 -35.191  1.00  0.00    -0.273 OA
BRANCH  17  20
HETATM   20  C   UNL     1     -10.598   1.586 -33.787  1.00  0.00     0.036 A 
HETATM   21  C   UNL     1     -10.957   2.733 -34.497  1.00  0.00     0.053 A 
HETATM   22  C   UNL     1     -12.267   2.885 -34.962  1.00  0.00     0.036 A 
HETATM   23  C   UNL     1     -13.230   1.910 -34.714  1.00  0.00     0.024 A 
HETATM   24 CL   UNL     1     -12.683   4.281 -35.879  1.00  0.00    -0.084 Cl
HETATM   25  C   UNL     1     -12.882   0.770 -33.995  1.00  0.00     0.004 A 
HETATM   26  C   UNL     1     -11.571   0.607 -33.540  1.00  0.00     0.029 A 
ENDBRANCH  17  20
ENDBRANCH  15  16
ENDBRANCH   1  15
TORSDOF 3
ENDMDL
MODEL 6
REMARK VINA RESULT:      -7.6      5.213      7.229
REMARK  3 active torsions:
REMARK  status: ('A' for Active; 'I' for Inactive)
REMARK    1  A    between atoms: C_6  and  N_7 
REMARK       I    between atoms: N_7  and  C_8 
REMARK    2  A    between atoms: C_8  and  C_9 
REMARK    3  A    between atoms: C_9  and  C_10 
ROOT
HETATM    1  C   UNL     1      -3.499   4.164 -33.349  1.00  0.00     0.286 C 
HETATM    2  N   UNL     1      -2.426   3.905 -32.285  1.00  0.00    -0.056 N 
HETATM    3  H   UNL     1      -2.816   3.336 -31.521  1.00  0.00     0.278 HD
HETATM    4  H   UNL     1      -1.685   3.336 -32.718  1.00  0.00     0.278 HD
HETATM    5  C   UNL     1      -1.802   5.147 -31.708  1.00  0.00     0.209 C 
HETATM    6  C   UNL     1      -1.298   6.050 -32.852  1.00  0.00     0.115 C 
HETATM    7  N   UNL     1      -2.319   6.305 -33.856  1.00  0.00    -0.353 N 
HETATM    8  C   UNL     1      -3.196   5.345 -34.291  1.00  0.00     0.249 C 
HETATM    9  O   UNL     1      -3.805   5.484 -35.349  1.00  0.00    -0.271 OA
HETATM   10  C   UNL     1      -0.652   4.770 -30.780  1.00  0.00     0.035 C 
HETATM   11  C   UNL     1      -0.027   6.035 -30.186  1.00  0.00     0.002 C 
HETATM   12  C   UNL     1       0.384   7.045 -31.260  1.00  0.00     0.002 C 
HETATM   13  C   UNL     1      -0.738   7.344 -32.258  1.00  0.00     0.027 C 
HETATM   14  H   UNL     1      -2.159   7.047 -34.535  1.00  0.00     0.163 HD
ENDROOT
BRANCH   1  15
HETATM   15  C   UNL     1      -4.903   4.275 -32.742  1.00  0.00     0.146 C 
BRANCH  15  16
HETATM   16  C   UNL     1      -5.819   3.182 -33.252  1.00  0.00     0.224 C 
HETATM   17  N   UNL     1      -5.560   1.939 -32.714  1.00  0.00    -0.327 N 
HETATM   18  H   UNL     1      -4.968   1.882 -31.889  1.00  0.00     0.169 HD
HETATM   19  O   UNL     1      -6.618   3.451 -34.141  1.00  0.00    -0.273 OA
BRANCH  17  20
HETATM   20  C   UNL     1      -5.973   0.688 -33.227  1.00  0.00     0.036 A 
HETATM   21  C   UNL     1      -5.093  -0.310 -33.647  1.00  0.00     0.053 A 
HETATM   22  C   UNL     1      -5.590  -1.550 -34.059  1.00  0.00     0.036 A 
HETATM   23  C   UNL     1      -6.959  -1.803 -34.071  1.00  0.00     0.024 A 
HETATM   24 CL   UNL     1      -4.490  -2.790 -34.527  1.00  0.00    -0.084 Cl
HETATM   25  C   UNL     1      -7.843  -0.806 -33.667  1.00  0.00     0.004 A 
HETATM   26  C   UNL     1      -7.351   0.431 -33.241  1.00  0.00     0.029 A 
ENDBRANCH  17  20
ENDBRANCH  15  16
ENDBRANCH   1  15
TORSDOF 3
ENDMDL
MODEL 7
REMARK VINA RESULT:      -7.6      2.179      2.831
REMARK  3 active torsions:
REMARK  status: ('A' for Active; 'I' for Inactive)
REMARK    1  A    between atoms: C_6  and  N_7 
REMARK       I    between atoms: N_7  and  C_8 
REMARK    2  A    between atoms: C_8  and  C_9 
REMARK    3  A    between atoms: C_9  and  C_10 
ROOT
HETATM    1  C   UNL     1      -4.854   2.768 -31.636  1.00  0.00     0.286 C 
HETATM    2  N   UNL     1      -6.112   2.096 -31.075  1.00  0.00    -0.056 N 
HETATM    3  H   UNL     1      -5.853   1.406 -30.357  1.00  0.00     0.278 HD
HETATM    4  H   UNL     1      -6.666   2.818 -30.593  1.00  0.00     0.278 HD
HETATM    5  C   UNL     1      -6.983   1.433 -32.108  1.00  0.00     0.209 C 
HETATM    6  C   UNL     1      -7.299   2.436 -33.237  1.00  0.00     0.115 C 
HETATM    7  N   UNL     1      -6.104   3.066 -33.776  1.00  0.00    -0.353 N 
HETATM    8  C   UNL     1      -5.052   3.468 -32.995  1.00  0.00     0.249 C 
HETATM    9  O   UNL     1      -4.231   4.279 -33.416  1.00  0.00    -0.271 OA
HETATM   10  C   UNL     1      -8.271   0.935 -31.461  1.00  0.00     0.035 C 
HETATM   11  C   UNL     1      -9.149   0.250 -32.513  1.00  0.00     0.002 C 
HETATM   12  C   UNL     1      -9.403   1.140 -33.732  1.00  0.00     0.002 C 
HETATM   13  C   UNL     1      -8.118   1.729 -34.319  1.00  0.00     0.027 C 
HETATM   14  H   UNL     1      -6.180   3.580 -34.652  1.00  0.00     0.163 HD
ENDROOT
BRANCH   1  15
HETATM   15  C   UNL     1      -3.651   1.818 -31.664  1.00  0.00     0.146 C 
BRANCH  15  16
HETATM   16  C   UNL     1      -4.080   0.379 -31.856  1.00  0.00     0.224 C 
HETATM   17  N   UNL     1      -3.997  -0.061 -33.160  1.00  0.00    -0.327 N 
HETATM   18  H   UNL     1      -3.464   0.494 -33.826  1.00  0.00     0.169 HD
HETATM   19  O   UNL     1      -4.548  -0.228 -30.900  1.00  0.00    -0.273 OA
BRANCH  17  20
HETATM   20  C   UNL     1      -4.639  -1.189 -33.720  1.00  0.00     0.036 A 
HETATM   21  C   UNL     1      -4.093  -2.473 -33.727  1.00  0.00     0.053 A 
HETATM   22  C   UNL     1      -4.838  -3.546 -34.226  1.00  0.00     0.036 A 
HETATM   23  C   UNL     1      -6.120  -3.350 -34.734  1.00  0.00     0.024 A 
HETATM   24 CL   UNL     1      -4.171  -5.132 -34.182  1.00  0.00    -0.084 Cl
HETATM   25  C   UNL     1      -6.665  -2.069 -34.743  1.00  0.00     0.004 A 
HETATM   26  C   UNL     1      -5.930  -0.996 -34.233  1.00  0.00     0.029 A 
ENDBRANCH  17  20
ENDBRANCH  15  16
ENDBRANCH   1  15
TORSDOF 3
ENDMDL
MODEL 8
REMARK VINA RESULT:      -7.6      5.533      7.962
REMARK  3 active torsions:
REMARK  status: ('A' for Active; 'I' for Inactive)
REMARK    1  A    between atoms: C_6  and  N_7 
REMARK       I    between atoms: N_7  and  C_8 
REMARK    2  A    between atoms: C_8  and  C_9 
REMARK    3  A    between atoms: C_9  and  C_10 
ROOT
HETATM    1  C   UNL     1      -5.314   1.841 -31.953  1.00  0.00     0.286 C 
HETATM    2  N   UNL     1      -4.661   0.459 -32.067  1.00  0.00    -0.056 N 
HETATM    3  H   UNL     1      -3.636   0.551 -32.058  1.00  0.00     0.278 HD
HETATM    4  H   UNL     1      -4.909  -0.076 -31.223  1.00  0.00     0.278 HD
HETATM    5  C   UNL     1      -5.077  -0.333 -33.277  1.00  0.00     0.209 C 
HETATM    6  C   UNL     1      -6.616  -0.396 -33.349  1.00  0.00     0.115 C 
HETATM    7  N   UNL     1      -7.235   0.916 -33.252  1.00  0.00    -0.353 N 
HETATM    8  C   UNL     1      -6.788   1.894 -32.401  1.00  0.00     0.249 C 
HETATM    9  O   UNL     1      -7.509   2.841 -32.097  1.00  0.00    -0.271 OA
HETATM   10  C   UNL     1      -4.488  -1.739 -33.207  1.00  0.00     0.035 C 
HETATM   11  C   UNL     1      -4.903  -2.538 -34.445  1.00  0.00     0.002 C 
HETATM   12  C   UNL     1      -6.419  -2.540 -34.660  1.00  0.00     0.002 C 
HETATM   13  C   UNL     1      -7.027  -1.135 -34.624  1.00  0.00     0.027 C 
HETATM   14  H   UNL     1      -8.220   1.008 -33.494  1.00  0.00     0.163 HD
ENDROOT
BRANCH   1  15
HETATM   15  C   UNL     1      -4.481   2.935 -32.634  1.00  0.00     0.146 C 
BRANCH  15  16
HETATM   16  C   UNL     1      -3.383   3.446 -31.727  1.00  0.00     0.224 C 
HETATM   17  N   UNL     1      -3.224   4.816 -31.757  1.00  0.00    -0.327 N 
HETATM   18  H   UNL     1      -3.960   5.379 -32.175  1.00  0.00     0.169 HD
HETATM   19  O   UNL     1      -2.679   2.634 -31.140  1.00  0.00    -0.273 OA
BRANCH  17  20
HETATM   20  C   UNL     1      -2.096   5.551 -31.326  1.00  0.00     0.036 A 
HETATM   21  C   UNL     1      -2.140   6.534 -30.336  1.00  0.00     0.053 A 
HETATM   22  C   UNL     1      -0.958   7.150 -29.912  1.00  0.00     0.036 A 
HETATM   23  C   UNL     1       0.268   6.806 -30.475  1.00  0.00     0.024 A 
HETATM   24 CL   UNL     1      -1.020   8.325 -28.655  1.00  0.00    -0.084 Cl
HETATM   25  C   UNL     1       0.316   5.837 -31.472  1.00  0.00     0.004 A 
HETATM   26  C   UNL     1      -0.860   5.208 -31.891  1.00  0.00     0.029 A 
ENDBRANCH  17  20
ENDBRANCH  15  16
ENDBRANCH   1  15
TORSDOF 3
ENDMDL
MODEL 9
REMARK VINA RESULT:      -7.4      2.324      4.288
REMARK  3 active torsions:
REMARK  status: ('A' for Active; 'I' for Inactive)
REMARK    1  A    between atoms: C_6  and  N_7 
REMARK       I    between atoms: N_7  and  C_8 
REMARK    2  A    between atoms: C_8  and  C_9 
REMARK    3  A    between atoms: C_9  and  C_10 
ROOT
HETATM    1  C   UNL     1      -8.631   1.836 -33.193  1.00  0.00     0.286 C 
HETATM    2  N   UNL     1      -7.489   2.840 -33.380  1.00  0.00    -0.056 N 
HETATM    3  H   UNL     1      -7.439   3.139 -34.364  1.00  0.00     0.278 HD
HETATM    4  H   UNL     1      -7.718   3.683 -32.836  1.00  0.00     0.278 HD
HETATM    5  C   UNL     1      -6.137   2.341 -32.946  1.00  0.00     0.209 C 
HETATM    6  C   UNL     1      -6.225   1.805 -31.502  1.00  0.00     0.115 C 
HETATM    7  N   UNL     1      -7.302   0.844 -31.327  1.00  0.00    -0.353 N 
HETATM    8  C   UNL     1      -8.534   0.986 -31.911  1.00  0.00     0.249 C 
HETATM    9  O   UNL     1      -9.505   0.363 -31.488  1.00  0.00    -0.271 OA
HETATM   10  C   UNL     1      -5.112   3.467 -33.035  1.00  0.00     0.035 C 
HETATM   11  C   UNL     1      -3.736   2.953 -32.604  1.00  0.00     0.002 C 
HETATM   12  C   UNL     1      -3.765   2.286 -31.227  1.00  0.00     0.002 C 
HETATM   13  C   UNL     1      -4.866   1.228 -31.100  1.00  0.00     0.027 C 
HETATM   14  H   UNL     1      -7.317   0.280 -30.479  1.00  0.00     0.163 HD
ENDROOT
BRANCH   1  15
HETATM   15  C   UNL     1      -8.844   0.959 -34.433  1.00  0.00     0.146 C 
BRANCH  15  16
HETATM   16  C   UNL     1      -7.580   0.218 -34.816  1.00  0.00     0.224 C 
HETATM   17  N   UNL     1      -7.453  -1.018 -34.218  1.00  0.00    -0.327 N 
HETATM   18  H   UNL     1      -8.271  -1.428 -33.775  1.00  0.00     0.169 HD
HETATM   19  O   UNL     1      -6.752   0.789 -35.515  1.00  0.00    -0.273 OA
BRANCH  17  20
HETATM   20  C   UNL     1      -6.270  -1.779 -34.080  1.00  0.00     0.036 A 
HETATM   21  C   UNL     1      -5.213  -1.430 -33.237  1.00  0.00     0.053 A 
HETATM   22  C   UNL     1      -4.118  -2.288 -33.099  1.00  0.00     0.036 A 
HETATM   23  C   UNL     1      -4.056  -3.486 -33.805  1.00  0.00     0.024 A 
HETATM   24 CL   UNL     1      -2.846  -1.868 -32.017  1.00  0.00    -0.084 Cl
HETATM   25  C   UNL     1      -5.100  -3.833 -34.658  1.00  0.00     0.004 A 
HETATM   26  C   UNL     1      -6.204  -2.986 -34.790  1.00  0.00     0.029 A 
ENDBRANCH  17  20
ENDBRANCH  15  16
ENDBRANCH   1  15
TORSDOF 3
ENDMDL
MODEL 10
REMARK VINA RESULT:      -7.2     14.656     16.833
REMARK  3 active torsions:
REMARK  status: ('A' for Active; 'I' for Inactive)
REMARK    1  A    between atoms: C_6  and  N_7 
REMARK       I    between atoms: N_7  and  C_8 
REMARK    2  A    between atoms: C_8  and  C_9 
REMARK    3  A    between atoms: C_9  and  C_10 
ROOT
HETATM    1  C   UNL     1      -3.972 -13.307 -37.997  1.00  0.00     0.286 C 
HETATM    2  N   UNL     1      -2.986 -13.168 -39.162  1.00  0.00    -0.056 N 
HETATM    3  H   UNL     1      -3.476 -13.304 -40.057  1.00  0.00     0.278 HD
HETATM    4  H   UNL     1      -2.642 -12.198 -39.169  1.00  0.00     0.278 HD
HETATM    5  C   UNL     1      -1.804 -14.097 -39.098  1.00  0.00     0.209 C 
HETATM    6  C   UNL     1      -1.119 -13.966 -37.723  1.00  0.00     0.115 C 
HETATM    7  N   UNL     1      -2.052 -14.109 -36.617  1.00  0.00    -0.353 N 
HETATM    8  C   UNL     1      -3.314 -13.573 -36.628  1.00  0.00     0.249 C 
HETATM    9  O   UNL     1      -3.940 -13.418 -35.583  1.00  0.00    -0.271 OA
HETATM   10  C   UNL     1      -0.821 -13.768 -40.218  1.00  0.00     0.035 C 
HETATM   11  C   UNL     1       0.374 -14.723 -40.157  1.00  0.00     0.002 C 
HETATM   12  C   UNL     1       1.034 -14.747 -38.777  1.00  0.00     0.002 C 
HETATM   13  C   UNL     1       0.032 -14.971 -37.641  1.00  0.00     0.027 C 
HETATM   14  H   UNL     1      -1.678 -14.246 -35.680  1.00  0.00     0.163 HD
ENDROOT
BRANCH   1  15
HETATM   15  C   UNL     1      -5.083 -14.322 -38.293  1.00  0.00     0.146 C 
BRANCH  15  16
HETATM   16  C   UNL     1      -6.189 -13.712 -39.126  1.00  0.00     0.224 C 
HETATM   17  N   UNL     1      -7.440 -13.810 -38.554  1.00  0.00    -0.327 N 
HETATM   18  H   UNL     1      -7.504 -14.056 -37.569  1.00  0.00     0.169 HD
HETATM   19  O   UNL     1      -5.919 -13.288 -40.243  1.00  0.00    -0.273 OA
BRANCH  17  20
HETATM   20  C   UNL     1      -8.687 -13.674 -39.206  1.00  0.00     0.036 A 
HETATM   21  C   UNL     1      -9.285 -12.446 -39.495  1.00  0.00     0.053 A 
HETATM   22  C   UNL     1     -10.479 -12.405 -40.221  1.00  0.00     0.036 A 
HETATM   23  C   UNL     1     -11.094 -13.578 -40.651  1.00  0.00     0.024 A 
HETATM   24 CL   UNL     1     -11.179 -10.882 -40.613  1.00  0.00    -0.084 Cl
HETATM   25  C   UNL     1     -10.510 -14.806 -40.354  1.00  0.00     0.004 A 
HETATM   26  C   UNL     1      -9.309 -14.852 -39.640  1.00  0.00     0.029 A 
ENDBRANCH  17  20
ENDBRANCH  15  16
ENDBRANCH   1  15
TORSDOF 3
ENDMDL
