MODEL 1
REMARK VINA RESULT:      -9.4      0.000      0.000
REMARK  9 active torsions:
REMARK  status: ('A' for Active; 'I' for Inactive)
REMARK    1  A    between atoms: C_2  and  N_3 
REMARK    2  A    between atoms: C_2  and  C_11 
REMARK    3  A    between atoms: N_3  and  C_4 
REMARK    4  A    between atoms: N_12  and  C_13 
REMARK    5  A    between atoms: C_19  and  S_20 
REMARK    6  A    between atoms: S_20  and  C_21 
REMARK    7  A    between atoms: C_21  and  C_22 
REMARK       I    between atoms: C_22  and  N_23 
REMARK    8  A    between atoms: N_23  and  C_24 
REMARK    9  A    between atoms: C_26  and  N_27 
REMARK       I    between atoms: N_27  and  C_28 
ROOT
HETATM    1  C   UNL     1      -5.897   2.064 -30.892  1.00  0.00     0.158 A 
HETATM    2  N   UNL     1      -7.081   2.598 -31.401  1.00  0.00    -0.274 N 
HETATM    3  C   UNL     1      -7.062   3.912 -30.963  1.00  0.00     0.196 A 
HETATM    4  N   UNL     1      -6.029   4.115 -30.175  1.00  0.00    -0.122 NA
HETATM    5  N   UNL     1      -5.306   2.962 -30.122  1.00  0.00    -0.131 NA
ENDROOT
BRANCH   3   6
HETATM    6  S   UNL     1      -8.309   5.090 -31.229  1.00  0.00    -0.080 SA
BRANCH   6   7
HETATM    7  C   UNL     1      -7.840   5.760 -32.851  1.00  0.00     0.185 C 
BRANCH   7   8
HETATM    8  C   UNL     1      -6.355   6.087 -32.881  1.00  0.00     0.231 C 
HETATM    9  N   UNL     1      -5.594   5.123 -33.524  1.00  0.00    -0.326 N 
HETATM   10  H   UNL     1      -6.096   4.291 -33.837  1.00  0.00     0.169 HD
HETATM   11  O   UNL     1      -5.934   7.118 -32.365  1.00  0.00    -0.272 OA
BRANCH   9  12
HETATM   12  C   UNL     1      -4.195   5.101 -33.697  1.00  0.00     0.036 A 
HETATM   13  C   UNL     1      -3.416   4.832 -32.556  1.00  0.00     0.059 A 
HETATM   14  C   UNL     1      -2.021   4.798 -32.624  1.00  0.00     0.036 A 
HETATM   15  C   UNL     1      -1.408   5.063 -33.854  1.00  0.00     0.029 A 
HETATM   16  C   UNL     1      -2.169   5.326 -34.992  1.00  0.00     0.004 A 
HETATM   17  C   UNL     1      -3.560   5.339 -34.915  1.00  0.00     0.029 A 
BRANCH  14  18
HETATM   18  N   UNL     1      -1.155   4.552 -31.543  1.00  0.00    -0.327 N 
HETATM   19  C   UNL     1      -0.185   5.277 -30.919  1.00  0.00     0.218 C 
HETATM   20  C   UNL     1       0.064   6.719 -31.247  1.00  0.00     0.117 C 
HETATM   21  O   UNL     1       0.479   4.717 -30.040  1.00  0.00    -0.274 OA
HETATM   22  H   UNL     1      -1.243   3.643 -31.104  1.00  0.00     0.169 HD
ENDBRANCH  14  18
ENDBRANCH   9  12
ENDBRANCH   7   8
ENDBRANCH   6   7
ENDBRANCH   3   6
BRANCH   2  23
HETATM   23  C   UNL     1      -8.076   1.929 -32.160  1.00  0.00     0.043 A 
HETATM   24  C   UNL     1      -8.842   0.917 -31.565  1.00  0.00     0.030 A 
HETATM   25  C   UNL     1      -9.838   0.270 -32.299  1.00  0.00     0.002 A 
HETATM   26  C   UNL     1     -10.076   0.631 -33.623  1.00  0.00     0.000 A 
HETATM   27  C   UNL     1      -9.319   1.640 -34.218  1.00  0.00     0.002 A 
HETATM   28  C   UNL     1      -8.321   2.292 -33.490  1.00  0.00     0.030 A 
ENDBRANCH   2  23
BRANCH   1  29
HETATM   29  C   UNL     1      -5.288   0.755 -31.340  1.00  0.00     0.150 C 
HETATM   30  C   UNL     1      -3.853   0.623 -30.808  1.00  0.00     0.040 C 
BRANCH  29  31
HETATM   31  N   UNL     1      -5.266   0.653 -32.806  1.00  0.00    -0.379 N 
HETATM   32  H   UNL     1      -4.534   1.234 -33.209  1.00  0.00     0.160 HD
BRANCH  31  33
HETATM   33  C   UNL     1      -5.413  -0.556 -33.482  1.00  0.00     0.028 A 
HETATM   34  C   UNL     1      -4.374  -1.471 -33.687  1.00  0.00     0.030 A 
HETATM   35  C   UNL     1      -4.601  -2.702 -34.317  1.00  0.00     0.021 A 
HETATM   36  C   UNL     1      -5.886  -3.046 -34.724  1.00  0.00     0.011 A 
HETATM   37 BR   UNL     1      -6.194  -4.705 -35.573  1.00  0.00    -0.051 Br
HETATM   38  C   UNL     1      -6.945  -2.177 -34.492  1.00  0.00     0.021 A 
HETATM   39  C   UNL     1      -6.706  -0.950 -33.864  1.00  0.00     0.030 A 
ENDBRANCH  31  33
ENDBRANCH  29  31
ENDBRANCH   1  29
TORSDOF 9
ENDMDL
MODEL 2
REMARK VINA RESULT:      -9.0      4.480      8.838
REMARK  9 active torsions:
REMARK  status: ('A' for Active; 'I' for Inactive)
REMARK    1  A    between atoms: C_2  and  N_3 
REMARK    2  A    between atoms: C_2  and  C_11 
REMARK    3  A    between atoms: N_3  and  C_4 
REMARK    4  A    between atoms: N_12  and  C_13 
REMARK    5  A    between atoms: C_19  and  S_20 
REMARK    6  A    between atoms: S_20  and  C_21 
REMARK    7  A    between atoms: C_21  and  C_22 
REMARK       I    between atoms: C_22  and  N_23 
REMARK    8  A    between atoms: N_23  and  C_24 
REMARK    9  A    between atoms: C_26  and  N_27 
REMARK       I    between atoms: N_27  and  C_28 
ROOT
HETATM    1  C   UNL     1      -1.332   5.249 -30.945  1.00  0.00     0.158 A 
HETATM    2  N   UNL     1      -2.485   6.015 -30.778  1.00  0.00    -0.274 N 
HETATM    3  C   UNL     1      -3.506   5.155 -31.149  1.00  0.00     0.196 A 
HETATM    4  N   UNL     1      -3.007   4.026 -31.604  1.00  0.00    -0.122 NA
HETATM    5  N   UNL     1      -1.651   4.086 -31.486  1.00  0.00    -0.131 NA
ENDROOT
BRANCH   3   6
HETATM    6  S   UNL     1      -5.195   5.549 -31.212  1.00  0.00    -0.080 SA
BRANCH   6   7
HETATM    7  C   UNL     1      -5.414   5.937 -32.973  1.00  0.00     0.185 C 
BRANCH   7   8
HETATM    8  C   UNL     1      -5.447   4.658 -33.797  1.00  0.00     0.231 C 
HETATM    9  N   UNL     1      -5.984   3.579 -33.113  1.00  0.00    -0.326 N 
HETATM   10  H   UNL     1      -6.226   3.743 -32.136  1.00  0.00     0.169 HD
HETATM   11  O   UNL     1      -5.022   4.649 -34.950  1.00  0.00    -0.272 OA
BRANCH   9  12
HETATM   12  C   UNL     1      -6.128   2.252 -33.570  1.00  0.00     0.036 A 
HETATM   13  C   UNL     1      -5.281   1.286 -32.998  1.00  0.00     0.059 A 
HETATM   14  C   UNL     1      -5.341  -0.054 -33.391  1.00  0.00     0.036 A 
HETATM   15  C   UNL     1      -6.252  -0.413 -34.392  1.00  0.00     0.029 A 
HETATM   16  C   UNL     1      -7.100   0.535 -34.963  1.00  0.00     0.004 A 
HETATM   17  C   UNL     1      -7.041   1.864 -34.549  1.00  0.00     0.029 A 
BRANCH  14  18
HETATM   18  N   UNL     1      -4.533  -1.091 -32.892  1.00  0.00    -0.327 N 
HETATM   19  C   UNL     1      -3.528  -1.154 -31.975  1.00  0.00     0.218 C 
HETATM   20  C   UNL     1      -3.152   0.023 -31.126  1.00  0.00     0.117 C 
HETATM   21  O   UNL     1      -2.939  -2.232 -31.836  1.00  0.00    -0.274 OA
HETATM   22  H   UNL     1      -4.709  -2.013 -33.276  1.00  0.00     0.169 HD
ENDBRANCH  14  18
ENDBRANCH   9  12
ENDBRANCH   7   8
ENDBRANCH   6   7
ENDBRANCH   3   6
BRANCH   2  23
HETATM   23  C   UNL     1      -2.573   7.367 -30.355  1.00  0.00     0.043 A 
HETATM   24  C   UNL     1      -2.948   7.660 -29.037  1.00  0.00     0.030 A 
HETATM   25  C   UNL     1      -3.014   8.987 -28.606  1.00  0.00     0.002 A 
HETATM   26  C   UNL     1      -2.704  10.022 -29.485  1.00  0.00     0.000 A 
HETATM   27  C   UNL     1      -2.327   9.735 -30.796  1.00  0.00     0.002 A 
HETATM   28  C   UNL     1      -2.258   8.410 -31.234  1.00  0.00     0.030 A 
ENDBRANCH   2  23
BRANCH   1  29
HETATM   29  C   UNL     1       0.024   5.613 -30.385  1.00  0.00     0.150 C 
HETATM   30  C   UNL     1       1.111   4.702 -30.977  1.00  0.00     0.040 C 
BRANCH  29  31
HETATM   31  N   UNL     1       0.045   5.492 -28.921  1.00  0.00    -0.379 N 
HETATM   32  H   UNL     1       0.566   4.670 -28.622  1.00  0.00     0.160 HD
BRANCH  31  33
HETATM   33  C   UNL     1       0.243   6.580 -28.074  1.00  0.00     0.028 A 
HETATM   34  C   UNL     1       0.880   7.766 -28.458  1.00  0.00     0.030 A 
HETATM   35  C   UNL     1       0.989   8.852 -27.578  1.00  0.00     0.021 A 
HETATM   36  C   UNL     1       0.432   8.773 -26.307  1.00  0.00     0.011 A 
HETATM   37 BR   UNL     1       0.578  10.234 -25.120  1.00  0.00    -0.051 Br
HETATM   38  C   UNL     1      -0.245   7.625 -25.914  1.00  0.00     0.021 A 
HETATM   39  C   UNL     1      -0.347   6.547 -26.800  1.00  0.00     0.030 A 
ENDBRANCH  31  33
ENDBRANCH  29  31
ENDBRANCH   1  29
TORSDOF 9
ENDMDL
MODEL 3
REMARK VINA RESULT:      -8.9      4.679      9.240
REMARK  9 active torsions:
REMARK  status: ('A' for Active; 'I' for Inactive)
REMARK    1  A    between atoms: C_2  and  N_3 
REMARK    2  A    between atoms: C_2  and  C_11 
REMARK    3  A    between atoms: N_3  and  C_4 
REMARK    4  A    between atoms: N_12  and  C_13 
REMARK    5  A    between atoms: C_19  and  S_20 
REMARK    6  A    between atoms: S_20  and  C_21 
REMARK    7  A    between atoms: C_21  and  C_22 
REMARK       I    between atoms: C_22  and  N_23 
REMARK    8  A    between atoms: N_23  and  C_24 
REMARK    9  A    between atoms: C_26  and  N_27 
REMARK       I    between atoms: N_27  and  C_28 
ROOT
HETATM    1  C   UNL     1      -1.205   5.251 -31.080  1.00  0.00     0.158 A 
HETATM    2  N   UNL     1      -2.413   5.898 -30.818  1.00  0.00    -0.274 N 
HETATM    3  C   UNL     1      -3.364   5.043 -31.351  1.00  0.00     0.196 A 
HETATM    4  N   UNL     1      -2.780   4.042 -31.973  1.00  0.00    -0.122 NA
HETATM    5  N   UNL     1      -1.433   4.174 -31.813  1.00  0.00    -0.131 NA
ENDROOT
BRANCH   3   6
HETATM    6  S   UNL     1      -5.076   5.325 -31.390  1.00  0.00    -0.080 SA
BRANCH   6   7
HETATM    7  C   UNL     1      -5.678   4.088 -30.204  1.00  0.00     0.185 C 
BRANCH   7   8
HETATM    8  C   UNL     1      -6.302   2.910 -30.936  1.00  0.00     0.231 C 
HETATM    9  N   UNL     1      -5.728   2.668 -32.174  1.00  0.00    -0.326 N 
HETATM   10  H   UNL     1      -5.015   3.333 -32.476  1.00  0.00     0.169 HD
HETATM   11  O   UNL     1      -7.225   2.279 -30.428  1.00  0.00    -0.272 OA
BRANCH   9  12
HETATM   12  C   UNL     1      -6.090   1.682 -33.116  1.00  0.00     0.036 A 
HETATM   13  C   UNL     1      -5.321   0.505 -33.133  1.00  0.00     0.059 A 
HETATM   14  C   UNL     1      -5.594  -0.526 -34.035  1.00  0.00     0.036 A 
HETATM   15  C   UNL     1      -6.643  -0.352 -34.946  1.00  0.00     0.029 A 
HETATM   16  C   UNL     1      -7.416   0.809 -34.936  1.00  0.00     0.004 A 
HETATM   17  C   UNL     1      -7.143   1.822 -34.018  1.00  0.00     0.029 A 
BRANCH  14  18
HETATM   18  N   UNL     1      -4.880  -1.733 -34.142  1.00  0.00    -0.327 N 
HETATM   19  C   UNL     1      -5.232  -3.029 -34.369  1.00  0.00     0.218 C 
HETATM   20  C   UNL     1      -6.635  -3.419 -34.727  1.00  0.00     0.117 C 
HETATM   21  O   UNL     1      -4.348  -3.889 -34.299  1.00  0.00    -0.274 OA
HETATM   22  H   UNL     1      -3.874  -1.662 -34.031  1.00  0.00     0.169 HD
ENDBRANCH  14  18
ENDBRANCH   9  12
ENDBRANCH   7   8
ENDBRANCH   6   7
ENDBRANCH   3   6
BRANCH   2  23
HETATM   23  C   UNL     1      -2.603   7.151 -30.181  1.00  0.00     0.043 A 
HETATM   24  C   UNL     1      -3.243   7.208 -28.935  1.00  0.00     0.030 A 
HETATM   25  C   UNL     1      -3.413   8.435 -28.291  1.00  0.00     0.002 A 
HETATM   26  C   UNL     1      -2.943   9.605 -28.883  1.00  0.00     0.000 A 
HETATM   27  C   UNL     1      -2.303   9.553 -30.120  1.00  0.00     0.002 A 
HETATM   28  C   UNL     1      -2.129   8.329 -30.770  1.00  0.00     0.030 A 
ENDBRANCH   2  23
BRANCH   1  29
HETATM   29  C   UNL     1       0.114   5.609 -30.434  1.00  0.00     0.150 C 
HETATM   30  C   UNL     1       1.233   4.697 -30.961  1.00  0.00     0.040 C 
BRANCH  29  31
HETATM   31  N   UNL     1       0.042   5.482 -28.972  1.00  0.00    -0.379 N 
HETATM   32  H   UNL     1       0.527   4.648 -28.646  1.00  0.00     0.160 HD
BRANCH  31  33
HETATM   33  C   UNL     1       0.209   6.563 -28.110  1.00  0.00     0.028 A 
HETATM   34  C   UNL     1       0.872   7.746 -28.455  1.00  0.00     0.030 A 
HETATM   35  C   UNL     1       0.949   8.825 -27.564  1.00  0.00     0.021 A 
HETATM   36  C   UNL     1       0.332   8.742 -26.320  1.00  0.00     0.011 A 
HETATM   37 BR   UNL     1       0.434  10.195 -25.118  1.00  0.00    -0.051 Br
HETATM   38  C   UNL     1      -0.371   7.597 -25.968  1.00  0.00     0.021 A 
HETATM   39  C   UNL     1      -0.440   6.526 -26.865  1.00  0.00     0.030 A 
ENDBRANCH  31  33
ENDBRANCH  29  31
ENDBRANCH   1  29
TORSDOF 9
ENDMDL
MODEL 4
REMARK VINA RESULT:      -8.8      4.148      8.275
REMARK  9 active torsions:
REMARK  status: ('A' for Active; 'I' for Inactive)
REMARK    1  A    between atoms: C_2  and  N_3 
REMARK    2  A    between atoms: C_2  and  C_11 
REMARK    3  A    between atoms: N_3  and  C_4 
REMARK    4  A    between atoms: N_12  and  C_13 
REMARK    5  A    between atoms: C_19  and  S_20 
REMARK    6  A    between atoms: S_20  and  C_21 
REMARK    7  A    between atoms: C_21  and  C_22 
REMARK       I    between atoms: C_22  and  N_23 
REMARK    8  A    between atoms: N_23  and  C_24 
REMARK    9  A    between atoms: C_26  and  N_27 
REMARK       I    between atoms: N_27  and  C_28 
ROOT
HETATM    1  C   UNL     1      -4.159   5.593 -33.590  1.00  0.00     0.158 A 
HETATM    2  N   UNL     1      -5.228   5.461 -32.704  1.00  0.00    -0.274 N 
HETATM    3  C   UNL     1      -6.101   4.615 -33.369  1.00  0.00     0.196 A 
HETATM    4  N   UNL     1      -5.655   4.360 -34.579  1.00  0.00    -0.122 NA
HETATM    5  N   UNL     1      -4.448   4.975 -34.723  1.00  0.00    -0.131 NA
ENDROOT
BRANCH   3   6
HETATM    6  S   UNL     1      -7.662   4.114 -32.798  1.00  0.00    -0.080 SA
BRANCH   6   7
HETATM    7  C   UNL     1      -7.951   2.620 -33.790  1.00  0.00     0.185 C 
BRANCH   7   8
HETATM    8  C   UNL     1      -7.326   1.407 -33.118  1.00  0.00     0.231 C 
HETATM    9  N   UNL     1      -6.068   1.096 -33.609  1.00  0.00    -0.326 N 
HETATM   10  H   UNL     1      -5.740   1.661 -34.393  1.00  0.00     0.169 HD
HETATM   11  O   UNL     1      -7.931   0.803 -32.236  1.00  0.00    -0.272 OA
BRANCH   9  12
HETATM   12  C   UNL     1      -5.235   0.023 -33.231  1.00  0.00     0.036 A 
HETATM   13  C   UNL     1      -5.333  -1.157 -33.991  1.00  0.00     0.059 A 
HETATM   14  C   UNL     1      -4.556  -2.279 -33.690  1.00  0.00     0.036 A 
HETATM   15  C   UNL     1      -3.689  -2.213 -32.593  1.00  0.00     0.029 A 
HETATM   16  C   UNL     1      -3.580  -1.047 -31.836  1.00  0.00     0.004 A 
HETATM   17  C   UNL     1      -4.347   0.070 -32.158  1.00  0.00     0.029 A 
BRANCH  14  18
HETATM   18  N   UNL     1      -4.589  -3.506 -34.377  1.00  0.00    -0.327 N 
HETATM   19  C   UNL     1      -5.579  -4.372 -34.728  1.00  0.00     0.218 C 
HETATM   20  C   UNL     1      -7.028  -4.047 -34.523  1.00  0.00     0.117 C 
HETATM   21  O   UNL     1      -5.252  -5.442 -35.254  1.00  0.00    -0.274 OA
HETATM   22  H   UNL     1      -3.693  -3.855 -34.700  1.00  0.00     0.169 HD
ENDBRANCH  14  18
ENDBRANCH   9  12
ENDBRANCH   7   8
ENDBRANCH   6   7
ENDBRANCH   3   6
BRANCH   2  23
HETATM   23  C   UNL     1      -5.382   6.079 -31.436  1.00  0.00     0.043 A 
HETATM   24  C   UNL     1      -5.643   7.454 -31.359  1.00  0.00     0.030 A 
HETATM   25  C   UNL     1      -5.819   8.064 -30.116  1.00  0.00     0.002 A 
HETATM   26  C   UNL     1      -5.739   7.308 -28.949  1.00  0.00     0.000 A 
HETATM   27  C   UNL     1      -5.483   5.940 -29.020  1.00  0.00     0.002 A 
HETATM   28  C   UNL     1      -5.306   5.322 -30.261  1.00  0.00     0.030 A 
ENDBRANCH   2  23
BRANCH   1  29
HETATM   29  C   UNL     1      -2.806   6.157 -33.220  1.00  0.00     0.150 C 
HETATM   30  C   UNL     1      -1.850   6.088 -34.420  1.00  0.00     0.040 C 
BRANCH  29  31
HETATM   31  N   UNL     1      -2.214   5.422 -32.094  1.00  0.00    -0.379 N 
HETATM   32  H   UNL     1      -1.855   4.515 -32.388  1.00  0.00     0.160 HD
BRANCH  31  33
HETATM   33  C   UNL     1      -1.400   6.028 -31.139  1.00  0.00     0.028 A 
HETATM   34  C   UNL     1      -0.001   6.028 -31.186  1.00  0.00     0.030 A 
HETATM   35  C   UNL     1       0.760   6.713 -30.230  1.00  0.00     0.021 A 
HETATM   36  C   UNL     1       0.125   7.437 -29.227  1.00  0.00     0.011 A 
HETATM   37 BR   UNL     1       1.149   8.361 -27.938  1.00  0.00    -0.051 Br
HETATM   38  C   UNL     1      -1.262   7.492 -29.182  1.00  0.00     0.021 A 
HETATM   39  C   UNL     1      -2.012   6.803 -30.140  1.00  0.00     0.030 A 
ENDBRANCH  31  33
ENDBRANCH  29  31
ENDBRANCH   1  29
TORSDOF 9
ENDMDL
MODEL 5
REMARK VINA RESULT:      -8.7      2.784      4.060
REMARK  9 active torsions:
REMARK  status: ('A' for Active; 'I' for Inactive)
REMARK    1  A    between atoms: C_2  and  N_3 
REMARK    2  A    between atoms: C_2  and  C_11 
REMARK    3  A    between atoms: N_3  and  C_4 
REMARK    4  A    between atoms: N_12  and  C_13 
REMARK    5  A    between atoms: C_19  and  S_20 
REMARK    6  A    between atoms: S_20  and  C_21 
REMARK    7  A    between atoms: C_21  and  C_22 
REMARK       I    between atoms: C_22  and  N_23 
REMARK    8  A    between atoms: N_23  and  C_24 
REMARK    9  A    between atoms: C_26  and  N_27 
REMARK       I    between atoms: N_27  and  C_28 
ROOT
HETATM    1  C   UNL     1      -4.431   2.250 -31.997  1.00  0.00     0.158 A 
HETATM    2  N   UNL     1      -5.061   3.350 -32.580  1.00  0.00    -0.274 N 
HETATM    3  C   UNL     1      -4.009   4.108 -33.068  1.00  0.00     0.196 A 
HETATM    4  N   UNL     1      -2.860   3.577 -32.711  1.00  0.00    -0.122 NA
HETATM    5  N   UNL     1      -3.120   2.423 -32.036  1.00  0.00    -0.131 NA
ENDROOT
BRANCH   3   6
HETATM    6  S   UNL     1      -4.148   5.647 -33.859  1.00  0.00    -0.080 SA
BRANCH   6   7
HETATM    7  C   UNL     1      -2.413   6.012 -34.256  1.00  0.00     0.185 C 
BRANCH   7   8
HETATM    8  C   UNL     1      -1.820   6.958 -33.223  1.00  0.00     0.231 C 
HETATM    9  N   UNL     1      -1.555   6.347 -32.007  1.00  0.00    -0.326 N 
HETATM   10  H   UNL     1      -1.844   5.371 -31.923  1.00  0.00     0.169 HD
HETATM   11  O   UNL     1      -1.623   8.138 -33.500  1.00  0.00    -0.272 OA
BRANCH   9  12
HETATM   12  C   UNL     1      -1.040   6.940 -30.836  1.00  0.00     0.036 A 
HETATM   13  C   UNL     1      -1.960   7.593 -29.995  1.00  0.00     0.059 A 
HETATM   14  C   UNL     1      -1.545   8.220 -28.817  1.00  0.00     0.036 A 
HETATM   15  C   UNL     1      -0.181   8.205 -28.500  1.00  0.00     0.029 A 
HETATM   16  C   UNL     1       0.738   7.556 -29.323  1.00  0.00     0.004 A 
HETATM   17  C   UNL     1       0.309   6.921 -30.486  1.00  0.00     0.029 A 
BRANCH  14  18
HETATM   18  N   UNL     1      -2.380   8.908 -27.918  1.00  0.00    -0.327 N 
HETATM   19  C   UNL     1      -3.142   8.535 -26.853  1.00  0.00     0.218 C 
HETATM   20  C   UNL     1      -3.108   7.141 -26.302  1.00  0.00     0.117 C 
HETATM   21  O   UNL     1      -3.856   9.394 -26.324  1.00  0.00    -0.274 OA
HETATM   22  H   UNL     1      -2.455   9.909 -28.064  1.00  0.00     0.169 HD
ENDBRANCH  14  18
ENDBRANCH   9  12
ENDBRANCH   7   8
ENDBRANCH   6   7
ENDBRANCH   3   6
BRANCH   2  23
HETATM   23  C   UNL     1      -6.452   3.625 -32.628  1.00  0.00     0.043 A 
HETATM   24  C   UNL     1      -7.203   3.221 -33.740  1.00  0.00     0.030 A 
HETATM   25  C   UNL     1      -8.576   3.468 -33.784  1.00  0.00     0.002 A 
HETATM   26  C   UNL     1      -9.205   4.113 -32.721  1.00  0.00     0.000 A 
HETATM   27  C   UNL     1      -8.462   4.513 -31.611  1.00  0.00     0.002 A 
HETATM   28  C   UNL     1      -7.087   4.269 -31.560  1.00  0.00     0.030 A 
ENDBRANCH   2  23
BRANCH   1  29
HETATM   29  C   UNL     1      -5.135   0.974 -31.597  1.00  0.00     0.150 C 
HETATM   30  C   UNL     1      -5.424   0.972 -30.088  1.00  0.00     0.040 C 
BRANCH  29  31
HETATM   31  N   UNL     1      -4.328  -0.207 -31.931  1.00  0.00    -0.379 N 
HETATM   32  H   UNL     1      -3.893  -0.608 -31.103  1.00  0.00     0.160 HD
BRANCH  31  33
HETATM   33  C   UNL     1      -4.751  -1.183 -32.831  1.00  0.00     0.028 A 
HETATM   34  C   UNL     1      -3.982  -2.292 -33.202  1.00  0.00     0.030 A 
HETATM   35  C   UNL     1      -4.490  -3.276 -34.062  1.00  0.00     0.021 A 
HETATM   36  C   UNL     1      -5.793  -3.175 -34.538  1.00  0.00     0.011 A 
HETATM   37 BR   UNL     1      -6.480  -4.500 -35.695  1.00  0.00    -0.051 Br
HETATM   38  C   UNL     1      -6.594  -2.109 -34.150  1.00  0.00     0.021 A 
HETATM   39  C   UNL     1      -6.076  -1.132 -33.293  1.00  0.00     0.030 A 
ENDBRANCH  31  33
ENDBRANCH  29  31
ENDBRANCH   1  29
TORSDOF 9
ENDMDL
MODEL 6
REMARK VINA RESULT:      -8.6      3.346      6.612
REMARK  9 active torsions:
REMARK  status: ('A' for Active; 'I' for Inactive)
REMARK    1  A    between atoms: C_2  and  N_3 
REMARK    2  A    between atoms: C_2  and  C_11 
REMARK    3  A    between atoms: N_3  and  C_4 
REMARK    4  A    between atoms: N_12  and  C_13 
REMARK    5  A    between atoms: C_19  and  S_20 
REMARK    6  A    between atoms: S_20  and  C_21 
REMARK    7  A    between atoms: C_21  and  C_22 
REMARK       I    between atoms: C_22  and  N_23 
REMARK    8  A    between atoms: N_23  and  C_24 
REMARK    9  A    between atoms: C_26  and  N_27 
REMARK       I    between atoms: N_27  and  C_28 
ROOT
HETATM    1  C   UNL     1      -5.218   2.546 -31.553  1.00  0.00     0.158 A 
HETATM    2  N   UNL     1      -6.399   3.087 -32.063  1.00  0.00    -0.274 N 
HETATM    3  C   UNL     1      -6.184   4.454 -32.004  1.00  0.00     0.196 A 
HETATM    4  N   UNL     1      -5.038   4.710 -31.411  1.00  0.00    -0.122 NA
HETATM    5  N   UNL     1      -4.438   3.522 -31.121  1.00  0.00    -0.131 NA
ENDROOT
BRANCH   3   6
HETATM    6  S   UNL     1      -7.327   5.682 -32.449  1.00  0.00    -0.080 SA
BRANCH   6   7
HETATM    7  C   UNL     1      -8.081   6.079 -30.845  1.00  0.00     0.185 C 
BRANCH   7   8
HETATM    8  C   UNL     1      -9.304   5.208 -30.603  1.00  0.00     0.231 C 
HETATM    9  N   UNL     1     -10.393   5.564 -31.383  1.00  0.00    -0.326 N 
HETATM   10  H   UNL     1     -10.275   6.393 -31.967  1.00  0.00     0.169 HD
HETATM   11  O   UNL     1      -9.267   4.296 -29.781  1.00  0.00    -0.272 OA
BRANCH   9  12
HETATM   12  C   UNL     1     -11.681   4.989 -31.382  1.00  0.00     0.036 A 
HETATM   13  C   UNL     1     -11.874   3.858 -32.196  1.00  0.00     0.059 A 
HETATM   14  C   UNL     1     -13.117   3.224 -32.271  1.00  0.00     0.036 A 
HETATM   15  C   UNL     1     -14.181   3.755 -31.530  1.00  0.00     0.029 A 
HETATM   16  C   UNL     1     -13.999   4.872 -30.716  1.00  0.00     0.004 A 
HETATM   17  C   UNL     1     -12.750   5.484 -30.638  1.00  0.00     0.029 A 
BRANCH  14  18
HETATM   18  N   UNL     1     -13.417   2.099 -33.061  1.00  0.00    -0.327 N 
HETATM   19  C   UNL     1     -13.338   1.827 -34.393  1.00  0.00     0.218 C 
HETATM   20  C   UNL     1     -12.702   2.777 -35.362  1.00  0.00     0.117 C 
HETATM   21  O   UNL     1     -13.788   0.746 -34.789  1.00  0.00    -0.274 OA
HETATM   22  H   UNL     1     -13.772   1.291 -32.563  1.00  0.00     0.169 HD
ENDBRANCH  14  18
ENDBRANCH   9  12
ENDBRANCH   7   8
ENDBRANCH   6   7
ENDBRANCH   3   6
BRANCH   2  23
HETATM   23  C   UNL     1      -7.551   2.387 -32.505  1.00  0.00     0.043 A 
HETATM   24  C   UNL     1      -8.242   1.553 -31.615  1.00  0.00     0.030 A 
HETATM   25  C   UNL     1      -9.390   0.879 -32.036  1.00  0.00     0.002 A 
HETATM   26  C   UNL     1      -9.853   1.036 -33.341  1.00  0.00     0.000 A 
HETATM   27  C   UNL     1      -9.171   1.866 -34.228  1.00  0.00     0.002 A 
HETATM   28  C   UNL     1      -8.022   2.545 -33.814  1.00  0.00     0.030 A 
ENDBRANCH   2  23
BRANCH   1  29
HETATM   29  C   UNL     1      -4.814   1.096 -31.689  1.00  0.00     0.150 C 
HETATM   30  C   UNL     1      -3.543   0.815 -30.873  1.00  0.00     0.040 C 
BRANCH  29  31
HETATM   31  N   UNL     1      -4.569   0.740 -33.093  1.00  0.00    -0.379 N 
HETATM   32  H   UNL     1      -3.636   1.018 -33.391  1.00  0.00     0.160 HD
BRANCH  31  33
HETATM   33  C   UNL     1      -4.959  -0.478 -33.645  1.00  0.00     0.028 A 
HETATM   34  C   UNL     1      -4.149  -1.619 -33.677  1.00  0.00     0.030 A 
HETATM   35  C   UNL     1      -4.625  -2.835 -34.186  1.00  0.00     0.021 A 
HETATM   36  C   UNL     1      -5.934  -2.931 -34.644  1.00  0.00     0.011 A 
HETATM   37 BR   UNL     1      -6.576  -4.569 -35.330  1.00  0.00    -0.051 Br
HETATM   38  C   UNL     1      -6.775  -1.827 -34.582  1.00  0.00     0.021 A 
HETATM   39  C   UNL     1      -6.289  -0.617 -34.073  1.00  0.00     0.030 A 
ENDBRANCH  31  33
ENDBRANCH  29  31
ENDBRANCH   1  29
TORSDOF 9
ENDMDL
MODEL 7
REMARK VINA RESULT:      -8.6      4.685      9.707
REMARK  9 active torsions:
REMARK  status: ('A' for Active; 'I' for Inactive)
REMARK    1  A    between atoms: C_2  and  N_3 
REMARK    2  A    between atoms: C_2  and  C_11 
REMARK    3  A    between atoms: N_3  and  C_4 
REMARK    4  A    between atoms: N_12  and  C_13 
REMARK    5  A    between atoms: C_19  and  S_20 
REMARK    6  A    between atoms: S_20  and  C_21 
REMARK    7  A    between atoms: C_21  and  C_22 
REMARK       I    between atoms: C_22  and  N_23 
REMARK    8  A    between atoms: N_23  and  C_24 
REMARK    9  A    between atoms: C_26  and  N_27 
REMARK       I    between atoms: N_27  and  C_28 
ROOT
HETATM    1  C   UNL     1      -1.281   5.273 -30.975  1.00  0.00     0.158 A 
HETATM    2  N   UNL     1      -2.435   6.031 -30.781  1.00  0.00    -0.274 N 
HETATM    3  C   UNL     1      -3.455   5.181 -31.176  1.00  0.00     0.196 A 
HETATM    4  N   UNL     1      -2.956   4.068 -31.668  1.00  0.00    -0.122 NA
HETATM    5  N   UNL     1      -1.600   4.126 -31.551  1.00  0.00    -0.131 NA
ENDROOT
BRANCH   3   6
HETATM    6  S   UNL     1      -5.145   5.574 -31.223  1.00  0.00    -0.080 SA
BRANCH   6   7
HETATM    7  C   UNL     1      -5.826   4.408 -30.008  1.00  0.00     0.185 C 
BRANCH   7   8
HETATM    8  C   UNL     1      -6.293   3.135 -30.699  1.00  0.00     0.231 C 
HETATM    9  N   UNL     1      -6.836   3.361 -31.954  1.00  0.00    -0.326 N 
HETATM   10  H   UNL     1      -6.920   4.338 -32.237  1.00  0.00     0.169 HD
HETATM   11  O   UNL     1      -6.177   2.046 -30.143  1.00  0.00    -0.272 OA
BRANCH   9  12
HETATM   12  C   UNL     1      -7.389   2.412 -32.838  1.00  0.00     0.036 A 
HETATM   13  C   UNL     1      -8.728   2.040 -32.618  1.00  0.00     0.059 A 
HETATM   14  C   UNL     1      -9.363   1.101 -33.434  1.00  0.00     0.036 A 
HETATM   15  C   UNL     1      -8.626   0.514 -34.470  1.00  0.00     0.029 A 
HETATM   16  C   UNL     1      -7.300   0.879 -34.702  1.00  0.00     0.004 A 
HETATM   17  C   UNL     1      -6.685   1.830 -33.891  1.00  0.00     0.029 A 
BRANCH  14  18
HETATM   18  N   UNL     1     -10.688   0.653 -33.290  1.00  0.00    -0.327 N 
HETATM   19  C   UNL     1     -11.881   1.027 -33.829  1.00  0.00     0.218 C 
HETATM   20  C   UNL     1     -11.972   2.044 -34.928  1.00  0.00     0.117 C 
HETATM   21  O   UNL     1     -12.905   0.481 -33.404  1.00  0.00    -0.274 OA
HETATM   22  H   UNL     1     -10.826  -0.122 -32.650  1.00  0.00     0.169 HD
ENDBRANCH  14  18
ENDBRANCH   9  12
ENDBRANCH   7   8
ENDBRANCH   6   7
ENDBRANCH   3   6
BRANCH   2  23
HETATM   23  C   UNL     1      -2.524   7.369 -30.316  1.00  0.00     0.043 A 
HETATM   24  C   UNL     1      -2.877   7.619 -28.982  1.00  0.00     0.030 A 
HETATM   25  C   UNL     1      -2.943   8.931 -28.511  1.00  0.00     0.002 A 
HETATM   26  C   UNL     1      -2.656   9.995 -29.363  1.00  0.00     0.000 A 
HETATM   27  C   UNL     1      -2.301   9.751 -30.689  1.00  0.00     0.002 A 
HETATM   28  C   UNL     1      -2.231   8.440 -31.168  1.00  0.00     0.030 A 
ENDBRANCH   2  23
BRANCH   1  29
HETATM   29  C   UNL     1       0.076   5.621 -30.407  1.00  0.00     0.150 C 
HETATM   30  C   UNL     1       1.154   4.694 -30.989  1.00  0.00     0.040 C 
BRANCH  29  31
HETATM   31  N   UNL     1       0.085   5.505 -28.943  1.00  0.00    -0.379 N 
HETATM   32  H   UNL     1       0.571   4.663 -28.638  1.00  0.00     0.160 HD
BRANCH  31  33
HETATM   33  C   UNL     1       0.325   6.587 -28.099  1.00  0.00     0.028 A 
HETATM   34  C   UNL     1       0.903   7.792 -28.515  1.00  0.00     0.030 A 
HETATM   35  C   UNL     1       1.056   8.869 -27.632  1.00  0.00     0.021 A 
HETATM   36  C   UNL     1       0.602   8.762 -26.322  1.00  0.00     0.011 A 
HETATM   37 BR   UNL     1       0.807  10.213 -25.130  1.00  0.00    -0.051 Br
HETATM   38  C   UNL     1      -0.017   7.594 -25.894  1.00  0.00     0.021 A 
HETATM   39  C   UNL     1      -0.163   6.525 -26.784  1.00  0.00     0.030 A 
ENDBRANCH  31  33
ENDBRANCH  29  31
ENDBRANCH   1  29
TORSDOF 9
ENDMDL
MODEL 8
REMARK VINA RESULT:      -8.6      3.931      8.183
REMARK  9 active torsions:
REMARK  status: ('A' for Active; 'I' for Inactive)
REMARK    1  A    between atoms: C_2  and  N_3 
REMARK    2  A    between atoms: C_2  and  C_11 
REMARK    3  A    between atoms: N_3  and  C_4 
REMARK    4  A    between atoms: N_12  and  C_13 
REMARK    5  A    between atoms: C_19  and  S_20 
REMARK    6  A    between atoms: S_20  and  C_21 
REMARK    7  A    between atoms: C_21  and  C_22 
REMARK       I    between atoms: C_22  and  N_23 
REMARK    8  A    between atoms: N_23  and  C_24 
REMARK    9  A    between atoms: C_26  and  N_27 
REMARK       I    between atoms: N_27  and  C_28 
ROOT
HETATM    1  C   UNL     1      -3.786   5.921 -33.575  1.00  0.00     0.158 A 
HETATM    2  N   UNL     1      -4.706   6.127 -32.546  1.00  0.00    -0.274 N 
HETATM    3  C   UNL     1      -5.848   5.485 -32.996  1.00  0.00     0.196 A 
HETATM    4  N   UNL     1      -5.669   5.040 -34.221  1.00  0.00    -0.122 NA
HETATM    5  N   UNL     1      -4.387   5.318 -34.587  1.00  0.00    -0.131 NA
ENDROOT
BRANCH   3   6
HETATM    6  S   UNL     1      -7.376   5.436 -32.174  1.00  0.00    -0.080 SA
BRANCH   6   7
HETATM    7  C   UNL     1      -7.119   4.068 -31.007  1.00  0.00     0.185 C 
BRANCH   7   8
HETATM    8  C   UNL     1      -7.487   2.742 -31.655  1.00  0.00     0.231 C 
HETATM    9  N   UNL     1      -6.641   2.385 -32.693  1.00  0.00    -0.326 N 
HETATM   10  H   UNL     1      -5.926   3.069 -32.944  1.00  0.00     0.169 HD
HETATM   11  O   UNL     1      -8.453   2.099 -31.253  1.00  0.00    -0.272 OA
BRANCH   9  12
HETATM   12  C   UNL     1      -6.721   1.245 -33.519  1.00  0.00     0.036 A 
HETATM   13  C   UNL     1      -5.736   0.257 -33.339  1.00  0.00     0.059 A 
HETATM   14  C   UNL     1      -5.724  -0.904 -34.115  1.00  0.00     0.036 A 
HETATM   15  C   UNL     1      -6.707  -1.055 -35.102  1.00  0.00     0.029 A 
HETATM   16  C   UNL     1      -7.691  -0.084 -35.287  1.00  0.00     0.004 A 
HETATM   17  C   UNL     1      -7.701   1.061 -34.493  1.00  0.00     0.029 A 
BRANCH  14  18
HETATM   18  N   UNL     1      -4.780  -1.942 -34.022  1.00  0.00    -0.327 N 
HETATM   19  C   UNL     1      -4.815  -3.283 -34.260  1.00  0.00     0.218 C 
HETATM   20  C   UNL     1      -6.008  -3.949 -34.876  1.00  0.00     0.117 C 
HETATM   21  O   UNL     1      -3.812  -3.947 -33.975  1.00  0.00    -0.274 OA
HETATM   22  H   UNL     1      -3.853  -1.670 -33.714  1.00  0.00     0.169 HD
ENDBRANCH  14  18
ENDBRANCH   9  12
ENDBRANCH   7   8
ENDBRANCH   6   7
ENDBRANCH   3   6
BRANCH   2  23
HETATM   23  C   UNL     1      -4.509   6.851 -31.342  1.00  0.00     0.043 A 
HETATM   24  C   UNL     1      -4.308   6.159 -30.139  1.00  0.00     0.030 A 
HETATM   25  C   UNL     1      -4.091   6.864 -28.954  1.00  0.00     0.002 A 
HETATM   26  C   UNL     1      -4.069   8.257 -28.965  1.00  0.00     0.000 A 
HETATM   27  C   UNL     1      -4.265   8.949 -30.159  1.00  0.00     0.002 A 
HETATM   28  C   UNL     1      -4.482   8.250 -31.349  1.00  0.00     0.030 A 
ENDBRANCH   2  23
BRANCH   1  29
HETATM   29  C   UNL     1      -2.297   6.149 -33.449  1.00  0.00     0.150 C 
HETATM   30  C   UNL     1      -1.583   5.760 -34.753  1.00  0.00     0.040 C 
BRANCH  29  31
HETATM   31  N   UNL     1      -1.731   5.366 -32.342  1.00  0.00    -0.379 N 
HETATM   32  H   UNL     1      -1.287   4.514 -32.677  1.00  0.00     0.160 HD
BRANCH  31  33
HETATM   33  C   UNL     1      -1.032   5.945 -31.285  1.00  0.00     0.028 A 
HETATM   34  C   UNL     1      -1.024   7.318 -31.009  1.00  0.00     0.030 A 
HETATM   35  C   UNL     1      -0.356   7.832 -29.890  1.00  0.00     0.021 A 
HETATM   36  C   UNL     1       0.291   6.969 -29.012  1.00  0.00     0.011 A 
HETATM   37 BR   UNL     1       1.192   7.660 -27.503  1.00  0.00    -0.051 Br
HETATM   38  C   UNL     1       0.261   5.598 -29.235  1.00  0.00     0.021 A 
HETATM   39  C   UNL     1      -0.408   5.097 -30.357  1.00  0.00     0.030 A 
ENDBRANCH  31  33
ENDBRANCH  29  31
ENDBRANCH   1  29
TORSDOF 9
ENDMDL
MODEL 9
REMARK VINA RESULT:      -8.1      3.145      4.141
REMARK  9 active torsions:
REMARK  status: ('A' for Active; 'I' for Inactive)
REMARK    1  A    between atoms: C_2  and  N_3 
REMARK    2  A    between atoms: C_2  and  C_11 
REMARK    3  A    between atoms: N_3  and  C_4 
REMARK    4  A    between atoms: N_12  and  C_13 
REMARK    5  A    between atoms: C_19  and  S_20 
REMARK    6  A    between atoms: S_20  and  C_21 
REMARK    7  A    between atoms: C_21  and  C_22 
REMARK       I    between atoms: C_22  and  N_23 
REMARK    8  A    between atoms: N_23  and  C_24 
REMARK    9  A    between atoms: C_26  and  N_27 
REMARK       I    between atoms: N_27  and  C_28 
ROOT
HETATM    1  C   UNL     1      -4.996   2.567 -31.394  1.00  0.00     0.158 A 
HETATM    2  N   UNL     1      -5.841   3.671 -31.501  1.00  0.00    -0.274 N 
HETATM    3  C   UNL     1      -4.971   4.749 -31.504  1.00  0.00     0.196 A 
HETATM    4  N   UNL     1      -3.737   4.340 -31.302  1.00  0.00    -0.122 NA
HETATM    5  N   UNL     1      -3.751   2.980 -31.225  1.00  0.00    -0.131 NA
ENDROOT
BRANCH   3   6
HETATM    6  S   UNL     1      -5.427   6.423 -31.558  1.00  0.00    -0.080 SA
BRANCH   6   7
HETATM    7  C   UNL     1      -5.279   6.898 -29.811  1.00  0.00     0.185 C 
BRANCH   7   8
HETATM    8  C   UNL     1      -3.958   7.613 -29.566  1.00  0.00     0.231 C 
HETATM    9  N   UNL     1      -2.915   6.751 -29.267  1.00  0.00    -0.326 N 
HETATM   10  H   UNL     1      -3.160   5.764 -29.181  1.00  0.00     0.169 HD
HETATM   11  O   UNL     1      -3.890   8.837 -29.637  1.00  0.00    -0.272 OA
BRANCH   9  12
HETATM   12  C   UNL     1      -1.581   7.085 -28.956  1.00  0.00     0.036 A 
HETATM   13  C   UNL     1      -1.327   7.545 -27.652  1.00  0.00     0.059 A 
HETATM   14  C   UNL     1      -0.039   7.910 -27.251  1.00  0.00     0.036 A 
HETATM   15  C   UNL     1       0.998   7.830 -28.189  1.00  0.00     0.029 A 
HETATM   16  C   UNL     1       0.759   7.370 -29.483  1.00  0.00     0.004 A 
HETATM   17  C   UNL     1      -0.527   6.993 -29.864  1.00  0.00     0.029 A 
BRANCH  14  18
HETATM   18  N   UNL     1       0.317   8.392 -25.978  1.00  0.00    -0.327 N 
HETATM   19  C   UNL     1       0.554   9.631 -25.465  1.00  0.00     0.218 C 
HETATM   20  C   UNL     1       0.312  10.880 -26.258  1.00  0.00     0.117 C 
HETATM   21  O   UNL     1       0.957   9.706 -24.298  1.00  0.00    -0.274 OA
HETATM   22  H   UNL     1       0.429   7.691 -25.255  1.00  0.00     0.169 HD
ENDBRANCH  14  18
ENDBRANCH   9  12
ENDBRANCH   7   8
ENDBRANCH   6   7
ENDBRANCH   3   6
BRANCH   2  23
HETATM   23  C   UNL     1      -7.259   3.674 -31.561  1.00  0.00     0.043 A 
HETATM   24  C   UNL     1      -7.902   3.773 -32.802  1.00  0.00     0.030 A 
HETATM   25  C   UNL     1      -9.296   3.752 -32.871  1.00  0.00     0.002 A 
HETATM   26  C   UNL     1     -10.052   3.630 -31.707  1.00  0.00     0.000 A 
HETATM   27  C   UNL     1      -9.416   3.527 -30.471  1.00  0.00     0.002 A 
HETATM   28  C   UNL     1      -8.021   3.547 -30.394  1.00  0.00     0.030 A 
ENDBRANCH   2  23
BRANCH   1  29
HETATM   29  C   UNL     1      -5.417   1.139 -31.660  1.00  0.00     0.150 C 
HETATM   30  C   UNL     1      -5.411   0.328 -30.356  1.00  0.00     0.040 C 
BRANCH  29  31
HETATM   31  N   UNL     1      -4.524   0.493 -32.630  1.00  0.00    -0.379 N 
HETATM   32  H   UNL     1      -3.564   0.462 -32.291  1.00  0.00     0.160 HD
BRANCH  31  33
HETATM   33  C   UNL     1      -4.873  -0.660 -33.330  1.00  0.00     0.028 A 
HETATM   34  C   UNL     1      -4.068  -1.803 -33.410  1.00  0.00     0.030 A 
HETATM   35  C   UNL     1      -4.506  -2.957 -34.074  1.00  0.00     0.021 A 
HETATM   36  C   UNL     1      -5.775  -2.991 -34.642  1.00  0.00     0.011 A 
HETATM   37 BR   UNL     1      -6.366  -4.545 -35.537  1.00  0.00    -0.051 Br
HETATM   38  C   UNL     1      -6.613  -1.888 -34.539  1.00  0.00     0.021 A 
HETATM   39  C   UNL     1      -6.165  -0.741 -33.874  1.00  0.00     0.030 A 
ENDBRANCH  31  33
ENDBRANCH  29  31
ENDBRANCH   1  29
TORSDOF 9
ENDMDL
MODEL 10
REMARK VINA RESULT:      -8.1     16.898     18.964
REMARK  9 active torsions:
REMARK  status: ('A' for Active; 'I' for Inactive)
REMARK    1  A    between atoms: C_2  and  N_3 
REMARK    2  A    between atoms: C_2  and  C_11 
REMARK    3  A    between atoms: N_3  and  C_4 
REMARK    4  A    between atoms: N_12  and  C_13 
REMARK    5  A    between atoms: C_19  and  S_20 
REMARK    6  A    between atoms: S_20  and  C_21 
REMARK    7  A    between atoms: C_21  and  C_22 
REMARK       I    between atoms: C_22  and  N_23 
REMARK    8  A    between atoms: N_23  and  C_24 
REMARK    9  A    between atoms: C_26  and  N_27 
REMARK       I    between atoms: N_27  and  C_28 
ROOT
HETATM    1  C   UNL     1      -5.256 -13.220 -38.080  1.00  0.00     0.158 A 
HETATM    2  N   UNL     1      -5.517 -14.351 -37.306  1.00  0.00    -0.274 N 
HETATM    3  C   UNL     1      -4.917 -14.062 -36.092  1.00  0.00     0.196 A 
HETATM    4  N   UNL     1      -4.263 -12.923 -36.166  1.00  0.00    -0.122 NA
HETATM    5  N   UNL     1      -4.465 -12.401 -37.408  1.00  0.00    -0.131 NA
ENDROOT
BRANCH   3   6
HETATM    6  S   UNL     1      -4.846 -15.119 -34.717  1.00  0.00    -0.080 SA
BRANCH   6   7
HETATM    7  C   UNL     1      -3.080 -15.543 -34.673  1.00  0.00     0.185 C 
BRANCH   7   8
HETATM    8  C   UNL     1      -2.557 -15.782 -36.082  1.00  0.00     0.231 C 
HETATM    9  N   UNL     1      -1.870 -14.697 -36.603  1.00  0.00    -0.326 N 
HETATM   10  H   UNL     1      -1.852 -13.857 -36.024  1.00  0.00     0.169 HD
HETATM   11  O   UNL     1      -2.760 -16.852 -36.649  1.00  0.00    -0.272 OA
BRANCH   9  12
HETATM   12  C   UNL     1      -1.292 -14.575 -37.884  1.00  0.00     0.036 A 
HETATM   13  C   UNL     1      -2.162 -14.289 -38.951  1.00  0.00     0.059 A 
HETATM   14  C   UNL     1      -1.686 -14.158 -40.258  1.00  0.00     0.036 A 
HETATM   15  C   UNL     1      -0.317 -14.343 -40.490  1.00  0.00     0.029 A 
HETATM   16  C   UNL     1       0.555 -14.622 -39.439  1.00  0.00     0.004 A 
HETATM   17  C   UNL     1       0.070 -14.732 -38.137  1.00  0.00     0.029 A 
BRANCH  14  18
HETATM   18  N   UNL     1      -2.472 -13.887 -41.393  1.00  0.00    -0.327 N 
HETATM   19  C   UNL     1      -3.288 -14.638 -42.185  1.00  0.00     0.218 C 
HETATM   20  C   UNL     1      -3.635 -16.057 -41.848  1.00  0.00     0.117 C 
HETATM   21  O   UNL     1      -3.765 -14.105 -43.192  1.00  0.00    -0.274 OA
HETATM   22  H   UNL     1      -2.454 -12.929 -41.725  1.00  0.00     0.169 HD
ENDBRANCH  14  18
ENDBRANCH   9  12
ENDBRANCH   7   8
ENDBRANCH   6   7
ENDBRANCH   3   6
BRANCH   2  23
HETATM   23  C   UNL     1      -6.210 -15.526 -37.698  1.00  0.00     0.043 A 
HETATM   24  C   UNL     1      -7.505 -15.762 -37.216  1.00  0.00     0.030 A 
HETATM   25  C   UNL     1      -8.203 -16.904 -37.614  1.00  0.00     0.002 A 
HETATM   26  C   UNL     1      -7.615 -17.810 -38.494  1.00  0.00     0.000 A 
HETATM   27  C   UNL     1      -6.328 -17.577 -38.978  1.00  0.00     0.002 A 
HETATM   28  C   UNL     1      -5.625 -16.437 -38.585  1.00  0.00     0.030 A 
ENDBRANCH   2  23
BRANCH   1  29
HETATM   29  C   UNL     1      -5.955 -12.894 -39.380  1.00  0.00     0.150 C 
HETATM   30  C   UNL     1      -5.301 -11.675 -40.049  1.00  0.00     0.040 C 
BRANCH  29  31
HETATM   31  N   UNL     1      -7.380 -12.613 -39.163  1.00  0.00    -0.379 N 
HETATM   32  H   UNL     1      -7.558 -11.613 -39.097  1.00  0.00     0.160 HD
BRANCH  31  33
HETATM   33  C   UNL     1      -8.396 -13.287 -39.837  1.00  0.00     0.028 A 
HETATM   34  C   UNL     1      -8.207 -14.470 -40.560  1.00  0.00     0.030 A 
HETATM   35  C   UNL     1      -9.283 -15.137 -41.161  1.00  0.00     0.021 A 
HETATM   36  C   UNL     1     -10.573 -14.641 -41.018  1.00  0.00     0.011 A 
HETATM   37 BR   UNL     1     -12.025 -15.538 -41.826  1.00  0.00    -0.051 Br
HETATM   38  C   UNL     1     -10.798 -13.493 -40.267  1.00  0.00     0.021 A 
HETATM   39  C   UNL     1      -9.716 -12.835 -39.673  1.00  0.00     0.030 A 
ENDBRANCH  31  33
ENDBRANCH  29  31
ENDBRANCH   1  29
TORSDOF 9
ENDMDL
