MODEL 1
REMARK VINA RESULT:      -9.3      0.000      0.000
REMARK  5 active torsions:
REMARK  status: ('A' for Active; 'I' for Inactive)
REMARK    1  A    between atoms: O_2  and  C_3 
REMARK    2  A    between atoms: C_6  and  C_7 
REMARK    3  A    between atoms: C_12  and  C_13 
REMARK    4  A    between atoms: N_14  and  N_15 
REMARK       I    between atoms: N_15  and  C_16 
REMARK    5  A    between atoms: C_16  and  C_17 
ROOT
HETATM    1  C   UNL     1      -6.853   3.104 -33.773  1.00  0.00     0.154 C 
HETATM    2  N   UNL     1      -6.108   4.008 -34.329  1.00  0.00    -0.183 NA
ENDROOT
BRANCH   1   3
HETATM    3  C   UNL     1      -6.662   2.462 -32.492  1.00  0.00     0.031 A 
HETATM    4  C   UNL     1      -6.339   1.119 -32.110  1.00  0.00     0.100 A 
HETATM    5  N   UNL     1      -6.230   1.027 -30.772  1.00  0.00    -0.174 NA
HETATM    6  N   UNL     1      -6.572   2.233 -30.311  1.00  0.00    -0.288 N 
HETATM    7  H   UNL     1      -6.593   2.375 -29.305  1.00  0.00     0.188 HD
HETATM    8  C   UNL     1      -6.845   3.128 -31.295  1.00  0.00     0.124 A 
BRANCH   4   9
HETATM    9  C   UNL     1      -6.118  -0.077 -32.934  1.00  0.00    -0.005 A 
HETATM   10  C   UNL     1      -7.144  -0.654 -33.689  1.00  0.00     0.016 A 
HETATM   11  C   UNL     1      -6.890  -1.769 -34.495  1.00  0.00     0.037 A 
HETATM   12  C   UNL     1      -5.617  -2.336 -34.553  1.00  0.00     0.068 A 
HETATM   13  C   UNL     1      -4.595  -1.788 -33.783  1.00  0.00     0.037 A 
HETATM   14  C   UNL     1      -4.846  -0.669 -32.979  1.00  0.00     0.016 A 
BRANCH  12  15
HETATM   15  O   UNL     1      -5.506  -3.416 -35.383  1.00  0.00    -0.356 OA
HETATM   16  C   UNL     1      -6.478  -4.444 -35.233  1.00  0.00     0.210 C 
ENDBRANCH  12  15
ENDBRANCH   4   9
ENDBRANCH   1   3
BRANCH   2  17
HETATM   17  N   UNL     1      -5.032   4.527 -33.673  1.00  0.00    -0.243 N 
HETATM   18  C   UNL     1      -4.024   5.139 -34.408  1.00  0.00     0.271 C 
HETATM   19  O   UNL     1      -4.072   5.303 -35.625  1.00  0.00    -0.266 OA
HETATM   20  H   UNL     1      -4.980   4.428 -32.671  1.00  0.00     0.192 HD
BRANCH  18  21
HETATM   21  C   UNL     1      -2.812   5.609 -33.661  1.00  0.00     0.036 A 
HETATM   22  C   UNL     1      -2.311   4.760 -32.657  1.00  0.00     0.057 A 
HETATM   23  C   UNL     1      -1.211   5.172 -31.935  1.00  0.00     0.106 A 
HETATM   24  C   UNL     1      -0.600   6.377 -32.173  1.00  0.00     0.105 A 
HETATM   25  O   UNL     1      -0.610   4.474 -30.934  1.00  0.00    -0.323 OA
HETATM   26  O   UNL     1       0.461   6.595 -31.351  1.00  0.00    -0.323 OA
HETATM   27  C   UNL     1      -1.053   7.236 -33.149  1.00  0.00     0.041 A 
HETATM   28  C   UNL     1       0.446   5.384 -30.565  1.00  0.00     0.352 A 
HETATM   29  C   UNL     1      -2.170   6.846 -33.901  1.00  0.00     0.020 A 
ENDBRANCH  18  21
ENDBRANCH   2  17
TORSDOF 5
ENDMDL
MODEL 2
REMARK VINA RESULT:      -9.0      4.029      7.158
REMARK  5 active torsions:
REMARK  status: ('A' for Active; 'I' for Inactive)
REMARK    1  A    between atoms: O_2  and  C_3 
REMARK    2  A    between atoms: C_6  and  C_7 
REMARK    3  A    between atoms: C_12  and  C_13 
REMARK    4  A    between atoms: N_14  and  N_15 
REMARK       I    between atoms: N_15  and  C_16 
REMARK    5  A    between atoms: C_16  and  C_17 
ROOT
HETATM    1  C   UNL     1      -5.757   2.911 -32.827  1.00  0.00     0.154 C 
HETATM    2  N   UNL     1      -6.480   3.221 -33.858  1.00  0.00    -0.183 NA
ENDROOT
BRANCH   1   3
HETATM    3  C   UNL     1      -6.112   2.052 -31.720  1.00  0.00     0.031 A 
HETATM    4  C   UNL     1      -6.236   0.630 -31.586  1.00  0.00     0.100 A 
HETATM    5  N   UNL     1      -6.558   0.307 -30.320  1.00  0.00    -0.174 NA
HETATM    6  N   UNL     1      -6.735   1.475 -29.696  1.00  0.00    -0.288 N 
HETATM    7  H   UNL     1      -7.024   1.461 -28.722  1.00  0.00     0.188 HD
HETATM    8  C   UNL     1      -6.488   2.550 -30.487  1.00  0.00     0.124 A 
BRANCH   4   9
HETATM    9  C   UNL     1      -6.059  -0.437 -32.579  1.00  0.00    -0.005 A 
HETATM   10  C   UNL     1      -7.090  -0.822 -33.442  1.00  0.00     0.016 A 
HETATM   11  C   UNL     1      -6.876  -1.815 -34.404  1.00  0.00     0.037 A 
HETATM   12  C   UNL     1      -5.639  -2.450 -34.516  1.00  0.00     0.068 A 
HETATM   13  C   UNL     1      -4.614  -2.095 -33.643  1.00  0.00     0.037 A 
HETATM   14  C   UNL     1      -4.825  -1.098 -32.681  1.00  0.00     0.016 A 
BRANCH  12  15
HETATM   15  O   UNL     1      -5.565  -3.395 -35.500  1.00  0.00    -0.356 OA
HETATM   16  C   UNL     1      -6.397  -4.539 -35.356  1.00  0.00     0.210 C 
ENDBRANCH  12  15
ENDBRANCH   4   9
ENDBRANCH   1   3
BRANCH   2  17
HETATM   17  N   UNL     1      -7.711   2.664 -34.041  1.00  0.00    -0.243 N 
HETATM   18  C   UNL     1      -8.802   3.496 -34.259  1.00  0.00     0.271 C 
HETATM   19  O   UNL     1      -8.717   4.718 -34.365  1.00  0.00    -0.266 OA
HETATM   20  H   UNL     1      -7.804   1.662 -33.984  1.00  0.00     0.192 HD
BRANCH  18  21
HETATM   21  C   UNL     1     -10.152   2.853 -34.357  1.00  0.00     0.036 A 
HETATM   22  C   UNL     1     -10.324   1.624 -33.693  1.00  0.00     0.057 A 
HETATM   23  C   UNL     1     -11.548   0.994 -33.782  1.00  0.00     0.106 A 
HETATM   24  C   UNL     1     -12.590   1.535 -34.492  1.00  0.00     0.105 A 
HETATM   25  O   UNL     1     -11.873  -0.194 -33.206  1.00  0.00    -0.323 OA
HETATM   26  O   UNL     1     -13.704   0.755 -34.458  1.00  0.00    -0.323 OA
HETATM   27  C   UNL     1     -12.467   2.737 -35.151  1.00  0.00     0.041 A 
HETATM   28  C   UNL     1     -13.240  -0.343 -33.642  1.00  0.00     0.352 A 
HETATM   29  C   UNL     1     -11.236   3.404 -35.080  1.00  0.00     0.020 A 
ENDBRANCH  18  21
ENDBRANCH   2  17
TORSDOF 5
ENDMDL
MODEL 3
REMARK VINA RESULT:      -8.9      2.241      3.361
REMARK  5 active torsions:
REMARK  status: ('A' for Active; 'I' for Inactive)
REMARK    1  A    between atoms: O_2  and  C_3 
REMARK    2  A    between atoms: C_6  and  C_7 
REMARK    3  A    between atoms: C_12  and  C_13 
REMARK    4  A    between atoms: N_14  and  N_15 
REMARK       I    between atoms: N_15  and  C_16 
REMARK    5  A    between atoms: C_16  and  C_17 
ROOT
HETATM    1  C   UNL     1      -8.109   0.481 -31.608  1.00  0.00     0.154 C 
HETATM    2  N   UNL     1      -7.302   1.209 -30.901  1.00  0.00    -0.183 NA
ENDROOT
BRANCH   1   3
HETATM    3  C   UNL     1      -8.338   0.540 -33.034  1.00  0.00     0.031 A 
HETATM    4  C   UNL     1      -7.743  -0.136 -34.149  1.00  0.00     0.100 A 
HETATM    5  N   UNL     1      -8.340   0.239 -35.295  1.00  0.00    -0.174 NA
HETATM    6  N   UNL     1      -9.207   1.191 -34.942  1.00  0.00    -0.288 N 
HETATM    7  H   UNL     1      -9.747   1.645 -35.672  1.00  0.00     0.188 HD
HETATM    8  C   UNL     1      -9.244   1.415 -33.603  1.00  0.00     0.124 A 
BRANCH   4   9
HETATM    9  C   UNL     1      -6.653  -1.120 -34.193  1.00  0.00    -0.005 A 
HETATM   10  C   UNL     1      -5.356  -0.805 -33.773  1.00  0.00     0.016 A 
HETATM   11  C   UNL     1      -4.350  -1.778 -33.790  1.00  0.00     0.037 A 
HETATM   12  C   UNL     1      -4.613  -3.073 -34.236  1.00  0.00     0.068 A 
HETATM   13  C   UNL     1      -5.894  -3.389 -34.683  1.00  0.00     0.037 A 
HETATM   14  C   UNL     1      -6.903  -2.419 -34.663  1.00  0.00     0.016 A 
BRANCH  12  15
HETATM   15  O   UNL     1      -3.545  -3.923 -34.194  1.00  0.00    -0.356 OA
HETATM   16  C   UNL     1      -3.699  -5.114 -33.432  1.00  0.00     0.210 C 
ENDBRANCH  12  15
ENDBRANCH   4   9
ENDBRANCH   1   3
BRANCH   2  17
HETATM   17  N   UNL     1      -6.479   2.119 -31.495  1.00  0.00    -0.243 N 
HETATM   18  C   UNL     1      -5.104   1.934 -31.421  1.00  0.00     0.271 C 
HETATM   19  O   UNL     1      -4.575   0.954 -30.900  1.00  0.00    -0.266 OA
HETATM   20  H   UNL     1      -6.889   2.919 -31.950  1.00  0.00     0.192 HD
BRANCH  18  21
HETATM   21  C   UNL     1      -4.231   3.006 -32.000  1.00  0.00     0.036 A 
HETATM   22  C   UNL     1      -3.003   3.247 -31.356  1.00  0.00     0.057 A 
HETATM   23  C   UNL     1      -2.185   4.242 -31.849  1.00  0.00     0.106 A 
HETATM   24  C   UNL     1      -2.538   4.992 -32.942  1.00  0.00     0.105 A 
HETATM   25  O   UNL     1      -0.976   4.601 -31.341  1.00  0.00    -0.323 OA
HETATM   26  O   UNL     1      -1.598   5.921 -33.263  1.00  0.00    -0.323 OA
HETATM   27  C   UNL     1      -3.726   4.786 -33.606  1.00  0.00     0.041 A 
HETATM   28  C   UNL     1      -0.611   5.670 -32.239  1.00  0.00     0.352 A 
HETATM   29  C   UNL     1      -4.580   3.781 -33.131  1.00  0.00     0.020 A 
ENDBRANCH  18  21
ENDBRANCH   2  17
TORSDOF 5
ENDMDL
MODEL 4
REMARK VINA RESULT:      -8.6      4.005      7.399
REMARK  5 active torsions:
REMARK  status: ('A' for Active; 'I' for Inactive)
REMARK    1  A    between atoms: O_2  and  C_3 
REMARK    2  A    between atoms: C_6  and  C_7 
REMARK    3  A    between atoms: C_12  and  C_13 
REMARK    4  A    between atoms: N_14  and  N_15 
REMARK       I    between atoms: N_15  and  C_16 
REMARK    5  A    between atoms: C_16  and  C_17 
ROOT
HETATM    1  C   UNL     1      -6.396   3.195 -30.705  1.00  0.00     0.154 C 
HETATM    2  N   UNL     1      -7.561   2.728 -30.378  1.00  0.00    -0.183 NA
ENDROOT
BRANCH   1   3
HETATM    3  C   UNL     1      -5.965   3.683 -31.996  1.00  0.00     0.031 A 
HETATM    4  C   UNL     1      -5.803   3.053 -33.274  1.00  0.00     0.100 A 
HETATM    5  N   UNL     1      -5.410   3.956 -34.192  1.00  0.00    -0.174 NA
HETATM    6  N   UNL     1      -5.227   5.090 -33.510  1.00  0.00    -0.288 N 
HETATM    7  H   UNL     1      -4.889   5.904 -34.014  1.00  0.00     0.188 HD
HETATM    8  C   UNL     1      -5.539   4.982 -32.193  1.00  0.00     0.124 A 
BRANCH   4   9
HETATM    9  C   UNL     1      -6.006   1.656 -33.678  1.00  0.00    -0.005 A 
HETATM   10  C   UNL     1      -6.852   1.308 -34.735  1.00  0.00     0.016 A 
HETATM   11  C   UNL     1      -6.993  -0.030 -35.121  1.00  0.00     0.037 A 
HETATM   12  C   UNL     1      -6.305  -1.043 -34.454  1.00  0.00     0.068 A 
HETATM   13  C   UNL     1      -5.481  -0.712 -33.381  1.00  0.00     0.037 A 
HETATM   14  C   UNL     1      -5.337   0.627 -32.996  1.00  0.00     0.016 A 
BRANCH  12  15
HETATM   15  O   UNL     1      -6.528  -2.302 -34.936  1.00  0.00    -0.356 OA
HETATM   16  C   UNL     1      -5.402  -3.167 -35.019  1.00  0.00     0.210 C 
ENDBRANCH  12  15
ENDBRANCH   4   9
ENDBRANCH   1   3
BRANCH   2  17
HETATM   17  N   UNL     1      -8.587   2.720 -31.276  1.00  0.00    -0.243 N 
HETATM   18  C   UNL     1      -8.993   1.511 -31.825  1.00  0.00     0.271 C 
HETATM   19  O   UNL     1      -8.522   0.422 -31.501  1.00  0.00    -0.266 OA
HETATM   20  H   UNL     1      -9.008   3.598 -31.540  1.00  0.00     0.192 HD
BRANCH  18  21
HETATM   21  C   UNL     1     -10.057   1.555 -32.881  1.00  0.00     0.036 A 
HETATM   22  C   UNL     1     -10.127   2.718 -33.670  1.00  0.00     0.057 A 
HETATM   23  C   UNL     1     -11.109   2.801 -34.634  1.00  0.00     0.106 A 
HETATM   24  C   UNL     1     -12.007   1.784 -34.842  1.00  0.00     0.105 A 
HETATM   25  O   UNL     1     -11.314   3.852 -35.472  1.00  0.00    -0.323 OA
HETATM   26  O   UNL     1     -12.893   2.065 -35.834  1.00  0.00    -0.323 OA
HETATM   27  C   UNL     1     -11.970   0.626 -34.098  1.00  0.00     0.041 A 
HETATM   28  C   UNL     1     -12.449   3.382 -36.226  1.00  0.00     0.352 A 
HETATM   29  C   UNL     1     -10.984   0.510 -33.109  1.00  0.00     0.020 A 
ENDBRANCH  18  21
ENDBRANCH   2  17
TORSDOF 5
ENDMDL
MODEL 5
REMARK VINA RESULT:      -8.4      2.751      7.552
REMARK  5 active torsions:
REMARK  status: ('A' for Active; 'I' for Inactive)
REMARK    1  A    between atoms: O_2  and  C_3 
REMARK    2  A    between atoms: C_6  and  C_7 
REMARK    3  A    between atoms: C_12  and  C_13 
REMARK    4  A    between atoms: N_14  and  N_15 
REMARK       I    between atoms: N_15  and  C_16 
REMARK    5  A    between atoms: C_16  and  C_17 
ROOT
HETATM    1  C   UNL     1      -2.417   4.144 -31.861  1.00  0.00     0.154 C 
HETATM    2  N   UNL     1      -2.695   2.969 -31.389  1.00  0.00    -0.183 NA
ENDROOT
BRANCH   1   3
HETATM    3  C   UNL     1      -2.788   4.695 -33.145  1.00  0.00     0.031 A 
HETATM    4  C   UNL     1      -4.041   5.108 -33.707  1.00  0.00     0.100 A 
HETATM    5  N   UNL     1      -3.857   5.599 -34.946  1.00  0.00    -0.174 NA
HETATM    6  N   UNL     1      -2.561   5.412 -35.207  1.00  0.00    -0.288 N 
HETATM    7  H   UNL     1      -2.210   5.684 -36.121  1.00  0.00     0.188 HD
HETATM    8  C   UNL     1      -1.876   4.870 -34.168  1.00  0.00     0.124 A 
BRANCH   4   9
HETATM    9  C   UNL     1      -5.394   5.074 -33.138  1.00  0.00    -0.005 A 
HETATM   10  C   UNL     1      -6.094   3.876 -32.967  1.00  0.00     0.016 A 
HETATM   11  C   UNL     1      -7.367   3.874 -32.385  1.00  0.00     0.037 A 
HETATM   12  C   UNL     1      -7.969   5.065 -31.976  1.00  0.00     0.068 A 
HETATM   13  C   UNL     1      -7.293   6.267 -32.169  1.00  0.00     0.037 A 
HETATM   14  C   UNL     1      -6.018   6.270 -32.747  1.00  0.00     0.016 A 
BRANCH  12  15
HETATM   15  O   UNL     1      -9.208   4.921 -31.419  1.00  0.00    -0.356 OA
HETATM   16  C   UNL     1      -9.984   3.811 -31.855  1.00  0.00     0.210 C 
ENDBRANCH  12  15
ENDBRANCH   4   9
ENDBRANCH   1   3
BRANCH   2  17
HETATM   17  N   UNL     1      -3.486   2.105 -32.086  1.00  0.00    -0.243 N 
HETATM   18  C   UNL     1      -3.390   0.743 -31.826  1.00  0.00     0.271 C 
HETATM   19  O   UNL     1      -2.674   0.266 -30.949  1.00  0.00    -0.266 OA
HETATM   20  H   UNL     1      -4.101   2.473 -32.794  1.00  0.00     0.192 HD
BRANCH  18  21
HETATM   21  C   UNL     1      -4.203  -0.182 -32.681  1.00  0.00     0.036 A 
HETATM   22  C   UNL     1      -3.731  -1.501 -32.823  1.00  0.00     0.057 A 
HETATM   23  C   UNL     1      -4.442  -2.372 -33.620  1.00  0.00     0.106 A 
HETATM   24  C   UNL     1      -5.587  -1.986 -34.270  1.00  0.00     0.105 A 
HETATM   25  O   UNL     1      -4.119  -3.670 -33.863  1.00  0.00    -0.323 OA
HETATM   26  O   UNL     1      -6.131  -2.991 -35.008  1.00  0.00    -0.323 OA
HETATM   27  C   UNL     1      -6.087  -0.709 -34.155  1.00  0.00     0.041 A 
HETATM   28  C   UNL     1      -5.191  -4.056 -34.748  1.00  0.00     0.352 A 
HETATM   29  C   UNL     1      -5.389   0.201 -33.350  1.00  0.00     0.020 A 
ENDBRANCH  18  21
ENDBRANCH   2  17
TORSDOF 5
ENDMDL
MODEL 6
REMARK VINA RESULT:      -8.2      1.938      7.983
REMARK  5 active torsions:
REMARK  status: ('A' for Active; 'I' for Inactive)
REMARK    1  A    between atoms: O_2  and  C_3 
REMARK    2  A    between atoms: C_6  and  C_7 
REMARK    3  A    between atoms: C_12  and  C_13 
REMARK    4  A    between atoms: N_14  and  N_15 
REMARK       I    between atoms: N_15  and  C_16 
REMARK    5  A    between atoms: C_16  and  C_17 
ROOT
HETATM    1  C   UNL     1      -5.661   2.082 -30.639  1.00  0.00     0.154 C 
HETATM    2  N   UNL     1      -5.086   1.000 -30.214  1.00  0.00    -0.183 NA
ENDROOT
BRANCH   1   3
HETATM    3  C   UNL     1      -6.374   2.279 -31.882  1.00  0.00     0.031 A 
HETATM    4  C   UNL     1      -6.039   2.948 -33.104  1.00  0.00     0.100 A 
HETATM    5  N   UNL     1      -7.038   2.816 -33.997  1.00  0.00    -0.174 NA
HETATM    6  N   UNL     1      -8.012   2.181 -33.339  1.00  0.00    -0.288 N 
HETATM    7  H   UNL     1      -8.887   2.009 -33.825  1.00  0.00     0.188 HD
HETATM    8  C   UNL     1      -7.671   1.841 -32.069  1.00  0.00     0.124 A 
BRANCH   4   9
HETATM    9  C   UNL     1      -4.831   3.694 -33.480  1.00  0.00    -0.005 A 
HETATM   10  C   UNL     1      -3.601   3.474 -32.853  1.00  0.00     0.016 A 
HETATM   11  C   UNL     1      -2.460   4.173 -33.263  1.00  0.00     0.037 A 
HETATM   12  C   UNL     1      -2.527   5.112 -34.293  1.00  0.00     0.068 A 
HETATM   13  C   UNL     1      -3.753   5.361 -34.905  1.00  0.00     0.037 A 
HETATM   14  C   UNL     1      -4.895   4.659 -34.499  1.00  0.00     0.016 A 
BRANCH  12  15
HETATM   15  O   UNL     1      -1.340   5.717 -34.596  1.00  0.00    -0.356 OA
HETATM   16  C   UNL     1      -1.014   6.893 -33.867  1.00  0.00     0.210 C 
ENDBRANCH  12  15
ENDBRANCH   4   9
ENDBRANCH   1   3
BRANCH   2  17
HETATM   17  N   UNL     1      -5.170  -0.160 -30.924  1.00  0.00    -0.243 N 
HETATM   18  C   UNL     1      -4.057  -0.601 -31.629  1.00  0.00     0.271 C 
HETATM   19  O   UNL     1      -2.965  -0.036 -31.602  1.00  0.00    -0.266 OA
HETATM   20  H   UNL     1      -6.047  -0.657 -30.942  1.00  0.00     0.192 HD
BRANCH  18  21
HETATM   21  C   UNL     1      -4.217  -1.828 -32.476  1.00  0.00     0.036 A 
HETATM   22  C   UNL     1      -5.311  -1.854 -33.362  1.00  0.00     0.057 A 
HETATM   23  C   UNL     1      -5.501  -2.976 -34.140  1.00  0.00     0.106 A 
HETATM   24  C   UNL     1      -4.656  -4.055 -34.071  1.00  0.00     0.105 A 
HETATM   25  O   UNL     1      -6.506  -3.161 -35.037  1.00  0.00    -0.323 OA
HETATM   26  O   UNL     1      -5.021  -5.058 -34.914  1.00  0.00    -0.323 OA
HETATM   27  C   UNL     1      -3.571  -4.069 -33.223  1.00  0.00     0.041 A 
HETATM   28  C   UNL     1      -6.199  -4.484 -35.521  1.00  0.00     0.352 A 
HETATM   29  C   UNL     1      -3.349  -2.943 -32.420  1.00  0.00     0.020 A 
ENDBRANCH  18  21
ENDBRANCH   2  17
TORSDOF 5
ENDMDL
MODEL 7
REMARK VINA RESULT:      -8.1      2.175      8.521
REMARK  5 active torsions:
REMARK  status: ('A' for Active; 'I' for Inactive)
REMARK    1  A    between atoms: O_2  and  C_3 
REMARK    2  A    between atoms: C_6  and  C_7 
REMARK    3  A    between atoms: C_12  and  C_13 
REMARK    4  A    between atoms: N_14  and  N_15 
REMARK       I    between atoms: N_15  and  C_16 
REMARK    5  A    between atoms: C_16  and  C_17 
ROOT
HETATM    1  C   UNL     1      -4.450   5.536 -32.408  1.00  0.00     0.154 C 
HETATM    2  N   UNL     1      -5.100   4.473 -32.049  1.00  0.00    -0.183 NA
ENDROOT
BRANCH   1   3
HETATM    3  C   UNL     1      -3.283   5.619 -33.257  1.00  0.00     0.031 A 
HETATM    4  C   UNL     1      -1.889   5.814 -32.986  1.00  0.00     0.100 A 
HETATM    5  N   UNL     1      -1.181   5.774 -34.130  1.00  0.00    -0.174 NA
HETATM    6  N   UNL     1      -2.093   5.664 -35.101  1.00  0.00    -0.288 N 
HETATM    7  H   UNL     1      -1.771   5.654 -36.064  1.00  0.00     0.188 HD
HETATM    8  C   UNL     1      -3.365   5.573 -34.636  1.00  0.00     0.124 A 
BRANCH   4   9
HETATM    9  C   UNL     1      -1.188   6.024 -31.713  1.00  0.00    -0.005 A 
HETATM   10  C   UNL     1      -1.526   7.070 -30.848  1.00  0.00     0.016 A 
HETATM   11  C   UNL     1      -0.865   7.219 -29.623  1.00  0.00     0.037 A 
HETATM   12  C   UNL     1       0.151   6.339 -29.245  1.00  0.00     0.068 A 
HETATM   13  C   UNL     1       0.515   5.312 -30.112  1.00  0.00     0.037 A 
HETATM   14  C   UNL     1      -0.148   5.159 -31.336  1.00  0.00     0.016 A 
BRANCH  12  15
HETATM   15  O   UNL     1       0.707   6.595 -28.024  1.00  0.00    -0.356 OA
HETATM   16  C   UNL     1      -0.124   6.402 -26.886  1.00  0.00     0.210 C 
ENDBRANCH  12  15
ENDBRANCH   4   9
ENDBRANCH   1   3
BRANCH   2  17
HETATM   17  N   UNL     1      -4.757   3.247 -32.537  1.00  0.00    -0.243 N 
HETATM   18  C   UNL     1      -5.604   2.170 -32.309  1.00  0.00     0.271 C 
HETATM   19  O   UNL     1      -6.690   2.265 -31.741  1.00  0.00    -0.266 OA
HETATM   20  H   UNL     1      -3.883   3.147 -33.028  1.00  0.00     0.192 HD
BRANCH  18  21
HETATM   21  C   UNL     1      -5.146   0.820 -32.775  1.00  0.00     0.036 A 
HETATM   22  C   UNL     1      -6.011   0.113 -33.631  1.00  0.00     0.057 A 
HETATM   23  C   UNL     1      -5.631  -1.141 -34.060  1.00  0.00     0.106 A 
HETATM   24  C   UNL     1      -4.441  -1.707 -33.676  1.00  0.00     0.105 A 
HETATM   25  O   UNL     1      -6.350  -1.952 -34.882  1.00  0.00    -0.323 OA
HETATM   26  O   UNL     1      -4.260  -2.947 -34.204  1.00  0.00    -0.323 OA
HETATM   27  C   UNL     1      -3.563  -1.048 -32.845  1.00  0.00     0.041 A 
HETATM   28  C   UNL     1      -5.478  -3.097 -34.965  1.00  0.00     0.352 A 
HETATM   29  C   UNL     1      -3.919   0.229 -32.392  1.00  0.00     0.020 A 
ENDBRANCH  18  21
ENDBRANCH   2  17
TORSDOF 5
ENDMDL
MODEL 8
REMARK VINA RESULT:      -8.0      3.051      4.560
REMARK  5 active torsions:
REMARK  status: ('A' for Active; 'I' for Inactive)
REMARK    1  A    between atoms: O_2  and  C_3 
REMARK    2  A    between atoms: C_6  and  C_7 
REMARK    3  A    between atoms: C_12  and  C_13 
REMARK    4  A    between atoms: N_14  and  N_15 
REMARK       I    between atoms: N_15  and  C_16 
REMARK    5  A    between atoms: C_16  and  C_17 
ROOT
HETATM    1  C   UNL     1      -6.187   0.115 -30.480  1.00  0.00     0.154 C 
HETATM    2  N   UNL     1      -5.868   1.284 -30.016  1.00  0.00    -0.183 NA
ENDROOT
BRANCH   1   3
HETATM    3  C   UNL     1      -5.957  -0.405 -31.810  1.00  0.00     0.031 A 
HETATM    4  C   UNL     1      -6.713  -0.348 -33.026  1.00  0.00     0.100 A 
HETATM    5  N   UNL     1      -6.044  -0.960 -34.020  1.00  0.00    -0.174 NA
HETATM    6  N   UNL     1      -4.957  -1.479 -33.442  1.00  0.00    -0.288 N 
HETATM    7  H   UNL     1      -4.321  -2.024 -34.016  1.00  0.00     0.188 HD
HETATM    8  C   UNL     1      -4.857  -1.182 -32.121  1.00  0.00     0.124 A 
BRANCH   4   9
HETATM    9  C   UNL     1      -8.021   0.259 -33.305  1.00  0.00    -0.005 A 
HETATM   10  C   UNL     1      -9.210  -0.296 -32.823  1.00  0.00     0.016 A 
HETATM   11  C   UNL     1     -10.438   0.329 -33.073  1.00  0.00     0.037 A 
HETATM   12  C   UNL     1     -10.502   1.508 -33.817  1.00  0.00     0.068 A 
HETATM   13  C   UNL     1      -9.327   2.053 -34.327  1.00  0.00     0.037 A 
HETATM   14  C   UNL     1      -8.098   1.431 -34.074  1.00  0.00     0.016 A 
BRANCH  12  15
HETATM   15  O   UNL     1     -11.760   2.015 -33.981  1.00  0.00    -0.356 OA
HETATM   16  C   UNL     1     -12.346   1.878 -35.270  1.00  0.00     0.210 C 
ENDBRANCH  12  15
ENDBRANCH   4   9
ENDBRANCH   1   3
BRANCH   2  17
HETATM   17  N   UNL     1      -5.167   2.170 -30.778  1.00  0.00    -0.243 N 
HETATM   18  C   UNL     1      -5.851   3.186 -31.433  1.00  0.00     0.271 C 
HETATM   19  O   UNL     1      -7.060   3.378 -31.317  1.00  0.00    -0.266 OA
HETATM   20  H   UNL     1      -4.170   2.050 -30.870  1.00  0.00     0.192 HD
BRANCH  18  21
HETATM   21  C   UNL     1      -5.060   4.080 -32.340  1.00  0.00     0.036 A 
HETATM   22  C   UNL     1      -4.076   4.889 -31.739  1.00  0.00     0.057 A 
HETATM   23  C   UNL     1      -3.346   5.740 -32.541  1.00  0.00     0.106 A 
HETATM   24  C   UNL     1      -3.552   5.814 -33.895  1.00  0.00     0.105 A 
HETATM   25  O   UNL     1      -2.367   6.585 -32.119  1.00  0.00    -0.323 OA
HETATM   26  O   UNL     1      -2.734   6.716 -34.499  1.00  0.00    -0.323 OA
HETATM   27  C   UNL     1      -4.499   5.037 -34.524  1.00  0.00     0.041 A 
HETATM   28  C   UNL     1      -1.987   7.205 -33.364  1.00  0.00     0.352 A 
HETATM   29  C   UNL     1      -5.259   4.160 -33.738  1.00  0.00     0.020 A 
ENDBRANCH  18  21
ENDBRANCH   2  17
TORSDOF 5
ENDMDL
MODEL 9
REMARK VINA RESULT:      -8.0      3.809      8.079
REMARK  5 active torsions:
REMARK  status: ('A' for Active; 'I' for Inactive)
REMARK    1  A    between atoms: O_2  and  C_3 
REMARK    2  A    between atoms: C_6  and  C_7 
REMARK    3  A    between atoms: C_12  and  C_13 
REMARK    4  A    between atoms: N_14  and  N_15 
REMARK       I    between atoms: N_15  and  C_16 
REMARK    5  A    between atoms: C_16  and  C_17 
ROOT
HETATM    1  C   UNL     1      -5.659  -0.499 -32.431  1.00  0.00     0.154 C 
HETATM    2  N   UNL     1      -6.525  -0.730 -33.368  1.00  0.00    -0.183 NA
ENDROOT
BRANCH   1   3
HETATM    3  C   UNL     1      -5.787   0.403 -31.307  1.00  0.00     0.031 A 
HETATM    4  C   UNL     1      -5.520   1.801 -31.141  1.00  0.00     0.100 A 
HETATM    5  N   UNL     1      -5.845   2.193 -29.895  1.00  0.00    -0.174 NA
HETATM    6  N   UNL     1      -6.203   1.074 -29.260  1.00  0.00    -0.288 N 
HETATM    7  H   UNL     1      -6.456   1.139 -28.278  1.00  0.00     0.188 HD
HETATM    8  C   UNL     1      -6.182  -0.026 -30.055  1.00  0.00     0.124 A 
BRANCH   4   9
HETATM    9  C   UNL     1      -4.988   2.787 -32.091  1.00  0.00    -0.005 A 
HETATM   10  C   UNL     1      -5.815   3.472 -32.986  1.00  0.00     0.016 A 
HETATM   11  C   UNL     1      -5.282   4.434 -33.851  1.00  0.00     0.037 A 
HETATM   12  C   UNL     1      -3.916   4.721 -33.848  1.00  0.00     0.068 A 
HETATM   13  C   UNL     1      -3.079   4.025 -32.980  1.00  0.00     0.037 A 
HETATM   14  C   UNL     1      -3.612   3.064 -32.111  1.00  0.00     0.016 A 
BRANCH  12  15
HETATM   15  O   UNL     1      -3.530   5.685 -34.736  1.00  0.00    -0.356 OA
HETATM   16  C   UNL     1      -2.369   6.437 -34.405  1.00  0.00     0.210 C 
ENDBRANCH  12  15
ENDBRANCH   4   9
ENDBRANCH   1   3
BRANCH   2  17
HETATM   17  N   UNL     1      -7.759  -0.153 -33.337  1.00  0.00    -0.243 N 
HETATM   18  C   UNL     1      -8.062   0.841 -34.260  1.00  0.00     0.271 C 
HETATM   19  O   UNL     1      -7.300   1.193 -35.157  1.00  0.00    -0.266 OA
HETATM   20  H   UNL     1      -8.413  -0.442 -32.626  1.00  0.00     0.192 HD
BRANCH  18  21
HETATM   21  C   UNL     1      -9.393   1.520 -34.132  1.00  0.00     0.036 A 
HETATM   22  C   UNL     1     -10.500   0.705 -33.831  1.00  0.00     0.057 A 
HETATM   23  C   UNL     1     -11.742   1.294 -33.728  1.00  0.00     0.106 A 
HETATM   24  C   UNL     1     -11.920   2.643 -33.909  1.00  0.00     0.105 A 
HETATM   25  O   UNL     1     -12.907   0.650 -33.450  1.00  0.00    -0.323 OA
HETATM   26  O   UNL     1     -13.219   3.021 -33.770  1.00  0.00    -0.323 OA
HETATM   27  C   UNL     1     -10.864   3.478 -34.198  1.00  0.00     0.041 A 
HETATM   28  C   UNL     1     -13.840   1.749 -33.483  1.00  0.00     0.352 A 
HETATM   29  C   UNL     1      -9.588   2.910 -34.309  1.00  0.00     0.020 A 
ENDBRANCH  18  21
ENDBRANCH   2  17
TORSDOF 5
ENDMDL
MODEL 10
REMARK VINA RESULT:      -7.9     16.274     18.521
REMARK  5 active torsions:
REMARK  status: ('A' for Active; 'I' for Inactive)
REMARK    1  A    between atoms: O_2  and  C_3 
REMARK    2  A    between atoms: C_6  and  C_7 
REMARK    3  A    between atoms: C_12  and  C_13 
REMARK    4  A    between atoms: N_14  and  N_15 
REMARK       I    between atoms: N_15  and  C_16 
REMARK    5  A    between atoms: C_16  and  C_17 
ROOT
HETATM    1  C   UNL     1      -1.050 -12.835 -38.525  1.00  0.00     0.154 C 
HETATM    2  N   UNL     1      -1.927 -11.909 -38.294  1.00  0.00    -0.183 NA
ENDROOT
BRANCH   1   3
HETATM    3  C   UNL     1      -1.204 -14.021 -39.337  1.00  0.00     0.031 A 
HETATM    4  C   UNL     1      -2.038 -15.182 -39.224  1.00  0.00     0.100 A 
HETATM    5  N   UNL     1      -1.840 -16.002 -40.272  1.00  0.00    -0.174 NA
HETATM    6  N   UNL     1      -0.848 -15.443 -40.970  1.00  0.00    -0.288 N 
HETATM    7  H   UNL     1      -0.511 -15.927 -41.797  1.00  0.00     0.188 HD
HETATM    8  C   UNL     1      -0.427 -14.261 -40.454  1.00  0.00     0.124 A 
BRANCH   4   9
HETATM    9  C   UNL     1      -3.014 -15.554 -38.191  1.00  0.00    -0.005 A 
HETATM   10  C   UNL     1      -2.678 -15.586 -36.834  1.00  0.00     0.016 A 
HETATM   11  C   UNL     1      -3.642 -15.907 -35.872  1.00  0.00     0.037 A 
HETATM   12  C   UNL     1      -4.952 -16.213 -36.245  1.00  0.00     0.068 A 
HETATM   13  C   UNL     1      -5.290 -16.213 -37.596  1.00  0.00     0.037 A 
HETATM   14  C   UNL     1      -4.327 -15.888 -38.559  1.00  0.00     0.016 A 
BRANCH  12  15
HETATM   15  O   UNL     1      -5.792 -16.501 -35.206  1.00  0.00    -0.356 OA
HETATM   16  C   UNL     1      -7.097 -15.937 -35.260  1.00  0.00     0.210 C 
ENDBRANCH  12  15
ENDBRANCH   4   9
ENDBRANCH   1   3
BRANCH   2  17
HETATM   17  N   UNL     1      -3.147 -11.934 -38.902  1.00  0.00    -0.243 N 
HETATM   18  C   UNL     1      -4.271 -12.237 -38.145  1.00  0.00     0.271 C 
HETATM   19  O   UNL     1      -4.246 -12.423 -36.930  1.00  0.00    -0.266 OA
HETATM   20  H   UNL     1      -3.198 -11.760 -39.894  1.00  0.00     0.192 HD
BRANCH  18  21
HETATM   21  C   UNL     1      -5.580 -12.352 -38.868  1.00  0.00     0.036 A 
HETATM   22  C   UNL     1      -6.682 -12.815 -38.124  1.00  0.00     0.057 A 
HETATM   23  C   UNL     1      -7.895 -12.954 -38.764  1.00  0.00     0.106 A 
HETATM   24  C   UNL     1      -8.050 -12.654 -40.094  1.00  0.00     0.105 A 
HETATM   25  O   UNL     1      -9.049 -13.391 -38.192  1.00  0.00    -0.323 OA
HETATM   26  O   UNL     1      -9.321 -12.864 -40.531  1.00  0.00    -0.323 OA
HETATM   27  C   UNL     1      -7.002 -12.192 -40.857  1.00  0.00     0.041 A 
HETATM   28  C   UNL     1      -9.948 -13.337 -39.319  1.00  0.00     0.352 A 
HETATM   29  C   UNL     1      -5.754 -12.038 -40.236  1.00  0.00     0.020 A 
ENDBRANCH  18  21
ENDBRANCH   2  17
TORSDOF 5
ENDMDL
