MODEL 1
REMARK VINA RESULT:      -8.0      0.000      0.000
REMARK  6 active torsions:
REMARK  status: ('A' for Active; 'I' for Inactive)
REMARK    1  A    between atoms: O_1  and  C_2 
REMARK    2  A    between atoms: C_2  and  CA_3 
REMARK    3  A    between atoms: CA_3  and  N_4 
REMARK    4  A    between atoms: CA_3  and  C_20 
REMARK       I    between atoms: N_4  and  C_5 
REMARK       I    between atoms: C_5  and  N_7 
REMARK    5  A    between atoms: N_7  and  C_8 
REMARK    6  A    between atoms: C_11  and  C_14 
ROOT
HETATM    1  N   UNL     1      -5.502  -0.116 -33.346  1.00  0.00    -0.332 N 
HETATM    2  C   UNL     1      -5.450   1.224 -33.170  1.00  0.00     0.322 C 
HETATM    3  O   UNL     1      -5.917   2.127 -33.835  1.00  0.00    -0.247 OA
HETATM    4  N   UNL     1      -4.684   1.528 -32.041  1.00  0.00    -0.289 N 
HETATM    5  H   UNL     1      -5.099  -0.755 -32.678  1.00  0.00     0.165 HD
HETATM    6  H   UNL     1      -4.161   0.855 -31.512  1.00  0.00     0.172 HD
ENDROOT
BRANCH   1   7
HETATM    7  CA  UNL     1      -6.249  -0.722 -34.445  1.00  0.00     0.143 C 
BRANCH   7   8
HETATM    8  C   UNL     1      -7.778  -0.511 -34.309  1.00  0.00     0.194 C 
BRANCH   8   9
HETATM    9  O   UNL     1      -8.245   0.445 -35.259  1.00  0.00    -0.398 OA
HETATM   10  H   UNL     1      -8.373   1.285 -34.778  1.00  0.00     0.209 HD
ENDBRANCH   8   9
ENDBRANCH   7   8
BRANCH   7  11
HETATM   11  C   UNL     1      -5.866  -2.190 -34.522  1.00  0.00    -0.033 A 
HETATM   12  C   UNL     1      -4.566  -2.589 -34.176  1.00  0.00     0.009 A 
HETATM   13  C   UNL     1      -4.207  -3.938 -34.185  1.00  0.00     0.001 A 
HETATM   14  C   UNL     1      -5.144  -4.909 -34.534  1.00  0.00     0.000 A 
HETATM   15  C   UNL     1      -6.440  -4.533 -34.872  1.00  0.00     0.001 A 
HETATM   16  C   UNL     1      -6.802  -3.183 -34.862  1.00  0.00     0.009 A 
ENDBRANCH   7  11
ENDBRANCH   1   7
BRANCH   4  17
HETATM   17  C   UNL     1      -4.571   2.770 -31.601  1.00  0.00     0.153 A 
HETATM   18  N   UNL     1      -3.764   3.715 -32.086  1.00  0.00    -0.335 N 
HETATM   19  H   UNL     1      -3.126   3.459 -32.842  1.00  0.00     0.168 HD
HETATM   20  C   UNL     1      -3.923   4.962 -31.502  1.00  0.00     0.051 A 
HETATM   21  C   UNL     1      -4.845   4.919 -30.476  1.00  0.00     0.083 A 
HETATM   22  S   UNL     1      -5.540   3.352 -30.297  1.00  0.00    -0.063 SA
BRANCH  20  23
HETATM   23  C   UNL     1      -3.206   6.160 -31.941  1.00  0.00    -0.006 A 
HETATM   24  C   UNL     1      -2.495   6.190 -33.148  1.00  0.00     0.033 A 
HETATM   25  C   UNL     1      -1.807   7.343 -33.494  1.00  0.00     0.117 A 
HETATM   26  N   UNL     1      -1.778   8.449 -32.730  1.00  0.00    -0.273 NA
HETATM   27  C   UNL     1      -2.466   8.414 -31.575  1.00  0.00     0.117 A 
HETATM   28  C   UNL     1      -3.187   7.310 -31.143  1.00  0.00     0.033 A 
ENDBRANCH  20  23
ENDBRANCH   4  17
TORSDOF 6
ENDMDL
MODEL 2
REMARK VINA RESULT:      -7.9      3.321      9.793
REMARK  6 active torsions:
REMARK  status: ('A' for Active; 'I' for Inactive)
REMARK    1  A    between atoms: O_1  and  C_2 
REMARK    2  A    between atoms: C_2  and  CA_3 
REMARK    3  A    between atoms: CA_3  and  N_4 
REMARK    4  A    between atoms: CA_3  and  C_20 
REMARK       I    between atoms: N_4  and  C_5 
REMARK       I    between atoms: C_5  and  N_7 
REMARK    5  A    between atoms: N_7  and  C_8 
REMARK    6  A    between atoms: C_11  and  C_14 
ROOT
HETATM    1  N   UNL     1      -1.538   5.239 -30.455  1.00  0.00    -0.332 N 
HETATM    2  C   UNL     1      -2.062   4.424 -31.399  1.00  0.00     0.322 C 
HETATM    3  O   UNL     1      -1.707   4.206 -32.540  1.00  0.00    -0.247 OA
HETATM    4  N   UNL     1      -3.215   3.804 -30.908  1.00  0.00    -0.289 N 
HETATM    5  H   UNL     1      -1.919   5.285 -29.523  1.00  0.00     0.165 HD
HETATM    6  H   UNL     1      -3.645   4.022 -30.029  1.00  0.00     0.172 HD
ENDROOT
BRANCH   1   7
HETATM    7  CA  UNL     1      -0.317   6.006 -30.689  1.00  0.00     0.143 C 
BRANCH   7   8
HETATM    8  C   UNL     1       0.958   5.130 -30.607  1.00  0.00     0.194 C 
BRANCH   8   9
HETATM    9  O   UNL     1       0.784   4.066 -29.673  1.00  0.00    -0.398 OA
HETATM   10  H   UNL     1       0.139   3.447 -30.063  1.00  0.00     0.209 HD
ENDBRANCH   8   9
ENDBRANCH   7   8
BRANCH   7  11
HETATM   11  C   UNL     1      -0.294   7.165 -29.708  1.00  0.00    -0.033 A 
HETATM   12  C   UNL     1      -1.434   7.970 -29.555  1.00  0.00     0.009 A 
HETATM   13  C   UNL     1      -1.455   9.006 -28.619  1.00  0.00     0.001 A 
HETATM   14  C   UNL     1      -0.341   9.249 -27.819  1.00  0.00     0.000 A 
HETATM   15  C   UNL     1       0.794   8.456 -27.951  1.00  0.00     0.001 A 
HETATM   16  C   UNL     1       0.818   7.417 -28.885  1.00  0.00     0.009 A 
ENDBRANCH   7  11
ENDBRANCH   1   7
BRANCH   4  17
HETATM   17  C   UNL     1      -3.850   2.880 -31.609  1.00  0.00     0.153 A 
HETATM   18  N   UNL     1      -3.466   1.615 -31.790  1.00  0.00    -0.335 N 
HETATM   19  H   UNL     1      -2.569   1.325 -31.396  1.00  0.00     0.168 HD
HETATM   20  C   UNL     1      -4.374   0.833 -32.486  1.00  0.00     0.051 A 
HETATM   21  C   UNL     1      -5.456   1.578 -32.908  1.00  0.00     0.083 A 
HETATM   22  S   UNL     1      -5.355   3.217 -32.383  1.00  0.00    -0.063 SA
BRANCH  20  23
HETATM   23  C   UNL     1      -4.197  -0.602 -32.718  1.00  0.00    -0.006 A 
HETATM   24  C   UNL     1      -3.400  -1.390 -31.876  1.00  0.00     0.033 A 
HETATM   25  C   UNL     1      -3.243  -2.736 -32.167  1.00  0.00     0.117 A 
HETATM   26  N   UNL     1      -3.813  -3.340 -33.225  1.00  0.00    -0.273 NA
HETATM   27  C   UNL     1      -4.578  -2.578 -34.027  1.00  0.00     0.117 A 
HETATM   28  C   UNL     1      -4.799  -1.224 -33.818  1.00  0.00     0.033 A 
ENDBRANCH  20  23
ENDBRANCH   4  17
TORSDOF 6
ENDMDL
MODEL 3
REMARK VINA RESULT:      -7.9      4.785      7.628
REMARK  6 active torsions:
REMARK  status: ('A' for Active; 'I' for Inactive)
REMARK    1  A    between atoms: O_1  and  C_2 
REMARK    2  A    between atoms: C_2  and  CA_3 
REMARK    3  A    between atoms: CA_3  and  N_4 
REMARK    4  A    between atoms: CA_3  and  C_20 
REMARK       I    between atoms: N_4  and  C_5 
REMARK       I    between atoms: C_5  and  N_7 
REMARK    5  A    between atoms: N_7  and  C_8 
REMARK    6  A    between atoms: C_11  and  C_14 
ROOT
HETATM    1  N   UNL     1      -6.511  -0.007 -34.188  1.00  0.00    -0.332 N 
HETATM    2  C   UNL     1      -7.668   0.486 -33.690  1.00  0.00     0.322 C 
HETATM    3  O   UNL     1      -8.181   0.348 -32.598  1.00  0.00    -0.247 OA
HETATM    4  N   UNL     1      -8.331   1.230 -34.671  1.00  0.00    -0.289 N 
HETATM    5  H   UNL     1      -6.187   0.232 -35.112  1.00  0.00     0.165 HD
HETATM    6  H   UNL     1      -8.042   1.289 -35.630  1.00  0.00     0.172 HD
ENDROOT
BRANCH   1   7
HETATM    7  CA  UNL     1      -5.604  -0.814 -33.376  1.00  0.00     0.143 C 
BRANCH   7   8
HETATM    8  C   UNL     1      -4.195  -0.181 -33.256  1.00  0.00     0.194 C 
BRANCH   8   9
HETATM    9  O   UNL     1      -4.216   0.944 -32.380  1.00  0.00    -0.398 OA
HETATM   10  H   UNL     1      -3.299   1.271 -32.314  1.00  0.00     0.209 HD
ENDBRANCH   8   9
ENDBRANCH   7   8
BRANCH   7  11
HETATM   11  C   UNL     1      -5.568  -2.216 -33.962  1.00  0.00    -0.033 A 
HETATM   12  C   UNL     1      -4.393  -2.978 -33.869  1.00  0.00     0.009 A 
HETATM   13  C   UNL     1      -4.353  -4.288 -34.350  1.00  0.00     0.001 A 
HETATM   14  C   UNL     1      -5.488  -4.857 -34.925  1.00  0.00     0.000 A 
HETATM   15  C   UNL     1      -6.663  -4.119 -35.018  1.00  0.00     0.001 A 
HETATM   16  C   UNL     1      -6.707  -2.808 -34.536  1.00  0.00     0.009 A 
ENDBRANCH   7  11
ENDBRANCH   1   7
BRANCH   4  17
HETATM   17  C   UNL     1      -9.436   1.901 -34.395  1.00  0.00     0.153 A 
HETATM   18  N   UNL     1     -10.676   1.409 -34.350  1.00  0.00    -0.335 N 
HETATM   19  H   UNL     1     -10.811   0.427 -34.600  1.00  0.00     0.168 HD
HETATM   20  C   UNL     1     -11.639   2.313 -33.933  1.00  0.00     0.051 A 
HETATM   21  C   UNL     1     -11.095   3.565 -33.729  1.00  0.00     0.083 A 
HETATM   22  S   UNL     1      -9.392   3.580 -34.000  1.00  0.00    -0.063 SA
BRANCH  20  23
HETATM   23  C   UNL     1     -13.045   1.962 -33.726  1.00  0.00    -0.006 A 
HETATM   24  C   UNL     1     -13.682   0.987 -34.506  1.00  0.00     0.033 A 
HETATM   25  C   UNL     1     -15.025   0.723 -34.286  1.00  0.00     0.117 A 
HETATM   26  N   UNL     1     -15.765   1.356 -33.358  1.00  0.00    -0.273 NA
HETATM   27  C   UNL     1     -15.147   2.288 -32.613  1.00  0.00     0.117 A 
HETATM   28  C   UNL     1     -13.807   2.622 -32.754  1.00  0.00     0.033 A 
ENDBRANCH  20  23
ENDBRANCH   4  17
TORSDOF 6
ENDMDL
MODEL 4
REMARK VINA RESULT:      -7.7      5.294      8.896
REMARK  6 active torsions:
REMARK  status: ('A' for Active; 'I' for Inactive)
REMARK    1  A    between atoms: O_1  and  C_2 
REMARK    2  A    between atoms: C_2  and  CA_3 
REMARK    3  A    between atoms: CA_3  and  N_4 
REMARK    4  A    between atoms: CA_3  and  C_20 
REMARK       I    between atoms: N_4  and  C_5 
REMARK       I    between atoms: C_5  and  N_7 
REMARK    5  A    between atoms: N_7  and  C_8 
REMARK    6  A    between atoms: C_11  and  C_14 
ROOT
HETATM    1  N   UNL     1     -11.852   2.001 -32.904  1.00  0.00    -0.332 N 
HETATM    2  C   UNL     1     -10.684   1.387 -33.201  1.00  0.00     0.322 C 
HETATM    3  O   UNL     1     -10.357   0.738 -34.174  1.00  0.00    -0.247 OA
HETATM    4  N   UNL     1      -9.780   1.544 -32.145  1.00  0.00    -0.289 N 
HETATM    5  H   UNL     1     -11.965   2.549 -32.066  1.00  0.00     0.165 HD
HETATM    6  H   UNL     1     -10.009   1.954 -31.259  1.00  0.00     0.172 HD
ENDROOT
BRANCH   1   7
HETATM    7  CA  UNL     1     -12.977   2.012 -33.836  1.00  0.00     0.143 C 
BRANCH   7   8
HETATM    8  C   UNL     1     -12.664   2.798 -35.134  1.00  0.00     0.194 C 
BRANCH   8   9
HETATM    9  O   UNL     1     -12.379   1.908 -36.211  1.00  0.00    -0.398 OA
HETATM   10  H   UNL     1     -11.893   1.150 -35.833  1.00  0.00     0.209 HD
ENDBRANCH   8   9
ENDBRANCH   7   8
BRANCH   7  11
HETATM   11  C   UNL     1     -14.191   2.555 -33.102  1.00  0.00    -0.033 A 
HETATM   12  C   UNL     1     -14.177   3.869 -32.610  1.00  0.00     0.009 A 
HETATM   13  C   UNL     1     -15.301   4.408 -31.982  1.00  0.00     0.001 A 
HETATM   14  C   UNL     1     -16.457   3.644 -31.841  1.00  0.00     0.000 A 
HETATM   15  C   UNL     1     -16.492   2.342 -32.329  1.00  0.00     0.001 A 
HETATM   16  C   UNL     1     -15.369   1.800 -32.960  1.00  0.00     0.009 A 
ENDBRANCH   7  11
ENDBRANCH   1   7
BRANCH   4  17
HETATM   17  C   UNL     1      -8.531   1.120 -32.241  1.00  0.00     0.153 A 
HETATM   18  N   UNL     1      -8.121  -0.027 -32.786  1.00  0.00    -0.335 N 
HETATM   19  H   UNL     1      -8.831  -0.679 -33.124  1.00  0.00     0.168 HD
HETATM   20  C   UNL     1      -6.744  -0.174 -32.846  1.00  0.00     0.051 A 
HETATM   21  C   UNL     1      -6.101   0.889 -32.246  1.00  0.00     0.083 A 
HETATM   22  S   UNL     1      -7.212   2.076 -31.673  1.00  0.00    -0.063 SA
BRANCH  20  23
HETATM   23  C   UNL     1      -6.077  -1.310 -33.484  1.00  0.00    -0.006 A 
HETATM   24  C   UNL     1      -6.763  -2.174 -34.350  1.00  0.00     0.033 A 
HETATM   25  C   UNL     1      -6.087  -3.253 -34.896  1.00  0.00     0.117 A 
HETATM   26  N   UNL     1      -4.795  -3.529 -34.641  1.00  0.00    -0.273 NA
HETATM   27  C   UNL     1      -4.143  -2.694 -33.811  1.00  0.00     0.117 A 
HETATM   28  C   UNL     1      -4.731  -1.586 -33.218  1.00  0.00     0.033 A 
ENDBRANCH  20  23
ENDBRANCH   4  17
TORSDOF 6
ENDMDL
MODEL 5
REMARK VINA RESULT:      -7.6      3.126      4.353
REMARK  6 active torsions:
REMARK  status: ('A' for Active; 'I' for Inactive)
REMARK    1  A    between atoms: O_1  and  C_2 
REMARK    2  A    between atoms: C_2  and  CA_3 
REMARK    3  A    between atoms: CA_3  and  N_4 
REMARK    4  A    between atoms: CA_3  and  C_20 
REMARK       I    between atoms: N_4  and  C_5 
REMARK       I    between atoms: C_5  and  N_7 
REMARK    5  A    between atoms: N_7  and  C_8 
REMARK    6  A    between atoms: C_11  and  C_14 
ROOT
HETATM    1  N   UNL     1      -4.252   2.131 -32.018  1.00  0.00    -0.332 N 
HETATM    2  C   UNL     1      -3.896   3.389 -31.672  1.00  0.00     0.322 C 
HETATM    3  O   UNL     1      -4.526   4.261 -31.108  1.00  0.00    -0.247 OA
HETATM    4  N   UNL     1      -2.594   3.654 -32.105  1.00  0.00    -0.289 N 
HETATM    5  H   UNL     1      -3.599   1.495 -32.449  1.00  0.00     0.165 HD
HETATM    6  H   UNL     1      -2.053   3.039 -32.684  1.00  0.00     0.172 HD
ENDROOT
BRANCH   1   7
HETATM    7  CA  UNL     1      -5.560   1.577 -31.678  1.00  0.00     0.143 C 
BRANCH   7   8
HETATM    8  C   UNL     1      -5.540   0.785 -30.346  1.00  0.00     0.194 C 
BRANCH   8   9
HETATM    9  O   UNL     1      -6.410   1.383 -29.387  1.00  0.00    -0.398 OA
HETATM   10  H   UNL     1      -5.924   2.128 -28.986  1.00  0.00     0.209 HD
ENDBRANCH   8   9
ENDBRANCH   7   8
BRANCH   7  11
HETATM   11  C   UNL     1      -6.035   0.736 -32.851  1.00  0.00    -0.033 A 
HETATM   12  C   UNL     1      -6.044  -0.663 -32.745  1.00  0.00     0.009 A 
HETATM   13  C   UNL     1      -6.528  -1.454 -33.789  1.00  0.00     0.001 A 
HETATM   14  C   UNL     1      -7.016  -0.858 -34.950  1.00  0.00     0.000 A 
HETATM   15  C   UNL     1      -7.022   0.528 -35.069  1.00  0.00     0.001 A 
HETATM   16  C   UNL     1      -6.540   1.323 -34.025  1.00  0.00     0.009 A 
ENDBRANCH   7  11
ENDBRANCH   1   7
BRANCH   4  17
HETATM   17  C   UNL     1      -1.983   4.785 -31.795  1.00  0.00     0.153 A 
HETATM   18  N   UNL     1      -1.776   5.265 -30.567  1.00  0.00    -0.335 N 
HETATM   19  H   UNL     1      -2.164   4.746 -29.777  1.00  0.00     0.168 HD
HETATM   20  C   UNL     1      -1.016   6.423 -30.524  1.00  0.00     0.051 A 
HETATM   21  C   UNL     1      -0.707   6.866 -31.793  1.00  0.00     0.083 A 
HETATM   22  S   UNL     1      -1.311   5.806 -33.012  1.00  0.00    -0.063 SA
BRANCH  20  23
HETATM   23  C   UNL     1      -0.593   7.069 -29.280  1.00  0.00    -0.006 A 
HETATM   24  C   UNL     1       0.715   7.538 -29.103  1.00  0.00     0.033 A 
HETATM   25  C   UNL     1       1.066   8.110 -27.890  1.00  0.00     0.117 A 
HETATM   26  N   UNL     1       0.216   8.242 -26.857  1.00  0.00    -0.273 NA
HETATM   27  C   UNL     1      -1.039   7.792 -27.034  1.00  0.00     0.117 A 
HETATM   28  C   UNL     1      -1.487   7.208 -28.211  1.00  0.00     0.033 A 
ENDBRANCH  20  23
ENDBRANCH   4  17
TORSDOF 6
ENDMDL
MODEL 6
REMARK VINA RESULT:      -7.6      4.532      8.402
REMARK  6 active torsions:
REMARK  status: ('A' for Active; 'I' for Inactive)
REMARK    1  A    between atoms: O_1  and  C_2 
REMARK    2  A    between atoms: C_2  and  CA_3 
REMARK    3  A    between atoms: CA_3  and  N_4 
REMARK    4  A    between atoms: CA_3  and  C_20 
REMARK       I    between atoms: N_4  and  C_5 
REMARK       I    between atoms: C_5  and  N_7 
REMARK    5  A    between atoms: N_7  and  C_8 
REMARK    6  A    between atoms: C_11  and  C_14 
ROOT
HETATM    1  N   UNL     1      -9.138   2.993 -33.753  1.00  0.00    -0.332 N 
HETATM    2  C   UNL     1      -8.372   1.914 -34.034  1.00  0.00     0.322 C 
HETATM    3  O   UNL     1      -8.385   1.163 -34.988  1.00  0.00    -0.247 OA
HETATM    4  N   UNL     1      -7.476   1.679 -32.987  1.00  0.00    -0.289 N 
HETATM    5  H   UNL     1      -8.981   3.556 -32.932  1.00  0.00     0.165 HD
HETATM    6  H   UNL     1      -7.484   2.172 -32.113  1.00  0.00     0.172 HD
ENDROOT
BRANCH   1   7
HETATM    7  CA  UNL     1     -10.155   3.480 -34.682  1.00  0.00     0.143 C 
BRANCH   7   8
HETATM    8  C   UNL     1     -10.215   5.027 -34.738  1.00  0.00     0.194 C 
BRANCH   8   9
HETATM    9  O   UNL     1      -8.903   5.583 -34.801  1.00  0.00    -0.398 OA
HETATM   10  H   UNL     1      -8.637   5.791 -33.886  1.00  0.00     0.209 HD
ENDBRANCH   8   9
ENDBRANCH   7   8
BRANCH   7  11
HETATM   11  C   UNL     1     -11.485   2.857 -34.292  1.00  0.00    -0.033 A 
HETATM   12  C   UNL     1     -11.965   1.743 -34.997  1.00  0.00     0.009 A 
HETATM   13  C   UNL     1     -13.157   1.120 -34.621  1.00  0.00     0.001 A 
HETATM   14  C   UNL     1     -13.883   1.598 -33.532  1.00  0.00     0.000 A 
HETATM   15  C   UNL     1     -13.418   2.696 -32.816  1.00  0.00     0.001 A 
HETATM   16  C   UNL     1     -12.224   3.321 -33.188  1.00  0.00     0.009 A 
ENDBRANCH   7  11
ENDBRANCH   1   7
BRANCH   4  17
HETATM   17  C   UNL     1      -6.549   0.741 -33.073  1.00  0.00     0.153 A 
HETATM   18  N   UNL     1      -6.734  -0.528 -33.442  1.00  0.00    -0.335 N 
HETATM   19  H   UNL     1      -7.690  -0.837 -33.635  1.00  0.00     0.168 HD
HETATM   20  C   UNL     1      -5.570  -1.272 -33.545  1.00  0.00     0.051 A 
HETATM   21  C   UNL     1      -4.470  -0.536 -33.158  1.00  0.00     0.083 A 
HETATM   22  S   UNL     1      -4.892   1.081 -32.733  1.00  0.00    -0.063 SA
BRANCH  20  23
HETATM   23  C   UNL     1      -5.533  -2.657 -34.021  1.00  0.00    -0.006 A 
HETATM   24  C   UNL     1      -4.411  -3.473 -33.819  1.00  0.00     0.033 A 
HETATM   25  C   UNL     1      -4.421  -4.764 -34.322  1.00  0.00     0.117 A 
HETATM   26  N   UNL     1      -5.454  -5.289 -35.005  1.00  0.00    -0.273 NA
HETATM   27  C   UNL     1      -6.528  -4.500 -35.193  1.00  0.00     0.117 A 
HETATM   28  C   UNL     1      -6.615  -3.197 -34.725  1.00  0.00     0.033 A 
ENDBRANCH  20  23
ENDBRANCH   4  17
TORSDOF 6
ENDMDL
MODEL 7
REMARK VINA RESULT:      -7.5      2.375      9.182
REMARK  6 active torsions:
REMARK  status: ('A' for Active; 'I' for Inactive)
REMARK    1  A    between atoms: O_1  and  C_2 
REMARK    2  A    between atoms: C_2  and  CA_3 
REMARK    3  A    between atoms: CA_3  and  N_4 
REMARK    4  A    between atoms: CA_3  and  C_20 
REMARK       I    between atoms: N_4  and  C_5 
REMARK       I    between atoms: C_5  and  N_7 
REMARK    5  A    between atoms: N_7  and  C_8 
REMARK    6  A    between atoms: C_11  and  C_14 
ROOT
HETATM    1  N   UNL     1      -2.519   4.536 -31.009  1.00  0.00    -0.332 N 
HETATM    2  C   UNL     1      -3.515   3.831 -31.593  1.00  0.00     0.322 C 
HETATM    3  O   UNL     1      -4.110   4.019 -32.634  1.00  0.00    -0.247 OA
HETATM    4  N   UNL     1      -3.877   2.754 -30.779  1.00  0.00    -0.289 N 
HETATM    5  H   UNL     1      -2.084   4.231 -30.153  1.00  0.00     0.165 HD
HETATM    6  H   UNL     1      -3.526   2.600 -29.853  1.00  0.00     0.172 HD
ENDROOT
BRANCH   1   7
HETATM    7  CA  UNL     1      -1.930   5.712 -31.645  1.00  0.00     0.143 C 
BRANCH   7   8
HETATM    8  C   UNL     1      -0.889   5.339 -32.731  1.00  0.00     0.194 C 
BRANCH   8   9
HETATM    9  O   UNL     1      -1.525   5.111 -33.987  1.00  0.00    -0.398 OA
HETATM   10  H   UNL     1      -1.548   4.145 -34.123  1.00  0.00     0.209 HD
ENDBRANCH   8   9
ENDBRANCH   7   8
BRANCH   7  11
HETATM   11  C   UNL     1      -1.346   6.595 -30.555  1.00  0.00    -0.033 A 
HETATM   12  C   UNL     1      -0.007   6.432 -30.171  1.00  0.00     0.009 A 
HETATM   13  C   UNL     1       0.567   7.268 -29.211  1.00  0.00     0.001 A 
HETATM   14  C   UNL     1      -0.188   8.283 -28.626  1.00  0.00     0.000 A 
HETATM   15  C   UNL     1      -1.516   8.464 -29.001  1.00  0.00     0.001 A 
HETATM   16  C   UNL     1      -2.092   7.630 -29.963  1.00  0.00     0.009 A 
ENDBRANCH   7  11
ENDBRANCH   1   7
BRANCH   4  17
HETATM   17  C   UNL     1      -4.760   1.855 -31.182  1.00  0.00     0.153 A 
HETATM   18  N   UNL     1      -4.589   0.950 -32.147  1.00  0.00    -0.335 N 
HETATM   19  H   UNL     1      -3.712   0.969 -32.673  1.00  0.00     0.168 HD
HETATM   20  C   UNL     1      -5.641   0.061 -32.294  1.00  0.00     0.051 A 
HETATM   21  C   UNL     1      -6.681   0.372 -31.442  1.00  0.00     0.083 A 
HETATM   22  S   UNL     1      -6.309   1.720 -30.434  1.00  0.00    -0.063 SA
BRANCH  20  23
HETATM   23  C   UNL     1      -5.627  -1.065 -33.229  1.00  0.00    -0.006 A 
HETATM   24  C   UNL     1      -6.805  -1.554 -33.810  1.00  0.00     0.033 A 
HETATM   25  C   UNL     1      -6.731  -2.646 -34.661  1.00  0.00     0.117 A 
HETATM   26  N   UNL     1      -5.583  -3.276 -34.966  1.00  0.00    -0.273 NA
HETATM   27  C   UNL     1      -4.456  -2.799 -34.407  1.00  0.00     0.117 A 
HETATM   28  C   UNL     1      -4.425  -1.711 -33.546  1.00  0.00     0.033 A 
ENDBRANCH  20  23
ENDBRANCH   4  17
TORSDOF 6
ENDMDL
MODEL 8
REMARK VINA RESULT:      -7.4      3.706      9.490
REMARK  6 active torsions:
REMARK  status: ('A' for Active; 'I' for Inactive)
REMARK    1  A    between atoms: O_1  and  C_2 
REMARK    2  A    between atoms: C_2  and  CA_3 
REMARK    3  A    between atoms: CA_3  and  N_4 
REMARK    4  A    between atoms: CA_3  and  C_20 
REMARK       I    between atoms: N_4  and  C_5 
REMARK       I    between atoms: C_5  and  N_7 
REMARK    5  A    between atoms: N_7  and  C_8 
REMARK    6  A    between atoms: C_11  and  C_14 
ROOT
HETATM    1  N   UNL     1      -1.611   5.655 -29.997  1.00  0.00    -0.332 N 
HETATM    2  C   UNL     1      -2.414   5.355 -31.043  1.00  0.00     0.322 C 
HETATM    3  O   UNL     1      -2.239   5.485 -32.237  1.00  0.00    -0.247 OA
HETATM    4  N   UNL     1      -3.635   4.855 -30.579  1.00  0.00    -0.289 N 
HETATM    5  H   UNL     1      -1.876   5.447 -29.047  1.00  0.00     0.165 HD
HETATM    6  H   UNL     1      -3.908   4.833 -29.614  1.00  0.00     0.172 HD
ENDROOT
BRANCH   1   7
HETATM    7  CA  UNL     1      -0.262   6.184 -30.187  1.00  0.00     0.143 C 
BRANCH   7   8
HETATM    8  C   UNL     1       0.717   5.121 -30.746  1.00  0.00     0.194 C 
BRANCH   8   9
HETATM    9  O   UNL     1       0.881   4.046 -29.823  1.00  0.00    -0.398 OA
HETATM   10  H   UNL     1       0.520   3.247 -30.250  1.00  0.00     0.209 HD
ENDBRANCH   8   9
ENDBRANCH   7   8
BRANCH   7  11
HETATM   11  C   UNL     1       0.204   6.772 -28.866  1.00  0.00    -0.033 A 
HETATM   12  C   UNL     1       1.032   7.904 -28.862  1.00  0.00     0.009 A 
HETATM   13  C   UNL     1       1.427   8.495 -27.660  1.00  0.00     0.001 A 
HETATM   14  C   UNL     1       0.995   7.966 -26.446  1.00  0.00     0.000 A 
HETATM   15  C   UNL     1       0.167   6.849 -26.431  1.00  0.00     0.001 A 
HETATM   16  C   UNL     1      -0.232   6.256 -27.632  1.00  0.00     0.009 A 
ENDBRANCH   7  11
ENDBRANCH   1   7
BRANCH   4  17
HETATM   17  C   UNL     1      -4.550   4.393 -31.413  1.00  0.00     0.153 A 
HETATM   18  N   UNL     1      -4.531   3.216 -32.041  1.00  0.00    -0.335 N 
HETATM   19  H   UNL     1      -3.712   2.618 -31.915  1.00  0.00     0.168 HD
HETATM   20  C   UNL     1      -5.671   2.940 -32.780  1.00  0.00     0.051 A 
HETATM   21  C   UNL     1      -6.550   4.003 -32.759  1.00  0.00     0.083 A 
HETATM   22  S   UNL     1      -5.974   5.297 -31.776  1.00  0.00    -0.063 SA
BRANCH  20  23
HETATM   23  C   UNL     1      -5.900   1.671 -33.473  1.00  0.00    -0.006 A 
HETATM   24  C   UNL     1      -6.832   1.560 -34.514  1.00  0.00     0.033 A 
HETATM   25  C   UNL     1      -7.031   0.324 -35.109  1.00  0.00     0.117 A 
HETATM   26  N   UNL     1      -6.376  -0.792 -34.742  1.00  0.00    -0.273 NA
HETATM   27  C   UNL     1      -5.481  -0.677 -33.745  1.00  0.00     0.117 A 
HETATM   28  C   UNL     1      -5.209   0.515 -33.089  1.00  0.00     0.033 A 
ENDBRANCH  20  23
ENDBRANCH   4  17
TORSDOF 6
ENDMDL
MODEL 9
REMARK VINA RESULT:      -7.1      5.351      6.623
REMARK  6 active torsions:
REMARK  status: ('A' for Active; 'I' for Inactive)
REMARK    1  A    between atoms: O_1  and  C_2 
REMARK    2  A    between atoms: C_2  and  CA_3 
REMARK    3  A    between atoms: CA_3  and  N_4 
REMARK    4  A    between atoms: CA_3  and  C_20 
REMARK       I    between atoms: N_4  and  C_5 
REMARK       I    between atoms: C_5  and  N_7 
REMARK    5  A    between atoms: N_7  and  C_8 
REMARK    6  A    between atoms: C_11  and  C_14 
ROOT
HETATM    1  N   UNL     1      -7.920  -0.060 -34.157  1.00  0.00    -0.332 N 
HETATM    2  C   UNL     1      -8.770   0.919 -33.771  1.00  0.00     0.322 C 
HETATM    3  O   UNL     1      -8.756   1.636 -32.791  1.00  0.00    -0.247 OA
HETATM    4  N   UNL     1      -9.821   1.028 -34.686  1.00  0.00    -0.289 N 
HETATM    5  H   UNL     1      -8.036  -0.548 -35.032  1.00  0.00     0.165 HD
HETATM    6  H   UNL     1      -9.976   0.396 -35.449  1.00  0.00     0.172 HD
ENDROOT
BRANCH   1   7
HETATM    7  CA  UNL     1      -6.719  -0.385 -33.393  1.00  0.00     0.143 C 
BRANCH   7   8
HETATM    8  C   UNL     1      -5.633   0.715 -33.499  1.00  0.00     0.194 C 
BRANCH   8   9
HETATM    9  O   UNL     1      -5.672   1.578 -32.364  1.00  0.00    -0.398 OA
HETATM   10  H   UNL     1      -5.567   1.014 -31.574  1.00  0.00     0.209 HD
ENDBRANCH   8   9
ENDBRANCH   7   8
BRANCH   7  11
HETATM   11  C   UNL     1      -6.221  -1.745 -33.854  1.00  0.00    -0.033 A 
HETATM   12  C   UNL     1      -7.125  -2.668 -34.402  1.00  0.00     0.009 A 
HETATM   13  C   UNL     1      -6.681  -3.901 -34.884  1.00  0.00     0.001 A 
HETATM   14  C   UNL     1      -5.328  -4.227 -34.831  1.00  0.00     0.000 A 
HETATM   15  C   UNL     1      -4.416  -3.321 -34.299  1.00  0.00     0.001 A 
HETATM   16  C   UNL     1      -4.856  -2.085 -33.818  1.00  0.00     0.009 A 
ENDBRANCH   7  11
ENDBRANCH   1   7
BRANCH   4  17
HETATM   17  C   UNL     1     -10.726   1.986 -34.582  1.00  0.00     0.153 A 
HETATM   18  N   UNL     1     -10.599   3.249 -34.994  1.00  0.00    -0.335 N 
HETATM   19  H   UNL     1      -9.700   3.536 -35.388  1.00  0.00     0.168 HD
HETATM   20  C   UNL     1     -11.743   4.017 -34.854  1.00  0.00     0.051 A 
HETATM   21  C   UNL     1     -12.750   3.306 -34.236  1.00  0.00     0.083 A 
HETATM   22  S   UNL     1     -12.279   1.683 -33.895  1.00  0.00    -0.063 SA
BRANCH  20  23
HETATM   23  C   UNL     1     -11.853   5.400 -35.324  1.00  0.00    -0.006 A 
HETATM   24  C   UNL     1     -13.074   5.932 -35.761  1.00  0.00     0.033 A 
HETATM   25  C   UNL     1     -13.109   7.237 -36.227  1.00  0.00     0.117 A 
HETATM   26  N   UNL     1     -12.028   8.034 -36.288  1.00  0.00    -0.273 NA
HETATM   27  C   UNL     1     -10.861   7.517 -35.864  1.00  0.00     0.117 A 
HETATM   28  C   UNL     1     -10.724   6.225 -35.379  1.00  0.00     0.033 A 
ENDBRANCH  20  23
ENDBRANCH   4  17
TORSDOF 6
ENDMDL
MODEL 10
REMARK VINA RESULT:      -7.1      5.699      7.512
REMARK  6 active torsions:
REMARK  status: ('A' for Active; 'I' for Inactive)
REMARK    1  A    between atoms: O_1  and  C_2 
REMARK    2  A    between atoms: C_2  and  CA_3 
REMARK    3  A    between atoms: CA_3  and  N_4 
REMARK    4  A    between atoms: CA_3  and  C_20 
REMARK       I    between atoms: N_4  and  C_5 
REMARK       I    between atoms: C_5  and  N_7 
REMARK    5  A    between atoms: N_7  and  C_8 
REMARK    6  A    between atoms: C_11  and  C_14 
ROOT
HETATM    1  N   UNL     1      -8.153   0.353 -33.746  1.00  0.00    -0.332 N 
HETATM    2  C   UNL     1      -9.279   0.693 -33.078  1.00  0.00     0.322 C 
HETATM    3  O   UNL     1      -9.498   0.769 -31.886  1.00  0.00    -0.247 OA
HETATM    4  N   UNL     1     -10.315   0.941 -33.983  1.00  0.00    -0.289 N 
HETATM    5  H   UNL     1      -8.106   0.376 -34.753  1.00  0.00     0.165 HD
HETATM    6  H   UNL     1     -10.255   0.779 -34.972  1.00  0.00     0.172 HD
ENDROOT
BRANCH   1   7
HETATM    7  CA  UNL     1      -6.904   0.052 -33.051  1.00  0.00     0.143 C 
BRANCH   7   8
HETATM    8  C   UNL     1      -5.893   1.225 -33.114  1.00  0.00     0.194 C 
BRANCH   8   9
HETATM    9  O   UNL     1      -6.346   2.328 -32.332  1.00  0.00    -0.398 OA
HETATM   10  H   UNL     1      -7.228   2.090 -31.987  1.00  0.00     0.209 HD
ENDBRANCH   8   9
ENDBRANCH   7   8
BRANCH   7  11
HETATM   11  C   UNL     1      -6.342  -1.236 -33.628  1.00  0.00    -0.033 A 
HETATM   12  C   UNL     1      -7.210  -2.182 -34.194  1.00  0.00     0.009 A 
HETATM   13  C   UNL     1      -6.712  -3.347 -34.780  1.00  0.00     0.001 A 
HETATM   14  C   UNL     1      -5.339  -3.580 -34.815  1.00  0.00     0.000 A 
HETATM   15  C   UNL     1      -4.463  -2.650 -34.266  1.00  0.00     0.001 A 
HETATM   16  C   UNL     1      -4.958  -1.482 -33.680  1.00  0.00     0.009 A 
ENDBRANCH   7  11
ENDBRANCH   1   7
BRANCH   4  17
HETATM   17  C   UNL     1     -11.489   1.392 -33.577  1.00  0.00     0.153 A 
HETATM   18  N   UNL     1     -11.711   2.483 -32.842  1.00  0.00    -0.335 N 
HETATM   19  H   UNL     1     -10.901   3.010 -32.509  1.00  0.00     0.168 HD
HETATM   20  C   UNL     1     -13.050   2.782 -32.646  1.00  0.00     0.051 A 
HETATM   21  C   UNL     1     -13.864   1.816 -33.202  1.00  0.00     0.083 A 
HETATM   22  S   UNL     1     -12.956   0.593 -34.008  1.00  0.00    -0.063 SA
BRANCH  20  23
HETATM   23  C   UNL     1     -13.520   3.980 -31.948  1.00  0.00    -0.006 A 
HETATM   24  C   UNL     1     -14.163   5.022 -32.630  1.00  0.00     0.033 A 
HETATM   25  C   UNL     1     -14.554   6.148 -31.921  1.00  0.00     0.117 A 
HETATM   26  N   UNL     1     -14.349   6.304 -30.601  1.00  0.00    -0.273 NA
HETATM   27  C   UNL     1     -13.734   5.298 -29.954  1.00  0.00     0.117 A 
HETATM   28  C   UNL     1     -13.308   4.132 -30.573  1.00  0.00     0.033 A 
ENDBRANCH  20  23
ENDBRANCH   4  17
TORSDOF 6
ENDMDL
