MODEL 1
REMARK VINA RESULT:      -8.8      0.000      0.000
REMARK  3 active torsions:
REMARK  status: ('A' for Active; 'I' for Inactive)
REMARK    1  A    between atoms: C_3  and  N_4 
REMARK       I    between atoms: N_4  and  C_5 
REMARK    2  A    between atoms: C_5  and  C_6 
REMARK    3  A    between atoms: C_7  and  C_8 
ROOT
HETATM    1  C   UNL     1      -5.137   1.228 -32.492  1.00  0.00     0.063 C 
HETATM    2  C   UNL     1      -6.097   2.197 -33.183  1.00  0.00     0.216 C 
HETATM    3  N   UNL     1      -5.413   3.426 -33.559  1.00  0.00    -0.091 N 
HETATM    4  C   UNL     1      -4.227   3.836 -33.022  1.00  0.00     0.735 A 
HETATM    5  N   UNL     1      -3.597   3.025 -32.148  1.00  0.00    -0.191 N 
HETATM    6  N   UNL     1      -5.878   4.341 -34.422  1.00  0.00     0.012 NA
HETATM    7  N   UNL     1      -4.972   5.315 -34.389  1.00  0.00     0.033 NA
HETATM    8  N   UNL     1      -3.942   5.015 -33.515  1.00  0.00     0.030 NA
HETATM    9  C   UNL     1      -3.967   1.689 -31.970  1.00  0.00     0.037 C 
HETATM   10  C   UNL     1      -2.980   0.849 -31.194  1.00  0.00     0.070 C 
HETATM   11  H   UNL     1      -2.659   3.281 -31.845  1.00  0.00     0.184 HD
ENDROOT
BRANCH   1  12
HETATM   12  C   UNL     1      -5.424  -0.247 -32.580  1.00  0.00     0.256 C 
HETATM   13  N   UNL     1      -4.738  -0.930 -33.557  1.00  0.00    -0.323 N 
HETATM   14  H   UNL     1      -4.336  -0.385 -34.319  1.00  0.00     0.169 HD
HETATM   15  O   UNL     1      -6.229  -0.750 -31.803  1.00  0.00    -0.267 OA
BRANCH  13  16
HETATM   16  C   UNL     1      -4.762  -2.326 -33.801  1.00  0.00     0.041 A 
HETATM   17  C   UNL     1      -5.757  -3.027 -34.504  1.00  0.00    -0.035 A 
HETATM   18  C   UNL     1      -7.034  -2.420 -35.018  1.00  0.00     0.050 C 
HETATM   19  C   UNL     1      -5.595  -4.414 -34.707  1.00  0.00     0.009 A 
HETATM   20  C   UNL     1      -4.510  -5.105 -34.173  1.00  0.00     0.001 A 
HETATM   21  C   UNL     1      -3.569  -4.423 -33.415  1.00  0.00     0.002 A 
HETATM   22  C   UNL     1      -3.700  -3.047 -33.225  1.00  0.00     0.030 A 
ENDBRANCH  13  16
ENDBRANCH   1  12
BRANCH   2  23
HETATM   23  C   UNL     1      -7.305   2.511 -32.297  1.00  0.00     0.064 A 
HETATM   24  N   UNL     1      -8.520   2.166 -32.810  1.00  0.00    -0.263 NA
HETATM   25  C   UNL     1      -9.621   2.419 -32.062  1.00  0.00     0.117 A 
HETATM   26  C   UNL     1      -9.578   2.956 -30.790  1.00  0.00     0.019 A 
HETATM   27  C   UNL     1      -8.336   3.257 -30.252  1.00  0.00     0.003 A 
HETATM   28  C   UNL     1      -7.186   3.031 -31.005  1.00  0.00     0.030 A 
ENDBRANCH   2  23
TORSDOF 3
ENDMDL
MODEL 2
REMARK VINA RESULT:      -8.4      2.269      4.277
REMARK  3 active torsions:
REMARK  status: ('A' for Active; 'I' for Inactive)
REMARK    1  A    between atoms: C_3  and  N_4 
REMARK       I    between atoms: N_4  and  C_5 
REMARK    2  A    between atoms: C_5  and  C_6 
REMARK    3  A    between atoms: C_7  and  C_8 
ROOT
HETATM    1  C   UNL     1      -6.909   2.057 -31.166  1.00  0.00     0.063 C 
HETATM    2  C   UNL     1      -5.794   2.919 -30.575  1.00  0.00     0.216 C 
HETATM    3  N   UNL     1      -6.341   3.968 -29.726  1.00  0.00    -0.091 N 
HETATM    4  C   UNL     1      -7.638   4.389 -29.773  1.00  0.00     0.735 A 
HETATM    5  N   UNL     1      -8.498   3.749 -30.591  1.00  0.00    -0.191 N 
HETATM    6  N   UNL     1      -5.642   4.696 -28.844  1.00  0.00     0.012 NA
HETATM    7  N   UNL     1      -6.524   5.573 -28.370  1.00  0.00     0.033 NA
HETATM    8  N   UNL     1      -7.770   5.396 -28.945  1.00  0.00     0.030 NA
HETATM    9  C   UNL     1      -8.188   2.525 -31.190  1.00  0.00     0.037 C 
HETATM   10  C   UNL     1      -9.357   1.805 -31.819  1.00  0.00     0.070 C 
HETATM   11  H   UNL     1      -9.487   3.988 -30.531  1.00  0.00     0.184 HD
ENDROOT
BRANCH   1  12
HETATM   12  C   UNL     1      -6.595   0.630 -31.528  1.00  0.00     0.256 C 
HETATM   13  N   UNL     1      -6.345   0.394 -32.860  1.00  0.00    -0.323 N 
HETATM   14  H   UNL     1      -6.670   1.091 -33.530  1.00  0.00     0.169 HD
HETATM   15  O   UNL     1      -6.579  -0.224 -30.648  1.00  0.00    -0.267 OA
BRANCH  13  16
HETATM   16  C   UNL     1      -5.951  -0.831 -33.451  1.00  0.00     0.041 A 
HETATM   17  C   UNL     1      -4.639  -1.331 -33.525  1.00  0.00    -0.035 A 
HETATM   18  C   UNL     1      -3.409  -0.583 -33.089  1.00  0.00     0.050 C 
HETATM   19  C   UNL     1      -4.429  -2.603 -34.099  1.00  0.00     0.009 A 
HETATM   20  C   UNL     1      -5.480  -3.336 -34.647  1.00  0.00     0.001 A 
HETATM   21  C   UNL     1      -6.761  -2.806 -34.640  1.00  0.00     0.002 A 
HETATM   22  C   UNL     1      -6.991  -1.561 -34.055  1.00  0.00     0.030 A 
ENDBRANCH  13  16
ENDBRANCH   1  12
BRANCH   2  23
HETATM   23  C   UNL     1      -4.919   3.528 -31.675  1.00  0.00     0.064 A 
HETATM   24  N   UNL     1      -5.512   4.491 -32.437  1.00  0.00    -0.263 NA
HETATM   25  C   UNL     1      -4.777   5.064 -33.420  1.00  0.00     0.117 A 
HETATM   26  C   UNL     1      -3.449   4.768 -33.659  1.00  0.00     0.019 A 
HETATM   27  C   UNL     1      -2.836   3.826 -32.847  1.00  0.00     0.003 A 
HETATM   28  C   UNL     1      -3.571   3.201 -31.842  1.00  0.00     0.030 A 
ENDBRANCH   2  23
TORSDOF 3
ENDMDL
MODEL 3
REMARK VINA RESULT:      -8.4      2.516      4.685
REMARK  3 active torsions:
REMARK  status: ('A' for Active; 'I' for Inactive)
REMARK    1  A    between atoms: C_3  and  N_4 
REMARK       I    between atoms: N_4  and  C_5 
REMARK    2  A    between atoms: C_5  and  C_6 
REMARK    3  A    between atoms: C_7  and  C_8 
ROOT
HETATM    1  C   UNL     1      -6.642   4.167 -32.833  1.00  0.00     0.063 C 
HETATM    2  C   UNL     1      -5.464   4.872 -32.162  1.00  0.00     0.216 C 
HETATM    3  N   UNL     1      -5.824   6.226 -31.767  1.00  0.00    -0.091 N 
HETATM    4  C   UNL     1      -6.888   6.913 -32.278  1.00  0.00     0.735 A 
HETATM    5  N   UNL     1      -7.713   6.284 -33.139  1.00  0.00    -0.191 N 
HETATM    6  N   UNL     1      -5.135   6.996 -30.913  1.00  0.00     0.012 NA
HETATM    7  N   UNL     1      -5.781   8.159 -30.924  1.00  0.00     0.033 NA
HETATM    8  N   UNL     1      -6.871   8.123 -31.775  1.00  0.00     0.030 NA
HETATM    9  C   UNL     1      -7.678   4.899 -33.328  1.00  0.00     0.037 C 
HETATM   10  C   UNL     1      -8.854   4.327 -34.084  1.00  0.00     0.070 C 
HETATM   11  H   UNL     1      -8.568   6.760 -33.420  1.00  0.00     0.184 HD
ENDROOT
BRANCH   1  12
HETATM   12  C   UNL     1      -6.717   2.666 -32.755  1.00  0.00     0.256 C 
HETATM   13  N   UNL     1      -6.075   1.983 -33.762  1.00  0.00    -0.323 N 
HETATM   14  H   UNL     1      -5.864   2.496 -34.618  1.00  0.00     0.169 HD
HETATM   15  O   UNL     1      -7.327   2.142 -31.829  1.00  0.00    -0.267 OA
BRANCH  13  16
HETATM   16  C   UNL     1      -5.926   0.580 -33.883  1.00  0.00     0.041 A 
HETATM   17  C   UNL     1      -6.776  -0.286 -34.593  1.00  0.00    -0.035 A 
HETATM   18  C   UNL     1      -8.065   0.125 -35.251  1.00  0.00     0.050 C 
HETATM   19  C   UNL     1      -6.446  -1.656 -34.660  1.00  0.00     0.009 A 
HETATM   20  C   UNL     1      -5.340  -2.172 -33.988  1.00  0.00     0.001 A 
HETATM   21  C   UNL     1      -4.546  -1.328 -33.226  1.00  0.00     0.002 A 
HETATM   22  C   UNL     1      -4.843   0.034 -33.168  1.00  0.00     0.030 A 
ENDBRANCH  13  16
ENDBRANCH   1  12
BRANCH   2  23
HETATM   23  C   UNL     1      -4.235   4.893 -33.073  1.00  0.00     0.064 A 
HETATM   24  N   UNL     1      -4.438   5.384 -34.330  1.00  0.00    -0.263 NA
HETATM   25  C   UNL     1      -3.379   5.428 -35.174  1.00  0.00     0.117 A 
HETATM   26  C   UNL     1      -2.097   5.057 -34.817  1.00  0.00     0.019 A 
HETATM   27  C   UNL     1      -1.885   4.608 -33.522  1.00  0.00     0.003 A 
HETATM   28  C   UNL     1      -2.958   4.528 -32.637  1.00  0.00     0.030 A 
ENDBRANCH   2  23
TORSDOF 3
ENDMDL
MODEL 4
REMARK VINA RESULT:      -8.1      2.412      5.940
REMARK  3 active torsions:
REMARK  status: ('A' for Active; 'I' for Inactive)
REMARK    1  A    between atoms: C_3  and  N_4 
REMARK       I    between atoms: N_4  and  C_5 
REMARK    2  A    between atoms: C_5  and  C_6 
REMARK    3  A    between atoms: C_7  and  C_8 
ROOT
HETATM    1  C   UNL     1      -6.928   1.838 -32.734  1.00  0.00     0.063 C 
HETATM    2  C   UNL     1      -6.180   0.665 -32.101  1.00  0.00     0.216 C 
HETATM    3  N   UNL     1      -4.839   1.061 -31.695  1.00  0.00    -0.091 N 
HETATM    4  C   UNL     1      -4.192   2.165 -32.170  1.00  0.00     0.735 A 
HETATM    5  N   UNL     1      -4.852   2.994 -33.005  1.00  0.00    -0.191 N 
HETATM    6  N   UNL     1      -4.045   0.373 -30.863  1.00  0.00     0.012 NA
HETATM    7  N   UNL     1      -2.905   1.061 -30.853  1.00  0.00     0.033 NA
HETATM    8  N   UNL     1      -2.982   2.176 -31.669  1.00  0.00     0.030 NA
HETATM    9  C   UNL     1      -6.234   2.916 -33.195  1.00  0.00     0.037 C 
HETATM   10  C   UNL     1      -6.850   4.094 -33.912  1.00  0.00     0.070 C 
HETATM   11  H   UNL     1      -4.408   3.875 -33.258  1.00  0.00     0.184 HD
ENDROOT
BRANCH   1  12
HETATM   12  C   UNL     1      -8.431   1.856 -32.653  1.00  0.00     0.256 C 
HETATM   13  N   UNL     1      -9.094   1.499 -33.804  1.00  0.00    -0.323 N 
HETATM   14  H   UNL     1      -8.573   1.541 -34.679  1.00  0.00     0.169 HD
HETATM   15  O   UNL     1      -8.973   2.179 -31.601  1.00  0.00    -0.267 OA
BRANCH  13  16
HETATM   16  C   UNL     1     -10.493   1.357 -33.975  1.00  0.00     0.041 A 
HETATM   17  C   UNL     1     -11.343   2.260 -34.639  1.00  0.00    -0.035 A 
HETATM   18  C   UNL     1     -10.919   3.598 -35.180  1.00  0.00     0.050 C 
HETATM   19  C   UNL     1     -12.709   1.935 -34.770  1.00  0.00     0.009 A 
HETATM   20  C   UNL     1     -13.239   0.778 -34.203  1.00  0.00     0.001 A 
HETATM   21  C   UNL     1     -12.413  -0.073 -33.484  1.00  0.00     0.002 A 
HETATM   22  C   UNL     1     -11.054   0.220 -33.365  1.00  0.00     0.030 A 
ENDBRANCH  13  16
ENDBRANCH   1  12
BRANCH   2  23
HETATM   23  C   UNL     1      -6.115  -0.533 -33.052  1.00  0.00     0.064 A 
HETATM   24  N   UNL     1      -7.318  -1.054 -33.429  1.00  0.00    -0.263 NA
HETATM   25  C   UNL     1      -7.314  -2.113 -34.274  1.00  0.00     0.117 A 
HETATM   26  C   UNL     1      -6.166  -2.658 -34.817  1.00  0.00     0.019 A 
HETATM   27  C   UNL     1      -4.949  -2.090 -34.471  1.00  0.00     0.003 A 
HETATM   28  C   UNL     1      -4.917  -1.015 -33.586  1.00  0.00     0.030 A 
ENDBRANCH   2  23
TORSDOF 3
ENDMDL
MODEL 5
REMARK VINA RESULT:      -8.0      3.280      5.404
REMARK  3 active torsions:
REMARK  status: ('A' for Active; 'I' for Inactive)
REMARK    1  A    between atoms: C_3  and  N_4 
REMARK       I    between atoms: N_4  and  C_5 
REMARK    2  A    between atoms: C_5  and  C_6 
REMARK    3  A    between atoms: C_7  and  C_8 
ROOT
HETATM    1  C   UNL     1     -10.051   2.473 -32.726  1.00  0.00     0.063 C 
HETATM    2  C   UNL     1     -10.971   2.845 -33.888  1.00  0.00     0.216 C 
HETATM    3  N   UNL     1     -11.105   4.291 -34.003  1.00  0.00    -0.091 N 
HETATM    4  C   UNL     1     -10.810   5.167 -32.999  1.00  0.00     0.735 A 
HETATM    5  N   UNL     1     -10.283   4.687 -31.854  1.00  0.00    -0.191 N 
HETATM    6  N   UNL     1     -11.590   4.943 -35.068  1.00  0.00     0.012 NA
HETATM    7  N   UNL     1     -11.602   6.220 -34.694  1.00  0.00     0.033 NA
HETATM    8  N   UNL     1     -11.124   6.372 -33.405  1.00  0.00     0.030 NA
HETATM    9  C   UNL     1      -9.790   3.384 -31.748  1.00  0.00     0.037 C 
HETATM   10  C   UNL     1      -8.968   3.109 -30.512  1.00  0.00     0.070 C 
HETATM   11  H   UNL     1      -9.954   5.356 -31.160  1.00  0.00     0.184 HD
ENDROOT
BRANCH   1  12
HETATM   12  C   UNL     1      -9.302   1.169 -32.796  1.00  0.00     0.256 C 
HETATM   13  N   UNL     1      -8.073   1.221 -33.413  1.00  0.00    -0.323 N 
HETATM   14  H   UNL     1      -7.886   2.016 -34.024  1.00  0.00     0.169 HD
HETATM   15  O   UNL     1      -9.806   0.159 -32.318  1.00  0.00    -0.267 OA
BRANCH  13  16
HETATM   16  C   UNL     1      -7.137   0.165 -33.543  1.00  0.00     0.041 A 
HETATM   17  C   UNL     1      -6.090  -0.128 -32.652  1.00  0.00    -0.035 A 
HETATM   18  C   UNL     1      -5.714   0.713 -31.462  1.00  0.00     0.050 C 
HETATM   19  C   UNL     1      -5.283  -1.258 -32.902  1.00  0.00     0.009 A 
HETATM   20  C   UNL     1      -5.461  -2.042 -34.039  1.00  0.00     0.001 A 
HETATM   21  C   UNL     1      -6.447  -1.706 -34.955  1.00  0.00     0.002 A 
HETATM   22  C   UNL     1      -7.271  -0.607 -34.712  1.00  0.00     0.030 A 
ENDBRANCH  13  16
ENDBRANCH   1  12
BRANCH   2  23
HETATM   23  C   UNL     1     -12.349   2.194 -33.739  1.00  0.00     0.064 A 
HETATM   24  N   UNL     1     -13.182   2.775 -32.828  1.00  0.00    -0.263 NA
HETATM   25  C   UNL     1     -14.415   2.239 -32.662  1.00  0.00     0.117 A 
HETATM   26  C   UNL     1     -14.894   1.174 -33.400  1.00  0.00     0.019 A 
HETATM   27  C   UNL     1     -14.062   0.620 -34.362  1.00  0.00     0.003 A 
HETATM   28  C   UNL     1     -12.780   1.134 -34.540  1.00  0.00     0.030 A 
ENDBRANCH   2  23
TORSDOF 3
ENDMDL
MODEL 6
REMARK VINA RESULT:      -7.8      2.494      6.988
REMARK  3 active torsions:
REMARK  status: ('A' for Active; 'I' for Inactive)
REMARK    1  A    between atoms: C_3  and  N_4 
REMARK       I    between atoms: N_4  and  C_5 
REMARK    2  A    between atoms: C_5  and  C_6 
REMARK    3  A    between atoms: C_7  and  C_8 
ROOT
HETATM    1  C   UNL     1      -6.350   3.096 -32.304  1.00  0.00     0.063 C 
HETATM    2  C   UNL     1      -6.428   1.765 -33.051  1.00  0.00     0.216 C 
HETATM    3  N   UNL     1      -7.668   1.067 -32.743  1.00  0.00    -0.091 N 
HETATM    4  C   UNL     1      -8.445   1.336 -31.653  1.00  0.00     0.735 A 
HETATM    5  N   UNL     1      -8.101   2.362 -30.850  1.00  0.00    -0.191 N 
HETATM    6  N   UNL     1      -8.174   0.038 -33.438  1.00  0.00     0.012 NA
HETATM    7  N   UNL     1      -9.254  -0.324 -32.749  1.00  0.00     0.033 NA
HETATM    8  N   UNL     1      -9.430   0.473 -31.632  1.00  0.00     0.030 NA
HETATM    9  C   UNL     1      -7.147   3.313 -31.221  1.00  0.00     0.037 C 
HETATM   10  C   UNL     1      -7.102   4.549 -30.354  1.00  0.00     0.070 C 
HETATM   11  H   UNL     1      -8.749   2.633 -30.111  1.00  0.00     0.184 HD
ENDROOT
BRANCH   1  12
HETATM   12  C   UNL     1      -5.532   4.207 -32.905  1.00  0.00     0.256 C 
HETATM   13  N   UNL     1      -4.241   4.315 -32.443  1.00  0.00    -0.323 N 
HETATM   14  H   UNL     1      -4.021   3.866 -31.554  1.00  0.00     0.169 HD
HETATM   15  O   UNL     1      -6.040   4.939 -33.748  1.00  0.00    -0.267 OA
BRANCH  13  16
HETATM   16  C   UNL     1      -3.244   5.214 -32.894  1.00  0.00     0.041 A 
HETATM   17  C   UNL     1      -3.085   6.549 -32.483  1.00  0.00    -0.035 A 
HETATM   18  C   UNL     1      -4.031   7.287 -31.575  1.00  0.00     0.050 C 
HETATM   19  C   UNL     1      -1.997   7.291 -32.991  1.00  0.00     0.009 A 
HETATM   20  C   UNL     1      -1.125   6.750 -33.933  1.00  0.00     0.001 A 
HETATM   21  C   UNL     1      -1.329   5.457 -34.393  1.00  0.00     0.002 A 
HETATM   22  C   UNL     1      -2.385   4.701 -33.883  1.00  0.00     0.030 A 
ENDBRANCH  13  16
ENDBRANCH   1  12
BRANCH   2  23
HETATM   23  C   UNL     1      -5.224   0.876 -32.732  1.00  0.00     0.064 A 
HETATM   24  N   UNL     1      -4.541   1.190 -31.594  1.00  0.00    -0.263 NA
HETATM   25  C   UNL     1      -3.470   0.429 -31.266  1.00  0.00     0.117 A 
HETATM   26  C   UNL     1      -3.063  -0.677 -31.986  1.00  0.00     0.019 A 
HETATM   27  C   UNL     1      -3.793  -1.024 -33.114  1.00  0.00     0.003 A 
HETATM   28  C   UNL     1      -4.886  -0.248 -33.492  1.00  0.00     0.030 A 
ENDBRANCH   2  23
TORSDOF 3
ENDMDL
MODEL 7
REMARK VINA RESULT:      -7.6     14.889     16.704
REMARK  3 active torsions:
REMARK  status: ('A' for Active; 'I' for Inactive)
REMARK    1  A    between atoms: C_3  and  N_4 
REMARK       I    between atoms: N_4  and  C_5 
REMARK    2  A    between atoms: C_5  and  C_6 
REMARK    3  A    between atoms: C_7  and  C_8 
ROOT
HETATM    1  C   UNL     1      -4.977 -14.259 -38.829  1.00  0.00     0.063 C 
HETATM    2  C   UNL     1      -5.934 -14.779 -39.902  1.00  0.00     0.216 C 
HETATM    3  N   UNL     1      -5.352 -14.638 -41.230  1.00  0.00    -0.091 N 
HETATM    4  C   UNL     1      -4.313 -13.803 -41.524  1.00  0.00     0.735 A 
HETATM    5  N   UNL     1      -3.726 -13.122 -40.520  1.00  0.00    -0.191 N 
HETATM    6  N   UNL     1      -5.791 -15.250 -42.339  1.00  0.00     0.012 NA
HETATM    7  N   UNL     1      -5.021 -14.764 -43.309  1.00  0.00     0.033 NA
HETATM    8  N   UNL     1      -4.100 -13.857 -42.815  1.00  0.00     0.030 NA
HETATM    9  C   UNL     1      -3.957 -13.426 -39.176  1.00  0.00     0.037 C 
HETATM   10  C   UNL     1      -3.001 -12.782 -38.199  1.00  0.00     0.070 C 
HETATM   11  H   UNL     1      -2.878 -12.596 -40.727  1.00  0.00     0.184 HD
ENDROOT
BRANCH   1  12
HETATM   12  C   UNL     1      -5.072 -14.840 -37.444  1.00  0.00     0.256 C 
HETATM   13  N   UNL     1      -6.124 -14.390 -36.679  1.00  0.00    -0.323 N 
HETATM   14  H   UNL     1      -6.569 -13.517 -36.959  1.00  0.00     0.169 HD
HETATM   15  O   UNL     1      -4.235 -15.657 -37.076  1.00  0.00    -0.267 OA
BRANCH  13  16
HETATM   16  C   UNL     1      -6.486 -14.829 -35.382  1.00  0.00     0.041 A 
HETATM   17  C   UNL     1      -6.226 -14.155 -34.176  1.00  0.00    -0.035 A 
HETATM   18  C   UNL     1      -5.406 -12.900 -34.054  1.00  0.00     0.050 C 
HETATM   19  C   UNL     1      -6.711 -14.707 -32.972  1.00  0.00     0.009 A 
HETATM   20  C   UNL     1      -7.380 -15.929 -32.949  1.00  0.00     0.001 A 
HETATM   21  C   UNL     1      -7.570 -16.628 -34.132  1.00  0.00     0.002 A 
HETATM   22  C   UNL     1      -7.118 -16.086 -35.336  1.00  0.00     0.030 A 
ENDBRANCH  13  16
ENDBRANCH   1  12
BRANCH   2  23
HETATM   23  C   UNL     1      -7.286 -14.064 -39.836  1.00  0.00     0.064 A 
HETATM   24  N   UNL     1      -8.247 -14.685 -39.094  1.00  0.00    -0.263 NA
HETATM   25  C   UNL     1      -9.461 -14.090 -39.001  1.00  0.00     0.117 A 
HETATM   26  C   UNL     1      -9.762 -12.867 -39.569  1.00  0.00     0.019 A 
HETATM   27  C   UNL     1      -8.765 -12.215 -40.279  1.00  0.00     0.003 A 
HETATM   28  C   UNL     1      -7.513 -12.812 -40.413  1.00  0.00     0.030 A 
ENDBRANCH   2  23
TORSDOF 3
ENDMDL
MODEL 8
REMARK VINA RESULT:      -7.4      2.751      4.921
REMARK  3 active torsions:
REMARK  status: ('A' for Active; 'I' for Inactive)
REMARK    1  A    between atoms: C_3  and  N_4 
REMARK       I    between atoms: N_4  and  C_5 
REMARK    2  A    between atoms: C_5  and  C_6 
REMARK    3  A    between atoms: C_7  and  C_8 
ROOT
HETATM    1  C   UNL     1      -5.236   4.180 -31.095  1.00  0.00     0.063 C 
HETATM    2  C   UNL     1      -3.833   4.782 -31.022  1.00  0.00     0.216 C 
HETATM    3  N   UNL     1      -3.850   6.059 -30.322  1.00  0.00    -0.091 N 
HETATM    4  C   UNL     1      -4.974   6.809 -30.130  1.00  0.00     0.735 A 
HETATM    5  N   UNL     1      -6.161   6.312 -30.533  1.00  0.00    -0.191 N 
HETATM    6  N   UNL     1      -2.774   6.693 -29.838  1.00  0.00     0.012 NA
HETATM    7  N   UNL     1      -3.253   7.841 -29.366  1.00  0.00     0.033 NA
HETATM    8  N   UNL     1      -4.622   7.928 -29.547  1.00  0.00     0.030 NA
HETATM    9  C   UNL     1      -6.325   4.973 -30.897  1.00  0.00     0.037 C 
HETATM   10  C   UNL     1      -7.759   4.515 -31.025  1.00  0.00     0.070 C 
HETATM   11  H   UNL     1      -7.006   6.821 -30.278  1.00  0.00     0.184 HD
ENDROOT
BRANCH   1  12
HETATM   12  C   UNL     1      -5.369   2.684 -31.192  1.00  0.00     0.256 C 
HETATM   13  N   UNL     1      -5.425   2.172 -32.468  1.00  0.00    -0.323 N 
HETATM   14  H   UNL     1      -5.671   2.812 -33.221  1.00  0.00     0.169 HD
HETATM   15  O   UNL     1      -5.421   2.018 -30.164  1.00  0.00    -0.267 OA
BRANCH  13  16
HETATM   16  C   UNL     1      -5.470   0.805 -32.838  1.00  0.00     0.041 A 
HETATM   17  C   UNL     1      -6.631   0.045 -33.064  1.00  0.00    -0.035 A 
HETATM   18  C   UNL     1      -8.035   0.534 -32.832  1.00  0.00     0.050 C 
HETATM   19  C   UNL     1      -6.494  -1.294 -33.487  1.00  0.00     0.009 A 
HETATM   20  C   UNL     1      -5.242  -1.891 -33.619  1.00  0.00     0.001 A 
HETATM   21  C   UNL     1      -4.100  -1.161 -33.322  1.00  0.00     0.002 A 
HETATM   22  C   UNL     1      -4.216   0.172 -32.927  1.00  0.00     0.030 A 
ENDBRANCH  13  16
ENDBRANCH   1  12
BRANCH   2  23
HETATM   23  C   UNL     1      -3.225   4.949 -32.417  1.00  0.00     0.064 A 
HETATM   24  N   UNL     1      -4.114   5.168 -33.428  1.00  0.00    -0.263 NA
HETATM   25  C   UNL     1      -3.625   5.327 -34.681  1.00  0.00     0.117 A 
HETATM   26  C   UNL     1      -2.277   5.334 -34.984  1.00  0.00     0.019 A 
HETATM   27  C   UNL     1      -1.375   5.163 -33.945  1.00  0.00     0.003 A 
HETATM   28  C   UNL     1      -1.847   4.973 -32.648  1.00  0.00     0.030 A 
ENDBRANCH   2  23
TORSDOF 3
ENDMDL
MODEL 9
REMARK VINA RESULT:      -7.4      3.135      5.345
REMARK  3 active torsions:
REMARK  status: ('A' for Active; 'I' for Inactive)
REMARK    1  A    between atoms: C_3  and  N_4 
REMARK       I    between atoms: N_4  and  C_5 
REMARK    2  A    between atoms: C_5  and  C_6 
REMARK    3  A    between atoms: C_7  and  C_8 
ROOT
HETATM    1  C   UNL     1      -7.274   4.084 -30.785  1.00  0.00     0.063 C 
HETATM    2  C   UNL     1      -6.065   4.160 -29.853  1.00  0.00     0.216 C 
HETATM    3  N   UNL     1      -6.231   5.222 -28.871  1.00  0.00    -0.091 N 
HETATM    4  C   UNL     1      -7.111   6.256 -29.006  1.00  0.00     0.735 A 
HETATM    5  N   UNL     1      -7.942   6.265 -30.068  1.00  0.00    -0.191 N 
HETATM    6  N   UNL     1      -5.509   5.364 -27.750  1.00  0.00     0.012 NA
HETATM    7  N   UNL     1      -5.948   6.502 -27.218  1.00  0.00     0.033 NA
HETATM    8  N   UNL     1      -6.941   7.071 -27.994  1.00  0.00     0.030 NA
HETATM    9  C   UNL     1      -8.121   5.145 -30.885  1.00  0.00     0.037 C 
HETATM   10  C   UNL     1      -9.297   5.222 -31.829  1.00  0.00     0.070 C 
HETATM   11  H   UNL     1      -8.675   6.972 -30.099  1.00  0.00     0.184 HD
ENDROOT
BRANCH   1  12
HETATM   12  C   UNL     1      -7.604   2.761 -31.421  1.00  0.00     0.256 C 
HETATM   13  N   UNL     1      -6.789   2.379 -32.462  1.00  0.00    -0.323 N 
HETATM   14  H   UNL     1      -6.237   3.105 -32.918  1.00  0.00     0.169 HD
HETATM   15  O   UNL     1      -8.554   2.110 -30.997  1.00  0.00    -0.267 OA
BRANCH  13  16
HETATM   16  C   UNL     1      -6.831   1.156 -33.176  1.00  0.00     0.041 A 
HETATM   17  C   UNL     1      -6.397  -0.095 -32.704  1.00  0.00    -0.035 A 
HETATM   18  C   UNL     1      -5.698  -0.322 -31.391  1.00  0.00     0.050 C 
HETATM   19  C   UNL     1      -6.567  -1.227 -33.528  1.00  0.00     0.009 A 
HETATM   20  C   UNL     1      -7.092  -1.119 -34.814  1.00  0.00     0.001 A 
HETATM   21  C   UNL     1      -7.450   0.128 -35.305  1.00  0.00     0.002 A 
HETATM   22  C   UNL     1      -7.312   1.255 -34.495  1.00  0.00     0.030 A 
ENDBRANCH  13  16
ENDBRANCH   1  12
BRANCH   2  23
HETATM   23  C   UNL     1      -4.767   4.361 -30.639  1.00  0.00     0.064 A 
HETATM   24  N   UNL     1      -4.113   3.221 -31.004  1.00  0.00    -0.263 NA
HETATM   25  C   UNL     1      -2.961   3.346 -31.706  1.00  0.00     0.117 A 
HETATM   26  C   UNL     1      -2.441   4.558 -32.119  1.00  0.00     0.019 A 
HETATM   27  C   UNL     1      -3.138   5.711 -31.790  1.00  0.00     0.003 A 
HETATM   28  C   UNL     1      -4.313   5.618 -31.049  1.00  0.00     0.030 A 
ENDBRANCH   2  23
TORSDOF 3
ENDMDL
MODEL 10
REMARK VINA RESULT:      -7.3     15.516     16.971
REMARK  3 active torsions:
REMARK  status: ('A' for Active; 'I' for Inactive)
REMARK    1  A    between atoms: C_3  and  N_4 
REMARK       I    between atoms: N_4  and  C_5 
REMARK    2  A    between atoms: C_5  and  C_6 
REMARK    3  A    between atoms: C_7  and  C_8 
ROOT
HETATM    1  C   UNL     1      -5.733 -13.565 -38.664  1.00  0.00     0.063 C 
HETATM    2  C   UNL     1      -6.402 -13.077 -39.948  1.00  0.00     0.216 C 
HETATM    3  N   UNL     1      -7.814 -12.798 -39.726  1.00  0.00    -0.091 N 
HETATM    4  C   UNL     1      -8.531 -13.284 -38.671  1.00  0.00     0.735 A 
HETATM    5  N   UNL     1      -7.889 -13.999 -37.726  1.00  0.00    -0.191 N 
HETATM    6  N   UNL     1      -8.605 -12.092 -40.546  1.00  0.00     0.012 NA
HETATM    7  N   UNL     1      -9.811 -12.171 -39.988  1.00  0.00     0.033 NA
HETATM    8  N   UNL     1      -9.779 -12.916 -38.823  1.00  0.00     0.030 NA
HETATM    9  C   UNL     1      -6.495 -14.043 -37.642  1.00  0.00     0.037 C 
HETATM   10  C   UNL     1      -5.949 -14.629 -36.361  1.00  0.00     0.070 C 
HETATM   11  H   UNL     1      -8.404 -14.254 -36.884  1.00  0.00     0.184 HD
ENDROOT
BRANCH   1  12
HETATM   12  C   UNL     1      -4.258 -13.322 -38.489  1.00  0.00     0.256 C 
HETATM   13  N   UNL     1      -3.437 -14.377 -38.814  1.00  0.00    -0.323 N 
HETATM   14  H   UNL     1      -3.858 -15.305 -38.854  1.00  0.00     0.169 HD
HETATM   15  O   UNL     1      -3.873 -12.233 -38.077  1.00  0.00    -0.267 OA
BRANCH  13  16
HETATM   16  C   UNL     1      -2.021 -14.388 -38.815  1.00  0.00     0.041 A 
HETATM   17  C   UNL     1      -1.191 -14.468 -37.683  1.00  0.00    -0.035 A 
HETATM   18  C   UNL     1      -1.676 -14.434 -36.259  1.00  0.00     0.050 C 
HETATM   19  C   UNL     1       0.206 -14.528 -37.869  1.00  0.00     0.009 A 
HETATM   20  C   UNL     1       0.776 -14.444 -39.138  1.00  0.00     0.001 A 
HETATM   21  C   UNL     1      -0.042 -14.290 -40.247  1.00  0.00     0.002 A 
HETATM   22  C   UNL     1      -1.427 -14.254 -40.084  1.00  0.00     0.030 A 
ENDBRANCH  13  16
ENDBRANCH   1  12
BRANCH   2  23
HETATM   23  C   UNL     1      -6.233 -14.088 -41.084  1.00  0.00     0.064 A 
HETATM   24  N   UNL     1      -7.067 -15.167 -41.045  1.00  0.00    -0.263 NA
HETATM   25  C   UNL     1      -6.959 -16.089 -42.031  1.00  0.00     0.117 A 
HETATM   26  C   UNL     1      -6.094 -15.972 -43.101  1.00  0.00     0.019 A 
HETATM   27  C   UNL     1      -5.285 -14.847 -43.165  1.00  0.00     0.003 A 
HETATM   28  C   UNL     1      -5.354 -13.891 -42.153  1.00  0.00     0.030 A 
ENDBRANCH   2  23
TORSDOF 3
ENDMDL
