MODEL 1
REMARK VINA RESULT:      -8.7      0.000      0.000
REMARK  5 active torsions:
REMARK  status: ('A' for Active; 'I' for Inactive)
REMARK    1  A    between atoms: C_3  and  N_4 
REMARK       I    between atoms: N_4  and  C_5 
REMARK       I    between atoms: C_5  and  N_6 
REMARK    2  A    between atoms: N_6  and  N_7 
REMARK    3  A    between atoms: N_7  and  C_8 
REMARK    4  A    between atoms: N_7  and  C_14 
REMARK    5  A    between atoms: C_14  and  C_15 
ROOT
HETATM    1  N   UNL     1      -7.016  -0.194 -33.684  1.00  0.00    -0.284 N 
ENDROOT
BRANCH   1   2
HETATM    2  N   UNL     1      -8.322  -0.183 -33.147  1.00  0.00    -0.249 N 
HETATM    3  C   UNL     1      -9.204   0.821 -33.543  1.00  0.00     0.339 C 
HETATM    4  N   UNL     1     -10.493   0.536 -33.119  1.00  0.00    -0.306 N 
HETATM    5  O   UNL     1      -8.870   1.800 -34.199  1.00  0.00    -0.245 OA
HETATM    6  H   UNL     1     -10.681  -0.453 -33.052  1.00  0.00     0.171 HD
HETATM    7  H   UNL     1      -8.659  -1.091 -32.857  1.00  0.00     0.192 HD
BRANCH   4   8
HETATM    8  C   UNL     1     -11.628   1.360 -33.314  1.00  0.00     0.059 A 
HETATM    9  C   UNL     1     -12.939   0.918 -33.545  1.00  0.00    -0.032 A 
HETATM   10  C   UNL     1     -13.341  -0.519 -33.715  1.00  0.00     0.050 C 
HETATM   11  C   UNL     1     -13.955   1.885 -33.660  1.00  0.00     0.028 A 
HETATM   12  C   UNL     1     -13.631   3.230 -33.610  1.00  0.00     0.117 A 
HETATM   13  N   UNL     1     -12.375   3.687 -33.464  1.00  0.00    -0.271 NA
HETATM   14  C   UNL     1     -11.413   2.744 -33.323  1.00  0.00     0.146 A 
ENDBRANCH   4   8
ENDBRANCH   1   2
BRANCH   1  15
HETATM   15  C   UNL     1      -5.982   0.171 -32.808  1.00  0.00     0.051 A 
HETATM   16  C   UNL     1      -5.907  -0.351 -31.503  1.00  0.00     0.031 A 
HETATM   17  C   UNL     1      -4.875  -0.004 -30.623  1.00  0.00     0.002 A 
HETATM   18  C   UNL     1      -3.887   0.887 -31.022  1.00  0.00     0.000 A 
HETATM   19  C   UNL     1      -3.939   1.435 -32.298  1.00  0.00     0.002 A 
HETATM   20  C   UNL     1      -4.974   1.083 -33.173  1.00  0.00     0.031 A 
ENDBRANCH   1  15
BRANCH   1  21
HETATM   21  C   UNL     1      -6.818  -0.988 -34.907  1.00  0.00     0.187 C 
BRANCH  21  22
HETATM   22  C   UNL     1      -6.123  -2.325 -34.696  1.00  0.00    -0.038 A 
HETATM   23  C   UNL     1      -4.766  -2.451 -34.357  1.00  0.00     0.009 A 
HETATM   24  C   UNL     1      -4.175  -3.709 -34.218  1.00  0.00     0.001 A 
HETATM   25  C   UNL     1      -4.925  -4.862 -34.430  1.00  0.00     0.000 A 
HETATM   26  C   UNL     1      -6.269  -4.759 -34.781  1.00  0.00     0.001 A 
HETATM   27  C   UNL     1      -6.862  -3.502 -34.915  1.00  0.00     0.009 A 
ENDBRANCH  21  22
ENDBRANCH   1  21
TORSDOF 5
ENDMDL
MODEL 2
REMARK VINA RESULT:      -8.4      1.475      4.614
REMARK  5 active torsions:
REMARK  status: ('A' for Active; 'I' for Inactive)
REMARK    1  A    between atoms: C_3  and  N_4 
REMARK       I    between atoms: N_4  and  C_5 
REMARK       I    between atoms: C_5  and  N_6 
REMARK    2  A    between atoms: N_6  and  N_7 
REMARK    3  A    between atoms: N_7  and  C_8 
REMARK    4  A    between atoms: N_7  and  C_14 
REMARK    5  A    between atoms: C_14  and  C_15 
ROOT
HETATM    1  N   UNL     1      -5.956  -0.774 -33.980  1.00  0.00    -0.284 N 
ENDROOT
BRANCH   1   2
HETATM    2  N   UNL     1      -7.026  -0.138 -34.649  1.00  0.00    -0.249 N 
HETATM    3  C   UNL     1      -8.124   0.293 -33.906  1.00  0.00     0.339 C 
HETATM    4  N   UNL     1      -8.947   1.103 -34.673  1.00  0.00    -0.306 N 
HETATM    5  O   UNL     1      -8.305   0.004 -32.729  1.00  0.00    -0.245 OA
HETATM    6  H   UNL     1      -8.449   1.617 -35.384  1.00  0.00     0.171 HD
HETATM    7  H   UNL     1      -6.760   0.326 -35.507  1.00  0.00     0.192 HD
BRANCH   4   8
HETATM    8  C   UNL     1     -10.168   1.679 -34.247  1.00  0.00     0.059 A 
HETATM    9  C   UNL     1     -10.407   3.045 -34.036  1.00  0.00    -0.032 A 
HETATM   10  C   UNL     1      -9.367   4.123 -34.141  1.00  0.00     0.050 C 
HETATM   11  C   UNL     1     -11.705   3.442 -33.665  1.00  0.00     0.028 A 
HETATM   12  C   UNL     1     -12.683   2.484 -33.456  1.00  0.00     0.117 A 
HETATM   13  N   UNL     1     -12.466   1.162 -33.579  1.00  0.00    -0.271 NA
HETATM   14  C   UNL     1     -11.220   0.799 -33.966  1.00  0.00     0.146 A 
ENDBRANCH   4   8
ENDBRANCH   1   2
BRANCH   1  15
HETATM   15  C   UNL     1      -5.793  -2.144 -34.233  1.00  0.00     0.051 A 
HETATM   16  C   UNL     1      -4.562  -2.790 -34.013  1.00  0.00     0.031 A 
HETATM   17  C   UNL     1      -4.388  -4.159 -34.251  1.00  0.00     0.002 A 
HETATM   18  C   UNL     1      -5.446  -4.925 -34.726  1.00  0.00     0.000 A 
HETATM   19  C   UNL     1      -6.671  -4.317 -34.970  1.00  0.00     0.002 A 
HETATM   20  C   UNL     1      -6.837  -2.947 -34.730  1.00  0.00     0.031 A 
ENDBRANCH   1  15
BRANCH   1  21
HETATM   21  C   UNL     1      -4.890   0.102 -33.470  1.00  0.00     0.187 C 
BRANCH  21  22
HETATM   22  C   UNL     1      -5.195   0.771 -32.138  1.00  0.00    -0.038 A 
HETATM   23  C   UNL     1      -5.397   0.065 -30.941  1.00  0.00     0.009 A 
HETATM   24  C   UNL     1      -5.717   0.734 -29.758  1.00  0.00     0.001 A 
HETATM   25  C   UNL     1      -5.856   2.119 -29.753  1.00  0.00     0.000 A 
HETATM   26  C   UNL     1      -5.674   2.837 -30.932  1.00  0.00     0.001 A 
HETATM   27  C   UNL     1      -5.349   2.169 -32.114  1.00  0.00     0.009 A 
ENDBRANCH  21  22
ENDBRANCH   1  21
TORSDOF 5
ENDMDL
MODEL 3
REMARK VINA RESULT:      -8.4      1.757      2.490
REMARK  5 active torsions:
REMARK  status: ('A' for Active; 'I' for Inactive)
REMARK    1  A    between atoms: C_3  and  N_4 
REMARK       I    between atoms: N_4  and  C_5 
REMARK       I    between atoms: C_5  and  N_6 
REMARK    2  A    between atoms: N_6  and  N_7 
REMARK    3  A    between atoms: N_7  and  C_8 
REMARK    4  A    between atoms: N_7  and  C_14 
REMARK    5  A    between atoms: C_14  and  C_15 
ROOT
HETATM    1  N   UNL     1      -6.282   1.374 -32.242  1.00  0.00    -0.284 N 
ENDROOT
BRANCH   1   2
HETATM    2  N   UNL     1      -7.548   1.998 -32.191  1.00  0.00    -0.249 N 
HETATM    3  C   UNL     1      -8.332   2.026 -33.345  1.00  0.00     0.339 C 
HETATM    4  N   UNL     1      -9.620   2.446 -33.051  1.00  0.00    -0.306 N 
HETATM    5  O   UNL     1      -7.925   1.696 -34.452  1.00  0.00    -0.245 OA
HETATM    6  H   UNL     1      -9.914   2.206 -32.116  1.00  0.00     0.171 HD
HETATM    7  H   UNL     1      -7.969   2.006 -31.272  1.00  0.00     0.192 HD
BRANCH   4   8
HETATM    8  C   UNL     1     -10.664   2.628 -33.990  1.00  0.00     0.059 A 
HETATM    9  C   UNL     1     -11.727   1.744 -34.225  1.00  0.00    -0.032 A 
HETATM   10  C   UNL     1     -11.883   0.399 -33.572  1.00  0.00     0.050 C 
HETATM   11  C   UNL     1     -12.707   2.117 -35.162  1.00  0.00     0.028 A 
HETATM   12  C   UNL     1     -12.566   3.300 -35.868  1.00  0.00     0.117 A 
HETATM   13  N   UNL     1     -11.521   4.134 -35.720  1.00  0.00    -0.271 NA
HETATM   14  C   UNL     1     -10.603   3.775 -34.791  1.00  0.00     0.146 A 
ENDBRANCH   4   8
ENDBRANCH   1   2
BRANCH   1  15
HETATM   15  C   UNL     1      -5.169   2.230 -32.266  1.00  0.00     0.051 A 
HETATM   16  C   UNL     1      -4.069   2.028 -31.412  1.00  0.00     0.031 A 
HETATM   17  C   UNL     1      -2.949   2.866 -31.432  1.00  0.00     0.002 A 
HETATM   18  C   UNL     1      -2.899   3.944 -32.308  1.00  0.00     0.000 A 
HETATM   19  C   UNL     1      -3.974   4.183 -33.155  1.00  0.00     0.002 A 
HETATM   20  C   UNL     1      -5.092   3.339 -33.128  1.00  0.00     0.031 A 
ENDBRANCH   1  15
BRANCH   1  21
HETATM   21  C   UNL     1      -6.228  -0.035 -31.822  1.00  0.00     0.187 C 
BRANCH  21  22
HETATM   22  C   UNL     1      -5.977  -1.028 -32.946  1.00  0.00    -0.038 A 
HETATM   23  C   UNL     1      -6.987  -1.526 -33.784  1.00  0.00     0.009 A 
HETATM   24  C   UNL     1      -6.699  -2.470 -34.772  1.00  0.00     0.001 A 
HETATM   25  C   UNL     1      -5.400  -2.943 -34.932  1.00  0.00     0.000 A 
HETATM   26  C   UNL     1      -4.386  -2.472 -34.102  1.00  0.00     0.001 A 
HETATM   27  C   UNL     1      -4.672  -1.525 -33.117  1.00  0.00     0.009 A 
ENDBRANCH  21  22
ENDBRANCH   1  21
TORSDOF 5
ENDMDL
MODEL 4
REMARK VINA RESULT:      -8.3      3.067      6.752
REMARK  5 active torsions:
REMARK  status: ('A' for Active; 'I' for Inactive)
REMARK    1  A    between atoms: C_3  and  N_4 
REMARK       I    between atoms: N_4  and  C_5 
REMARK       I    between atoms: C_5  and  N_6 
REMARK    2  A    between atoms: N_6  and  N_7 
REMARK    3  A    between atoms: N_7  and  C_8 
REMARK    4  A    between atoms: N_7  and  C_14 
REMARK    5  A    between atoms: C_14  and  C_15 
ROOT
HETATM    1  N   UNL     1      -7.689   1.305 -32.684  1.00  0.00    -0.284 N 
ENDROOT
BRANCH   1   2
HETATM    2  N   UNL     1      -6.664   2.139 -33.184  1.00  0.00    -0.249 N 
HETATM    3  C   UNL     1      -5.915   2.898 -32.286  1.00  0.00     0.339 C 
HETATM    4  N   UNL     1      -4.812   3.453 -32.915  1.00  0.00    -0.306 N 
HETATM    5  O   UNL     1      -6.196   3.022 -31.100  1.00  0.00    -0.245 OA
HETATM    6  H   UNL     1      -4.467   2.895 -33.682  1.00  0.00     0.171 HD
HETATM    7  H   UNL     1      -6.273   1.832 -34.064  1.00  0.00     0.192 HD
BRANCH   4   8
HETATM    8  C   UNL     1      -3.861   4.311 -32.311  1.00  0.00     0.059 A 
HETATM    9  C   UNL     1      -4.030   5.679 -32.054  1.00  0.00    -0.032 A 
HETATM   10  C   UNL     1      -5.229   6.487 -32.464  1.00  0.00     0.050 C 
HETATM   11  C   UNL     1      -2.994   6.364 -31.392  1.00  0.00     0.028 A 
HETATM   12  C   UNL     1      -1.823   5.696 -31.076  1.00  0.00     0.117 A 
HETATM   13  N   UNL     1      -1.601   4.404 -31.375  1.00  0.00    -0.271 NA
HETATM   14  C   UNL     1      -2.620   3.752 -31.984  1.00  0.00     0.146 A 
ENDBRANCH   4   8
ENDBRANCH   1   2
BRANCH   1  15
HETATM   15  C   UNL     1      -8.967   1.497 -33.229  1.00  0.00     0.051 A 
HETATM   16  C   UNL     1     -10.006   0.573 -33.008  1.00  0.00     0.031 A 
HETATM   17  C   UNL     1     -11.290   0.758 -33.536  1.00  0.00     0.002 A 
HETATM   18  C   UNL     1     -11.570   1.875 -34.313  1.00  0.00     0.000 A 
HETATM   19  C   UNL     1     -10.564   2.799 -34.566  1.00  0.00     0.002 A 
HETATM   20  C   UNL     1      -9.283   2.607 -34.034  1.00  0.00     0.031 A 
ENDBRANCH   1  15
BRANCH   1  21
HETATM   21  C   UNL     1      -7.256   0.068 -32.013  1.00  0.00     0.187 C 
BRANCH  21  22
HETATM   22  C   UNL     1      -6.452  -0.884 -32.886  1.00  0.00    -0.038 A 
HETATM   23  C   UNL     1      -5.064  -1.060 -32.769  1.00  0.00     0.009 A 
HETATM   24  C   UNL     1      -4.374  -1.917 -33.629  1.00  0.00     0.001 A 
HETATM   25  C   UNL     1      -5.057  -2.603 -34.630  1.00  0.00     0.000 A 
HETATM   26  C   UNL     1      -6.431  -2.431 -34.772  1.00  0.00     0.001 A 
HETATM   27  C   UNL     1      -7.122  -1.578 -33.909  1.00  0.00     0.009 A 
ENDBRANCH  21  22
ENDBRANCH   1  21
TORSDOF 5
ENDMDL
MODEL 5
REMARK VINA RESULT:      -8.3      1.780      2.687
REMARK  5 active torsions:
REMARK  status: ('A' for Active; 'I' for Inactive)
REMARK    1  A    between atoms: C_3  and  N_4 
REMARK       I    between atoms: N_4  and  C_5 
REMARK       I    between atoms: C_5  and  N_6 
REMARK    2  A    between atoms: N_6  and  N_7 
REMARK    3  A    between atoms: N_7  and  C_8 
REMARK    4  A    between atoms: N_7  and  C_14 
REMARK    5  A    between atoms: C_14  and  C_15 
ROOT
HETATM    1  N   UNL     1      -6.351   1.383 -32.469  1.00  0.00    -0.284 N 
ENDROOT
BRANCH   1   2
HETATM    2  N   UNL     1      -7.667   1.870 -32.304  1.00  0.00    -0.249 N 
HETATM    3  C   UNL     1      -8.576   1.722 -33.351  1.00  0.00     0.339 C 
HETATM    4  N   UNL     1      -9.862   2.024 -32.929  1.00  0.00    -0.306 N 
HETATM    5  O   UNL     1      -8.265   1.350 -34.475  1.00  0.00    -0.245 OA
HETATM    6  H   UNL     1     -10.016   1.829 -31.950  1.00  0.00     0.171 HD
HETATM    7  H   UNL     1      -7.977   1.907 -31.342  1.00  0.00     0.192 HD
BRANCH   4   8
HETATM    8  C   UNL     1     -11.021   2.018 -33.742  1.00  0.00     0.059 A 
HETATM    9  C   UNL     1     -11.379   3.000 -34.676  1.00  0.00    -0.032 A 
HETATM   10  C   UNL     1     -10.626   4.280 -34.905  1.00  0.00     0.050 C 
HETATM   11  C   UNL     1     -12.545   2.799 -35.438  1.00  0.00     0.028 A 
HETATM   12  C   UNL     1     -13.334   1.685 -35.203  1.00  0.00     0.117 A 
HETATM   13  N   UNL     1     -13.058   0.763 -34.264  1.00  0.00    -0.271 NA
HETATM   14  C   UNL     1     -11.916   0.956 -33.561  1.00  0.00     0.146 A 
ENDBRANCH   4   8
ENDBRANCH   1   2
BRANCH   1  15
HETATM   15  C   UNL     1      -5.362   2.344 -32.730  1.00  0.00     0.051 A 
HETATM   16  C   UNL     1      -4.055   2.207 -32.227  1.00  0.00     0.031 A 
HETATM   17  C   UNL     1      -3.056   3.152 -32.488  1.00  0.00     0.002 A 
HETATM   18  C   UNL     1      -3.340   4.274 -33.258  1.00  0.00     0.000 A 
HETATM   19  C   UNL     1      -4.624   4.450 -33.757  1.00  0.00     0.002 A 
HETATM   20  C   UNL     1      -5.618   3.500 -33.491  1.00  0.00     0.031 A 
ENDBRANCH   1  15
BRANCH   1  21
HETATM   21  C   UNL     1      -6.075   0.044 -31.926  1.00  0.00     0.187 C 
BRANCH  21  22
HETATM   22  C   UNL     1      -5.811  -1.028 -32.973  1.00  0.00    -0.038 A 
HETATM   23  C   UNL     1      -4.529  -1.505 -33.290  1.00  0.00     0.009 A 
HETATM   24  C   UNL     1      -4.347  -2.460 -34.293  1.00  0.00     0.001 A 
HETATM   25  C   UNL     1      -5.440  -2.945 -35.005  1.00  0.00     0.000 A 
HETATM   26  C   UNL     1      -6.718  -2.474 -34.715  1.00  0.00     0.001 A 
HETATM   27  C   UNL     1      -6.902  -1.523 -33.710  1.00  0.00     0.009 A 
ENDBRANCH  21  22
ENDBRANCH   1  21
TORSDOF 5
ENDMDL
MODEL 6
REMARK VINA RESULT:      -8.3      3.778      7.585
REMARK  5 active torsions:
REMARK  status: ('A' for Active; 'I' for Inactive)
REMARK    1  A    between atoms: C_3  and  N_4 
REMARK       I    between atoms: N_4  and  C_5 
REMARK       I    between atoms: C_5  and  N_6 
REMARK    2  A    between atoms: N_6  and  N_7 
REMARK    3  A    between atoms: N_7  and  C_8 
REMARK    4  A    between atoms: N_7  and  C_14 
REMARK    5  A    between atoms: C_14  and  C_15 
ROOT
HETATM    1  N   UNL     1      -5.362   1.147 -32.586  1.00  0.00    -0.284 N 
ENDROOT
BRANCH   1   2
HETATM    2  N   UNL     1      -4.165   1.875 -32.403  1.00  0.00    -0.249 N 
HETATM    3  C   UNL     1      -4.141   3.227 -32.739  1.00  0.00     0.339 C 
HETATM    4  N   UNL     1      -2.985   3.829 -32.268  1.00  0.00    -0.306 N 
HETATM    5  O   UNL     1      -5.042   3.793 -33.347  1.00  0.00    -0.245 OA
HETATM    6  H   UNL     1      -2.627   3.401 -31.427  1.00  0.00     0.171 HD
HETATM    7  H   UNL     1      -3.561   1.504 -31.681  1.00  0.00     0.192 HD
BRANCH   4   8
HETATM    8  C   UNL     1      -2.618   5.183 -32.465  1.00  0.00     0.059 A 
HETATM    9  C   UNL     1      -2.133   5.740 -33.657  1.00  0.00    -0.032 A 
HETATM   10  C   UNL     1      -1.833   4.963 -34.907  1.00  0.00     0.050 C 
HETATM   11  C   UNL     1      -1.871   7.123 -33.685  1.00  0.00     0.028 A 
HETATM   12  C   UNL     1      -2.033   7.875 -32.534  1.00  0.00     0.117 A 
HETATM   13  N   UNL     1      -2.427   7.357 -31.357  1.00  0.00    -0.271 NA
HETATM   14  C   UNL     1      -2.704   6.031 -31.355  1.00  0.00     0.146 A 
ENDBRANCH   4   8
ENDBRANCH   1   2
BRANCH   1  15
HETATM   15  C   UNL     1      -5.235  -0.115 -33.187  1.00  0.00     0.051 A 
HETATM   16  C   UNL     1      -4.268  -1.041 -32.752  1.00  0.00     0.031 A 
HETATM   17  C   UNL     1      -4.137  -2.307 -33.335  1.00  0.00     0.002 A 
HETATM   18  C   UNL     1      -4.970  -2.683 -34.382  1.00  0.00     0.000 A 
HETATM   19  C   UNL     1      -5.925  -1.788 -34.847  1.00  0.00     0.002 A 
HETATM   20  C   UNL     1      -6.049  -0.523 -34.259  1.00  0.00     0.031 A 
ENDBRANCH   1  15
BRANCH   1  21
HETATM   21  C   UNL     1      -6.509   1.554 -31.758  1.00  0.00     0.187 C 
BRANCH  21  22
HETATM   22  C   UNL     1      -7.864   1.423 -32.436  1.00  0.00    -0.038 A 
HETATM   23  C   UNL     1      -8.801   0.427 -32.114  1.00  0.00     0.009 A 
HETATM   24  C   UNL     1     -10.012   0.333 -32.804  1.00  0.00     0.001 A 
HETATM   25  C   UNL     1     -10.302   1.221 -33.835  1.00  0.00     0.000 A 
HETATM   26  C   UNL     1      -9.381   2.207 -34.179  1.00  0.00     0.001 A 
HETATM   27  C   UNL     1      -8.171   2.305 -33.487  1.00  0.00     0.009 A 
ENDBRANCH  21  22
ENDBRANCH   1  21
TORSDOF 5
ENDMDL
MODEL 7
REMARK VINA RESULT:      -8.2      1.909      4.603
REMARK  5 active torsions:
REMARK  status: ('A' for Active; 'I' for Inactive)
REMARK    1  A    between atoms: C_3  and  N_4 
REMARK       I    between atoms: N_4  and  C_5 
REMARK       I    between atoms: C_5  and  N_6 
REMARK    2  A    between atoms: N_6  and  N_7 
REMARK    3  A    between atoms: N_7  and  C_8 
REMARK    4  A    between atoms: N_7  and  C_14 
REMARK    5  A    between atoms: C_14  and  C_15 
ROOT
HETATM    1  N   UNL     1      -7.199   0.917 -34.191  1.00  0.00    -0.284 N 
ENDROOT
BRANCH   1   2
HETATM    2  N   UNL     1      -8.496   1.004 -34.744  1.00  0.00    -0.249 N 
HETATM    3  C   UNL     1      -9.592   1.072 -33.884  1.00  0.00     0.339 C 
HETATM    4  N   UNL     1     -10.743   1.401 -34.583  1.00  0.00    -0.306 N 
HETATM    5  O   UNL     1      -9.520   0.889 -32.676  1.00  0.00    -0.245 OA
HETATM    6  H   UNL     1     -10.566   1.972 -35.396  1.00  0.00     0.171 HD
HETATM    7  H   UNL     1      -8.527   1.421 -35.665  1.00  0.00     0.192 HD
BRANCH   4   8
HETATM    8  C   UNL     1     -12.041   1.515 -34.029  1.00  0.00     0.059 A 
HETATM    9  C   UNL     1     -12.589   2.663 -33.439  1.00  0.00    -0.032 A 
HETATM   10  C   UNL     1     -11.845   3.949 -33.213  1.00  0.00     0.050 C 
HETATM   11  C   UNL     1     -13.921   2.608 -32.990  1.00  0.00     0.028 A 
HETATM   12  C   UNL     1     -14.627   1.420 -33.081  1.00  0.00     0.117 A 
HETATM   13  N   UNL     1     -14.107   0.282 -33.575  1.00  0.00    -0.271 NA
HETATM   14  C   UNL     1     -12.834   0.361 -34.030  1.00  0.00     0.146 A 
ENDBRANCH   4   8
ENDBRANCH   1   2
BRANCH   1  15
HETATM   15  C   UNL     1      -6.588  -0.345 -34.240  1.00  0.00     0.051 A 
HETATM   16  C   UNL     1      -7.286  -1.482 -34.689  1.00  0.00     0.031 A 
HETATM   17  C   UNL     1      -6.686  -2.745 -34.754  1.00  0.00     0.002 A 
HETATM   18  C   UNL     1      -5.364  -2.910 -34.360  1.00  0.00     0.000 A 
HETATM   19  C   UNL     1      -4.649  -1.813 -33.896  1.00  0.00     0.002 A 
HETATM   20  C   UNL     1      -5.257  -0.553 -33.834  1.00  0.00     0.031 A 
ENDBRANCH   1  15
BRANCH   1  21
HETATM   21  C   UNL     1      -6.464   2.183 -34.042  1.00  0.00     0.187 C 
BRANCH  21  22
HETATM   22  C   UNL     1      -6.217   2.612 -32.604  1.00  0.00    -0.038 A 
HETATM   23  C   UNL     1      -7.219   3.121 -31.761  1.00  0.00     0.009 A 
HETATM   24  C   UNL     1      -6.920   3.538 -30.462  1.00  0.00     0.001 A 
HETATM   25  C   UNL     1      -5.613   3.469 -29.988  1.00  0.00     0.000 A 
HETATM   26  C   UNL     1      -4.603   2.981 -30.812  1.00  0.00     0.001 A 
HETATM   27  C   UNL     1      -4.901   2.559 -32.109  1.00  0.00     0.009 A 
ENDBRANCH  21  22
ENDBRANCH   1  21
TORSDOF 5
ENDMDL
MODEL 8
REMARK VINA RESULT:      -8.2      3.068      7.148
REMARK  5 active torsions:
REMARK  status: ('A' for Active; 'I' for Inactive)
REMARK    1  A    between atoms: C_3  and  N_4 
REMARK       I    between atoms: N_4  and  C_5 
REMARK       I    between atoms: C_5  and  N_6 
REMARK    2  A    between atoms: N_6  and  N_7 
REMARK    3  A    between atoms: N_7  and  C_8 
REMARK    4  A    between atoms: N_7  and  C_14 
REMARK    5  A    between atoms: C_14  and  C_15 
ROOT
HETATM    1  N   UNL     1      -6.298   0.142 -32.372  1.00  0.00    -0.284 N 
ENDROOT
BRANCH   1   2
HETATM    2  N   UNL     1      -5.200   0.829 -31.807  1.00  0.00    -0.249 N 
HETATM    3  C   UNL     1      -4.905   2.114 -32.260  1.00  0.00     0.339 C 
HETATM    4  N   UNL     1      -3.970   2.721 -31.435  1.00  0.00    -0.306 N 
HETATM    5  O   UNL     1      -5.430   2.628 -33.239  1.00  0.00    -0.245 OA
HETATM    6  H   UNL     1      -4.018   2.404 -30.477  1.00  0.00     0.171 HD
HETATM    7  H   UNL     1      -4.970   0.540 -30.866  1.00  0.00     0.192 HD
BRANCH   4   8
HETATM    8  C   UNL     1      -3.416   4.010 -31.623  1.00  0.00     0.059 A 
HETATM    9  C   UNL     1      -3.896   5.205 -31.067  1.00  0.00    -0.032 A 
HETATM   10  C   UNL     1      -5.147   5.324 -30.243  1.00  0.00     0.050 C 
HETATM   11  C   UNL     1      -3.181   6.390 -31.319  1.00  0.00     0.028 A 
HETATM   12  C   UNL     1      -2.075   6.360 -32.152  1.00  0.00     0.117 A 
HETATM   13  N   UNL     1      -1.633   5.244 -32.759  1.00  0.00    -0.271 NA
HETATM   14  C   UNL     1      -2.314   4.107 -32.481  1.00  0.00     0.146 A 
ENDBRANCH   4   8
ENDBRANCH   1   2
BRANCH   1  15
HETATM   15  C   UNL     1      -5.989  -0.952 -33.193  1.00  0.00     0.051 A 
HETATM   16  C   UNL     1      -6.993  -1.661 -33.880  1.00  0.00     0.031 A 
HETATM   17  C   UNL     1      -6.698  -2.748 -34.712  1.00  0.00     0.002 A 
HETATM   18  C   UNL     1      -5.383  -3.165 -34.875  1.00  0.00     0.000 A 
HETATM   19  C   UNL     1      -4.368  -2.500 -34.199  1.00  0.00     0.002 A 
HETATM   20  C   UNL     1      -4.671  -1.413 -33.369  1.00  0.00     0.031 A 
ENDBRANCH   1  15
BRANCH   1  21
HETATM   21  C   UNL     1      -7.600   0.338 -31.715  1.00  0.00     0.187 C 
BRANCH  21  22
HETATM   22  C   UNL     1      -8.718   0.801 -32.638  1.00  0.00    -0.038 A 
HETATM   23  C   UNL     1      -8.629   1.937 -33.458  1.00  0.00     0.009 A 
HETATM   24  C   UNL     1      -9.707   2.335 -34.252  1.00  0.00     0.001 A 
HETATM   25  C   UNL     1     -10.896   1.613 -34.231  1.00  0.00     0.000 A 
HETATM   26  C   UNL     1     -11.010   0.491 -33.415  1.00  0.00     0.001 A 
HETATM   27  C   UNL     1      -9.931   0.089 -32.624  1.00  0.00     0.009 A 
ENDBRANCH  21  22
ENDBRANCH   1  21
TORSDOF 5
ENDMDL
MODEL 9
REMARK VINA RESULT:      -8.2      2.752      6.736
REMARK  5 active torsions:
REMARK  status: ('A' for Active; 'I' for Inactive)
REMARK    1  A    between atoms: C_3  and  N_4 
REMARK       I    between atoms: N_4  and  C_5 
REMARK       I    between atoms: C_5  and  N_6 
REMARK    2  A    between atoms: N_6  and  N_7 
REMARK    3  A    between atoms: N_7  and  C_8 
REMARK    4  A    between atoms: N_7  and  C_14 
REMARK    5  A    between atoms: C_14  and  C_15 
ROOT
HETATM    1  N   UNL     1      -8.558   1.536 -32.687  1.00  0.00    -0.284 N 
ENDROOT
BRANCH   1   2
HETATM    2  N   UNL     1      -7.617   2.243 -33.469  1.00  0.00    -0.249 N 
HETATM    3  C   UNL     1      -6.608   2.958 -32.825  1.00  0.00     0.339 C 
HETATM    4  N   UNL     1      -5.647   3.374 -33.733  1.00  0.00    -0.306 N 
HETATM    5  O   UNL     1      -6.579   3.157 -31.617  1.00  0.00    -0.245 OA
HETATM    6  H   UNL     1      -5.550   2.754 -34.524  1.00  0.00     0.171 HD
HETATM    7  H   UNL     1      -7.480   1.863 -34.396  1.00  0.00     0.192 HD
BRANCH   4   8
HETATM    8  C   UNL     1      -4.506   4.156 -33.429  1.00  0.00     0.059 A 
HETATM    9  C   UNL     1      -3.371   3.723 -32.729  1.00  0.00    -0.032 A 
HETATM   10  C   UNL     1      -3.218   2.367 -32.100  1.00  0.00     0.050 C 
HETATM   11  C   UNL     1      -2.305   4.626 -32.568  1.00  0.00     0.028 A 
HETATM   12  C   UNL     1      -2.427   5.923 -33.039  1.00  0.00     0.117 A 
HETATM   13  N   UNL     1      -3.530   6.390 -33.650  1.00  0.00    -0.271 NA
HETATM   14  C   UNL     1      -4.535   5.499 -33.825  1.00  0.00     0.146 A 
ENDBRANCH   4   8
ENDBRANCH   1   2
BRANCH   1  15
HETATM   15  C   UNL     1      -9.910   1.790 -32.963  1.00  0.00     0.051 A 
HETATM   16  C   UNL     1     -10.753   0.791 -33.486  1.00  0.00     0.031 A 
HETATM   17  C   UNL     1     -12.106   1.027 -33.755  1.00  0.00     0.002 A 
HETATM   18  C   UNL     1     -12.657   2.280 -33.516  1.00  0.00     0.000 A 
HETATM   19  C   UNL     1     -11.851   3.294 -33.016  1.00  0.00     0.002 A 
HETATM   20  C   UNL     1     -10.498   3.050 -32.749  1.00  0.00     0.031 A 
ENDBRANCH   1  15
BRANCH   1  21
HETATM   21  C   UNL     1      -8.068   0.324 -32.011  1.00  0.00     0.187 C 
BRANCH  21  22
HETATM   22  C   UNL     1      -7.069  -0.495 -32.814  1.00  0.00    -0.038 A 
HETATM   23  C   UNL     1      -7.408  -1.222 -33.967  1.00  0.00     0.009 A 
HETATM   24  C   UNL     1      -6.454  -1.990 -34.637  1.00  0.00     0.001 A 
HETATM   25  C   UNL     1      -5.148  -2.059 -34.159  1.00  0.00     0.000 A 
HETATM   26  C   UNL     1      -4.795  -1.357 -33.009  1.00  0.00     0.001 A 
HETATM   27  C   UNL     1      -5.747  -0.585 -32.342  1.00  0.00     0.009 A 
ENDBRANCH  21  22
ENDBRANCH   1  21
TORSDOF 5
ENDMDL
MODEL 10
REMARK VINA RESULT:      -8.0     13.996     15.824
REMARK  5 active torsions:
REMARK  status: ('A' for Active; 'I' for Inactive)
REMARK    1  A    between atoms: C_3  and  N_4 
REMARK       I    between atoms: N_4  and  C_5 
REMARK       I    between atoms: C_5  and  N_6 
REMARK    2  A    between atoms: N_6  and  N_7 
REMARK    3  A    between atoms: N_7  and  C_8 
REMARK    4  A    between atoms: N_7  and  C_14 
REMARK    5  A    between atoms: C_14  and  C_15 
ROOT
HETATM    1  N   UNL     1      -7.179 -12.648 -39.369  1.00  0.00    -0.284 N 
ENDROOT
BRANCH   1   2
HETATM    2  N   UNL     1      -7.011 -12.450 -37.980  1.00  0.00    -0.249 N 
HETATM    3  C   UNL     1      -6.698 -13.546 -37.177  1.00  0.00     0.339 C 
HETATM    4  N   UNL     1      -6.329 -13.132 -35.906  1.00  0.00    -0.306 N 
HETATM    5  O   UNL     1      -6.725 -14.706 -37.568  1.00  0.00    -0.245 OA
HETATM    6  H   UNL     1      -5.897 -12.219 -35.893  1.00  0.00     0.171 HD
HETATM    7  H   UNL     1      -6.720 -11.515 -37.727  1.00  0.00     0.192 HD
BRANCH   4   8
HETATM    8  C   UNL     1      -5.987 -13.982 -34.827  1.00  0.00     0.059 A 
HETATM    9  C   UNL     1      -4.757 -14.631 -34.644  1.00  0.00    -0.032 A 
HETATM   10  C   UNL     1      -3.618 -14.599 -35.624  1.00  0.00     0.050 C 
HETATM   11  C   UNL     1      -4.576 -15.396 -33.478  1.00  0.00     0.028 A 
HETATM   12  C   UNL     1      -5.624 -15.544 -32.585  1.00  0.00     0.117 A 
HETATM   13  N   UNL     1      -6.839 -14.996 -32.767  1.00  0.00    -0.271 NA
HETATM   14  C   UNL     1      -6.986 -14.237 -33.879  1.00  0.00     0.146 A 
ENDBRANCH   4   8
ENDBRANCH   1   2
BRANCH   1  15
HETATM   15  C   UNL     1      -8.478 -12.962 -39.798  1.00  0.00     0.051 A 
HETATM   16  C   UNL     1      -8.819 -14.263 -40.211  1.00  0.00     0.031 A 
HETATM   17  C   UNL     1     -10.113 -14.594 -40.631  1.00  0.00     0.002 A 
HETATM   18  C   UNL     1     -11.107 -13.624 -40.658  1.00  0.00     0.000 A 
HETATM   19  C   UNL     1     -10.802 -12.325 -40.273  1.00  0.00     0.002 A 
HETATM   20  C   UNL     1      -9.505 -12.002 -39.854  1.00  0.00     0.031 A 
ENDBRANCH   1  15
BRANCH   1  21
HETATM   21  C   UNL     1      -6.137 -12.084 -40.241  1.00  0.00     0.187 C 
BRANCH  21  22
HETATM   22  C   UNL     1      -5.030 -13.054 -40.623  1.00  0.00    -0.038 A 
HETATM   23  C   UNL     1      -3.967 -13.395 -39.771  1.00  0.00     0.009 A 
HETATM   24  C   UNL     1      -2.956 -14.261 -40.196  1.00  0.00     0.001 A 
HETATM   25  C   UNL     1      -2.982 -14.789 -41.483  1.00  0.00     0.000 A 
HETATM   26  C   UNL     1      -4.020 -14.453 -42.348  1.00  0.00     0.001 A 
HETATM   27  C   UNL     1      -5.033 -13.591 -41.923  1.00  0.00     0.009 A 
ENDBRANCH  21  22
ENDBRANCH   1  21
TORSDOF 5
ENDMDL
