MODEL 1
REMARK VINA RESULT:      -8.8      0.000      0.000
REMARK  5 active torsions:
REMARK  status: ('A' for Active; 'I' for Inactive)
REMARK    1  A    between atoms: C_4  and  C_5 
REMARK    2  A    between atoms: C_5  and  C_6 
REMARK    3  A    between atoms: C_6  and  C_7 
REMARK       I    between atoms: C_7  and  N_8 
REMARK    4  A    between atoms: N_8  and  C_9 
REMARK    5  A    between atoms: C_11  and  C_12 
ROOT
HETATM    1  C   UNL     1      -5.491   2.364 -31.834  1.00  0.00     0.222 C 
HETATM    2  N   UNL     1      -5.166   1.743 -33.022  1.00  0.00    -0.327 N 
HETATM    3  O   UNL     1      -6.534   2.192 -31.204  1.00  0.00    -0.273 OA
HETATM    4  H   UNL     1      -4.305   2.019 -33.476  1.00  0.00     0.169 HD
ENDROOT
BRANCH   2   5
HETATM    5  C   UNL     1      -5.874   0.719 -33.688  1.00  0.00     0.035 A 
HETATM    6  C   UNL     1      -5.463  -0.615 -33.743  1.00  0.00     0.042 A 
HETATM    7  C   UNL     1      -6.196  -1.572 -34.467  1.00  0.00    -0.021 A 
HETATM    8  C   UNL     1      -7.366  -1.172 -35.125  1.00  0.00     0.012 A 
HETATM    9  C   UNL     1      -7.789   0.155 -35.070  1.00  0.00     0.003 A 
HETATM   10  C   UNL     1      -7.045   1.096 -34.358  1.00  0.00     0.029 A 
BRANCH   7  11
HETATM   11  C   UNL     1      -5.753  -2.956 -34.547  1.00  0.00     0.010 A 
HETATM   12  C   UNL     1      -6.394  -4.108 -35.063  1.00  0.00     0.152 A 
HETATM   13  N   UNL     1      -5.640  -5.207 -34.976  1.00  0.00    -0.187 NA
HETATM   14  N   UNL     1      -4.511  -4.765 -34.397  1.00  0.00    -0.289 N 
HETATM   15  H   UNL     1      -3.767  -5.431 -34.220  1.00  0.00     0.188 HD
HETATM   16  C   UNL     1      -4.527  -3.428 -34.128  1.00  0.00     0.123 A 
ENDBRANCH   7  11
ENDBRANCH   2   5
BRANCH   1  17
HETATM   17  C   UNL     1      -4.422   3.273 -31.229  1.00  0.00     0.108 C 
BRANCH  17  18
HETATM   18  C   UNL     1      -2.971   3.102 -31.677  1.00  0.00     0.048 C 
BRANCH  18  19
HETATM   19  C   UNL     1      -2.231   4.317 -32.202  1.00  0.00    -0.057 A 
HETATM   20  C   UNL     1      -1.294   5.047 -31.455  1.00  0.00     0.013 A 
HETATM   21  C   UNL     1      -0.608   6.135 -32.014  1.00  0.00    -0.061 A 
HETATM   22  C   UNL     1       0.435   6.873 -31.226  1.00  0.00     0.048 C 
HETATM   23  C   UNL     1      -0.884   6.514 -33.330  1.00  0.00     0.007 A 
HETATM   24  C   UNL     1      -1.831   5.818 -34.077  1.00  0.00     0.001 A 
HETATM   25  C   UNL     1      -2.496   4.726 -33.518  1.00  0.00     0.007 A 
ENDBRANCH  18  19
ENDBRANCH  17  18
ENDBRANCH   1  17
TORSDOF 5
ENDMDL
MODEL 2
REMARK VINA RESULT:      -8.8      4.910      7.864
REMARK  5 active torsions:
REMARK  status: ('A' for Active; 'I' for Inactive)
REMARK    1  A    between atoms: C_4  and  C_5 
REMARK    2  A    between atoms: C_5  and  C_6 
REMARK    3  A    between atoms: C_6  and  C_7 
REMARK       I    between atoms: C_7  and  N_8 
REMARK    4  A    between atoms: N_8  and  C_9 
REMARK    5  A    between atoms: C_11  and  C_12 
ROOT
HETATM    1  C   UNL     1      -7.299   0.880 -32.382  1.00  0.00     0.222 C 
HETATM    2  N   UNL     1      -7.845   1.308 -33.575  1.00  0.00    -0.327 N 
HETATM    3  O   UNL     1      -7.808   1.034 -31.272  1.00  0.00    -0.273 OA
HETATM    4  H   UNL     1      -7.296   1.178 -34.415  1.00  0.00     0.169 HD
ENDROOT
BRANCH   2   5
HETATM    5  C   UNL     1      -9.115   1.883 -33.791  1.00  0.00     0.035 A 
HETATM    6  C   UNL     1     -10.318   1.172 -33.757  1.00  0.00     0.042 A 
HETATM    7  C   UNL     1     -11.544   1.805 -34.029  1.00  0.00    -0.021 A 
HETATM    8  C   UNL     1     -11.548   3.174 -34.322  1.00  0.00     0.012 A 
HETATM    9  C   UNL     1     -10.354   3.895 -34.351  1.00  0.00     0.003 A 
HETATM   10  C   UNL     1      -9.145   3.251 -34.091  1.00  0.00     0.029 A 
BRANCH   7  11
HETATM   11  C   UNL     1     -12.793   1.059 -34.020  1.00  0.00     0.010 A 
HETATM   12  C   UNL     1     -14.098   1.427 -34.428  1.00  0.00     0.152 A 
HETATM   13  N   UNL     1     -14.987   0.440 -34.283  1.00  0.00    -0.187 NA
HETATM   14  N   UNL     1     -14.257  -0.565 -33.776  1.00  0.00    -0.289 N 
HETATM   15  H   UNL     1     -14.720  -1.444 -33.573  1.00  0.00     0.188 HD
HETATM   16  C   UNL     1     -12.940  -0.249 -33.607  1.00  0.00     0.123 A 
ENDBRANCH   7  11
ENDBRANCH   2   5
BRANCH   1  17
HETATM   17  C   UNL     1      -5.999   0.082 -32.478  1.00  0.00     0.108 C 
BRANCH  17  18
HETATM   18  C   UNL     1      -5.520  -0.381 -33.853  1.00  0.00     0.048 C 
BRANCH  18  19
HETATM   19  C   UNL     1      -5.518  -1.868 -34.152  1.00  0.00    -0.057 A 
HETATM   20  C   UNL     1      -4.413  -2.708 -33.945  1.00  0.00     0.013 A 
HETATM   21  C   UNL     1      -4.490  -4.085 -34.198  1.00  0.00    -0.061 A 
HETATM   22  C   UNL     1      -3.321  -4.985 -33.918  1.00  0.00     0.048 C 
HETATM   23  C   UNL     1      -5.682  -4.625 -34.690  1.00  0.00     0.007 A 
HETATM   24  C   UNL     1      -6.780  -3.801 -34.927  1.00  0.00     0.001 A 
HETATM   25  C   UNL     1      -6.699  -2.435 -34.656  1.00  0.00     0.007 A 
ENDBRANCH  18  19
ENDBRANCH  17  18
ENDBRANCH   1  17
TORSDOF 5
ENDMDL
MODEL 3
REMARK VINA RESULT:      -8.6      4.472      8.076
REMARK  5 active torsions:
REMARK  status: ('A' for Active; 'I' for Inactive)
REMARK    1  A    between atoms: C_4  and  C_5 
REMARK    2  A    between atoms: C_5  and  C_6 
REMARK    3  A    between atoms: C_6  and  C_7 
REMARK       I    between atoms: C_7  and  N_8 
REMARK    4  A    between atoms: N_8  and  C_9 
REMARK    5  A    between atoms: C_11  and  C_12 
ROOT
HETATM    1  C   UNL     1      -9.739   1.026 -34.174  1.00  0.00     0.222 C 
HETATM    2  N   UNL     1      -8.527   0.970 -34.830  1.00  0.00    -0.327 N 
HETATM    3  O   UNL     1     -10.034   0.378 -33.171  1.00  0.00    -0.273 OA
HETATM    4  H   UNL     1      -8.430   1.505 -35.684  1.00  0.00     0.169 HD
ENDROOT
BRANCH   2   5
HETATM    5  C   UNL     1      -7.360   0.279 -34.439  1.00  0.00     0.035 A 
HETATM    6  C   UNL     1      -7.109  -1.066 -34.722  1.00  0.00     0.042 A 
HETATM    7  C   UNL     1      -5.944  -1.702 -34.259  1.00  0.00    -0.021 A 
HETATM    8  C   UNL     1      -5.018  -0.958 -33.515  1.00  0.00     0.012 A 
HETATM    9  C   UNL     1      -5.255   0.386 -33.234  1.00  0.00     0.003 A 
HETATM   10  C   UNL     1      -6.421   0.999 -33.690  1.00  0.00     0.029 A 
BRANCH   7  11
HETATM   11  C   UNL     1      -5.695  -3.110 -34.531  1.00  0.00     0.010 A 
HETATM   12  C   UNL     1      -6.502  -4.092 -35.154  1.00  0.00     0.152 A 
HETATM   13  N   UNL     1      -5.902  -5.282 -35.240  1.00  0.00    -0.187 NA
HETATM   14  N   UNL     1      -4.706  -5.069 -34.667  1.00  0.00    -0.289 N 
HETATM   15  H   UNL     1      -4.054  -5.844 -34.610  1.00  0.00     0.188 HD
HETATM   16  C   UNL     1      -4.531  -3.787 -34.235  1.00  0.00     0.123 A 
ENDBRANCH   7  11
ENDBRANCH   2   5
BRANCH   1  17
HETATM   17  C   UNL     1     -10.752   2.040 -34.705  1.00  0.00     0.108 C 
BRANCH  17  18
HETATM   18  C   UNL     1     -12.192   1.587 -34.939  1.00  0.00     0.048 C 
BRANCH  18  19
HETATM   19  C   UNL     1     -13.233   1.924 -33.889  1.00  0.00    -0.057 A 
HETATM   20  C   UNL     1     -13.040   2.867 -32.868  1.00  0.00     0.013 A 
HETATM   21  C   UNL     1     -14.061   3.169 -31.955  1.00  0.00    -0.061 A 
HETATM   22  C   UNL     1     -13.865   4.221 -30.902  1.00  0.00     0.048 C 
HETATM   23  C   UNL     1     -15.283   2.496 -32.049  1.00  0.00     0.007 A 
HETATM   24  C   UNL     1     -15.482   1.538 -33.038  1.00  0.00     0.001 A 
HETATM   25  C   UNL     1     -14.467   1.257 -33.953  1.00  0.00     0.007 A 
ENDBRANCH  18  19
ENDBRANCH  17  18
ENDBRANCH   1  17
TORSDOF 5
ENDMDL
MODEL 4
REMARK VINA RESULT:      -8.4      5.403      9.156
REMARK  5 active torsions:
REMARK  status: ('A' for Active; 'I' for Inactive)
REMARK    1  A    between atoms: C_4  and  C_5 
REMARK    2  A    between atoms: C_5  and  C_6 
REMARK    3  A    between atoms: C_6  and  C_7 
REMARK       I    between atoms: C_7  and  N_8 
REMARK    4  A    between atoms: N_8  and  C_9 
REMARK    5  A    between atoms: C_11  and  C_12 
ROOT
HETATM    1  C   UNL     1      -9.273   0.803 -34.139  1.00  0.00     0.222 C 
HETATM    2  N   UNL     1     -10.185   1.714 -34.629  1.00  0.00    -0.327 N 
HETATM    3  O   UNL     1      -9.428   0.113 -33.132  1.00  0.00    -0.273 OA
HETATM    4  H   UNL     1      -9.911   2.269 -35.430  1.00  0.00     0.169 HD
ENDROOT
BRANCH   2   5
HETATM    5  C   UNL     1     -11.499   1.957 -34.173  1.00  0.00     0.035 A 
HETATM    6  C   UNL     1     -11.826   2.859 -33.157  1.00  0.00     0.042 A 
HETATM    7  C   UNL     1     -13.154   3.014 -32.723  1.00  0.00    -0.021 A 
HETATM    8  C   UNL     1     -14.159   2.257 -33.337  1.00  0.00     0.012 A 
HETATM    9  C   UNL     1     -13.845   1.359 -34.357  1.00  0.00     0.003 A 
HETATM   10  C   UNL     1     -12.521   1.208 -34.769  1.00  0.00     0.029 A 
BRANCH   7  11
HETATM   11  C   UNL     1     -13.491   3.934 -31.646  1.00  0.00     0.010 A 
HETATM   12  C   UNL     1     -14.551   4.863 -31.516  1.00  0.00     0.152 A 
HETATM   13  N   UNL     1     -14.532   5.515 -30.351  1.00  0.00    -0.187 NA
HETATM   14  N   UNL     1     -13.455   5.010 -29.728  1.00  0.00    -0.289 N 
HETATM   15  H   UNL     1     -13.224   5.358 -28.804  1.00  0.00     0.188 HD
HETATM   16  C   UNL     1     -12.804   4.058 -30.457  1.00  0.00     0.123 A 
ENDBRANCH   7  11
ENDBRANCH   2   5
BRANCH   1  17
HETATM   17  C   UNL     1      -8.010   0.591 -34.974  1.00  0.00     0.108 C 
BRANCH  17  18
HETATM   18  C   UNL     1      -6.673   0.419 -34.255  1.00  0.00     0.048 C 
BRANCH  18  19
HETATM   19  C   UNL     1      -6.034  -0.957 -34.241  1.00  0.00    -0.057 A 
HETATM   20  C   UNL     1      -6.639  -2.107 -34.770  1.00  0.00     0.013 A 
HETATM   21  C   UNL     1      -5.976  -3.343 -34.768  1.00  0.00    -0.061 A 
HETATM   22  C   UNL     1      -6.608  -4.555 -35.388  1.00  0.00     0.048 C 
HETATM   23  C   UNL     1      -4.700  -3.433 -34.205  1.00  0.00     0.007 A 
HETATM   24  C   UNL     1      -4.096  -2.308 -33.651  1.00  0.00     0.001 A 
HETATM   25  C   UNL     1      -4.756  -1.079 -33.672  1.00  0.00     0.007 A 
ENDBRANCH  18  19
ENDBRANCH  17  18
ENDBRANCH   1  17
TORSDOF 5
ENDMDL
MODEL 5
REMARK VINA RESULT:      -8.2      2.922      9.129
REMARK  5 active torsions:
REMARK  status: ('A' for Active; 'I' for Inactive)
REMARK    1  A    between atoms: C_4  and  C_5 
REMARK    2  A    between atoms: C_5  and  C_6 
REMARK    3  A    between atoms: C_6  and  C_7 
REMARK       I    between atoms: C_7  and  N_8 
REMARK    4  A    between atoms: N_8  and  C_9 
REMARK    5  A    between atoms: C_11  and  C_12 
ROOT
HETATM    1  C   UNL     1      -4.713   2.818 -32.565  1.00  0.00     0.222 C 
HETATM    2  N   UNL     1      -3.334   2.853 -32.539  1.00  0.00    -0.327 N 
HETATM    3  O   UNL     1      -5.450   3.801 -32.509  1.00  0.00    -0.273 OA
HETATM    4  H   UNL     1      -2.842   1.969 -32.526  1.00  0.00     0.169 HD
ENDROOT
BRANCH   2   5
HETATM    5  C   UNL     1      -2.495   3.988 -32.567  1.00  0.00     0.035 A 
HETATM    6  C   UNL     1      -1.962   4.602 -31.430  1.00  0.00     0.042 A 
HETATM    7  C   UNL     1      -1.171   5.760 -31.533  1.00  0.00    -0.021 A 
HETATM    8  C   UNL     1      -0.906   6.287 -32.803  1.00  0.00     0.012 A 
HETATM    9  C   UNL     1      -1.427   5.678 -33.944  1.00  0.00     0.003 A 
HETATM   10  C   UNL     1      -2.220   4.538 -33.826  1.00  0.00     0.029 A 
BRANCH   7  11
HETATM   11  C   UNL     1      -0.638   6.414 -30.348  1.00  0.00     0.010 A 
HETATM   12  C   UNL     1       0.348   5.999 -29.421  1.00  0.00     0.152 A 
HETATM   13  N   UNL     1       0.580   6.904 -28.467  1.00  0.00    -0.187 NA
HETATM   14  N   UNL     1      -0.261   7.904 -28.774  1.00  0.00    -0.289 N 
HETATM   15  H   UNL     1      -0.271   8.726 -28.180  1.00  0.00     0.188 HD
HETATM   16  C   UNL     1      -1.005   7.663 -29.892  1.00  0.00     0.123 A 
ENDBRANCH   7  11
ENDBRANCH   2   5
BRANCH   1  17
HETATM   17  C   UNL     1      -5.353   1.444 -32.761  1.00  0.00     0.108 C 
BRANCH  17  18
HETATM   18  C   UNL     1      -4.503   0.196 -32.526  1.00  0.00     0.048 C 
BRANCH  18  19
HETATM   19  C   UNL     1      -4.834  -1.060 -33.310  1.00  0.00    -0.057 A 
HETATM   20  C   UNL     1      -4.044  -2.220 -33.301  1.00  0.00     0.013 A 
HETATM   21  C   UNL     1      -4.430  -3.366 -34.011  1.00  0.00    -0.061 A 
HETATM   22  C   UNL     1      -3.609  -4.621 -33.949  1.00  0.00     0.048 C 
HETATM   23  C   UNL     1      -5.609  -3.341 -34.762  1.00  0.00     0.007 A 
HETATM   24  C   UNL     1      -6.389  -2.189 -34.804  1.00  0.00     0.001 A 
HETATM   25  C   UNL     1      -6.007  -1.059 -34.081  1.00  0.00     0.007 A 
ENDBRANCH  18  19
ENDBRANCH  17  18
ENDBRANCH   1  17
TORSDOF 5
ENDMDL
MODEL 6
REMARK VINA RESULT:      -7.9     15.581     16.727
REMARK  5 active torsions:
REMARK  status: ('A' for Active; 'I' for Inactive)
REMARK    1  A    between atoms: C_4  and  C_5 
REMARK    2  A    between atoms: C_5  and  C_6 
REMARK    3  A    between atoms: C_6  and  C_7 
REMARK       I    between atoms: C_7  and  N_8 
REMARK    4  A    between atoms: N_8  and  C_9 
REMARK    5  A    between atoms: C_11  and  C_12 
ROOT
HETATM    1  C   UNL     1      -4.746 -14.463 -36.746  1.00  0.00     0.222 C 
HETATM    2  N   UNL     1      -5.109 -13.189 -37.129  1.00  0.00    -0.327 N 
HETATM    3  O   UNL     1      -5.045 -15.497 -37.342  1.00  0.00    -0.273 OA
HETATM    4  H   UNL     1      -4.856 -12.424 -36.517  1.00  0.00     0.169 HD
ENDROOT
BRANCH   2   5
HETATM    5  C   UNL     1      -5.772 -12.795 -38.312  1.00  0.00     0.035 A 
HETATM    6  C   UNL     1      -7.142 -12.953 -38.537  1.00  0.00     0.042 A 
HETATM    7  C   UNL     1      -7.725 -12.579 -39.761  1.00  0.00    -0.021 A 
HETATM    8  C   UNL     1      -6.911 -12.025 -40.757  1.00  0.00     0.012 A 
HETATM    9  C   UNL     1      -5.544 -11.855 -40.539  1.00  0.00     0.003 A 
HETATM   10  C   UNL     1      -4.978 -12.242 -39.325  1.00  0.00     0.029 A 
BRANCH   7  11
HETATM   11  C   UNL     1      -9.147 -12.769 -40.005  1.00  0.00     0.010 A 
HETATM   12  C   UNL     1      -9.959 -13.925 -39.917  1.00  0.00     0.152 A 
HETATM   13  N   UNL     1     -11.242 -13.684 -40.201  1.00  0.00    -0.187 NA
HETATM   14  N   UNL     1     -11.258 -12.370 -40.478  1.00  0.00    -0.289 N 
HETATM   15  H   UNL     1     -12.142 -11.941 -40.730  1.00  0.00     0.188 HD
HETATM   16  C   UNL     1     -10.034 -11.777 -40.368  1.00  0.00     0.123 A 
ENDBRANCH   7  11
ENDBRANCH   2   5
BRANCH   1  17
HETATM   17  C   UNL     1      -3.832 -14.570 -35.526  1.00  0.00     0.108 C 
BRANCH  17  18
HETATM   18  C   UNL     1      -2.324 -14.690 -35.744  1.00  0.00     0.048 C 
BRANCH  18  19
HETATM   19  C   UNL     1      -1.774 -14.423 -37.132  1.00  0.00    -0.057 A 
HETATM   20  C   UNL     1      -1.411 -15.431 -38.038  1.00  0.00     0.013 A 
HETATM   21  C   UNL     1      -0.951 -15.118 -39.326  1.00  0.00    -0.061 A 
HETATM   22  C   UNL     1      -0.620 -16.204 -40.309  1.00  0.00     0.048 C 
HETATM   23  C   UNL     1      -0.829 -13.777 -39.702  1.00  0.00     0.007 A 
HETATM   24  C   UNL     1      -1.159 -12.765 -38.805  1.00  0.00     0.001 A 
HETATM   25  C   UNL     1      -1.631 -13.085 -37.532  1.00  0.00     0.007 A 
ENDBRANCH  18  19
ENDBRANCH  17  18
ENDBRANCH   1  17
TORSDOF 5
ENDMDL
MODEL 7
REMARK VINA RESULT:      -7.9      2.673      8.240
REMARK  5 active torsions:
REMARK  status: ('A' for Active; 'I' for Inactive)
REMARK    1  A    between atoms: C_4  and  C_5 
REMARK    2  A    between atoms: C_5  and  C_6 
REMARK    3  A    between atoms: C_6  and  C_7 
REMARK       I    between atoms: C_7  and  N_8 
REMARK    4  A    between atoms: N_8  and  C_9 
REMARK    5  A    between atoms: C_11  and  C_12 
ROOT
HETATM    1  C   UNL     1      -6.958   1.901 -34.090  1.00  0.00     0.222 C 
HETATM    2  N   UNL     1      -5.778   1.995 -33.382  1.00  0.00    -0.327 N 
HETATM    3  O   UNL     1      -7.853   2.745 -34.095  1.00  0.00    -0.273 OA
HETATM    4  H   UNL     1      -5.149   1.203 -33.409  1.00  0.00     0.169 HD
ENDROOT
BRANCH   2   5
HETATM    5  C   UNL     1      -5.301   3.093 -32.634  1.00  0.00     0.035 A 
HETATM    6  C   UNL     1      -4.492   4.108 -33.154  1.00  0.00     0.042 A 
HETATM    7  C   UNL     1      -4.015   5.147 -32.336  1.00  0.00    -0.021 A 
HETATM    8  C   UNL     1      -4.375   5.163 -30.982  1.00  0.00     0.012 A 
HETATM    9  C   UNL     1      -5.188   4.160 -30.456  1.00  0.00     0.003 A 
HETATM   10  C   UNL     1      -5.644   3.129 -31.277  1.00  0.00     0.029 A 
BRANCH   7  11
HETATM   11  C   UNL     1      -3.151   6.189 -32.871  1.00  0.00     0.010 A 
HETATM   12  C   UNL     1      -2.649   7.374 -32.281  1.00  0.00     0.152 A 
HETATM   13  N   UNL     1      -1.856   8.069 -33.100  1.00  0.00    -0.187 NA
HETATM   14  N   UNL     1      -1.849   7.335 -34.224  1.00  0.00    -0.289 N 
HETATM   15  H   UNL     1      -1.305   7.665 -35.014  1.00  0.00     0.188 HD
HETATM   16  C   UNL     1      -2.601   6.200 -34.136  1.00  0.00     0.123 A 
ENDBRANCH   7  11
ENDBRANCH   2   5
BRANCH   1  17
HETATM   17  C   UNL     1      -7.109   0.681 -34.998  1.00  0.00     0.108 C 
BRANCH  17  18
HETATM   18  C   UNL     1      -7.369  -0.683 -34.359  1.00  0.00     0.048 C 
BRANCH  18  19
HETATM   19  C   UNL     1      -6.189  -1.608 -34.131  1.00  0.00    -0.057 A 
HETATM   20  C   UNL     1      -5.158  -1.351 -33.214  1.00  0.00     0.013 A 
HETATM   21  C   UNL     1      -4.117  -2.271 -33.015  1.00  0.00    -0.061 A 
HETATM   22  C   UNL     1      -3.050  -2.014 -31.991  1.00  0.00     0.048 C 
HETATM   23  C   UNL     1      -4.096  -3.451 -33.763  1.00  0.00     0.007 A 
HETATM   24  C   UNL     1      -5.096  -3.709 -34.696  1.00  0.00     0.001 A 
HETATM   25  C   UNL     1      -6.136  -2.797 -34.875  1.00  0.00     0.007 A 
ENDBRANCH  18  19
ENDBRANCH  17  18
ENDBRANCH   1  17
TORSDOF 5
ENDMDL
MODEL 8
REMARK VINA RESULT:      -7.8      2.733      8.300
REMARK  5 active torsions:
REMARK  status: ('A' for Active; 'I' for Inactive)
REMARK    1  A    between atoms: C_4  and  C_5 
REMARK    2  A    between atoms: C_5  and  C_6 
REMARK    3  A    between atoms: C_6  and  C_7 
REMARK       I    between atoms: C_7  and  N_8 
REMARK    4  A    between atoms: N_8  and  C_9 
REMARK    5  A    between atoms: C_11  and  C_12 
ROOT
HETATM    1  C   UNL     1      -3.972   0.620 -31.352  1.00  0.00     0.222 C 
HETATM    2  N   UNL     1      -3.528   1.443 -32.365  1.00  0.00    -0.327 N 
HETATM    3  O   UNL     1      -4.797   0.931 -30.494  1.00  0.00    -0.273 OA
HETATM    4  H   UNL     1      -2.797   1.091 -32.970  1.00  0.00     0.169 HD
ENDROOT
BRANCH   2   5
HETATM    5  C   UNL     1      -3.995   2.732 -32.703  1.00  0.00     0.035 A 
HETATM    6  C   UNL     1      -3.209   3.888 -32.673  1.00  0.00     0.042 A 
HETATM    7  C   UNL     1      -3.756   5.146 -32.978  1.00  0.00    -0.021 A 
HETATM    8  C   UNL     1      -5.109   5.228 -33.332  1.00  0.00     0.012 A 
HETATM    9  C   UNL     1      -5.900   4.081 -33.372  1.00  0.00     0.003 A 
HETATM   10  C   UNL     1      -5.346   2.841 -33.055  1.00  0.00     0.029 A 
BRANCH   7  11
HETATM   11  C   UNL     1      -2.944   6.353 -32.921  1.00  0.00     0.010 A 
HETATM   12  C   UNL     1      -2.188   7.012 -33.920  1.00  0.00     0.152 A 
HETATM   13  N   UNL     1      -1.592   8.122 -33.475  1.00  0.00    -0.187 NA
HETATM   14  N   UNL     1      -1.961   8.178 -32.185  1.00  0.00    -0.289 N 
HETATM   15  H   UNL     1      -1.625   8.950 -31.620  1.00  0.00     0.188 HD
HETATM   16  C   UNL     1      -2.774   7.149 -31.808  1.00  0.00     0.123 A 
ENDBRANCH   7  11
ENDBRANCH   2   5
BRANCH   1  17
HETATM   17  C   UNL     1      -3.446  -0.815 -31.364  1.00  0.00     0.108 C 
BRANCH  17  18
HETATM   18  C   UNL     1      -3.234  -1.510 -32.708  1.00  0.00     0.048 C 
BRANCH  18  19
HETATM   19  C   UNL     1      -4.455  -1.880 -33.528  1.00  0.00    -0.057 A 
HETATM   20  C   UNL     1      -5.463  -0.972 -33.888  1.00  0.00     0.013 A 
HETATM   21  C   UNL     1      -6.545  -1.367 -34.688  1.00  0.00    -0.061 A 
HETATM   22  C   UNL     1      -7.587  -0.375 -35.116  1.00  0.00     0.048 C 
HETATM   23  C   UNL     1      -6.633  -2.696 -35.111  1.00  0.00     0.007 A 
HETATM   24  C   UNL     1      -5.657  -3.617 -34.740  1.00  0.00     0.001 A 
HETATM   25  C   UNL     1      -4.575  -3.211 -33.958  1.00  0.00     0.007 A 
ENDBRANCH  18  19
ENDBRANCH  17  18
ENDBRANCH   1  17
TORSDOF 5
ENDMDL
MODEL 9
REMARK VINA RESULT:      -7.8      2.604      4.056
REMARK  5 active torsions:
REMARK  status: ('A' for Active; 'I' for Inactive)
REMARK    1  A    between atoms: C_4  and  C_5 
REMARK    2  A    between atoms: C_5  and  C_6 
REMARK    3  A    between atoms: C_6  and  C_7 
REMARK       I    between atoms: C_7  and  N_8 
REMARK    4  A    between atoms: N_8  and  C_9 
REMARK    5  A    between atoms: C_11  and  C_12 
ROOT
HETATM    1  C   UNL     1      -2.520   5.239 -33.157  1.00  0.00     0.222 C 
HETATM    2  N   UNL     1      -3.545   4.682 -32.421  1.00  0.00    -0.327 N 
HETATM    3  O   UNL     1      -1.944   4.695 -34.098  1.00  0.00    -0.273 OA
HETATM    4  H   UNL     1      -3.892   5.206 -31.628  1.00  0.00     0.169 HD
ENDROOT
BRANCH   2   5
HETATM    5  C   UNL     1      -4.217   3.463 -32.654  1.00  0.00     0.035 A 
HETATM    6  C   UNL     1      -3.697   2.204 -32.342  1.00  0.00     0.042 A 
HETATM    7  C   UNL     1      -4.405   1.029 -32.648  1.00  0.00    -0.021 A 
HETATM    8  C   UNL     1      -5.661   1.135 -33.260  1.00  0.00     0.012 A 
HETATM    9  C   UNL     1      -6.192   2.387 -33.569  1.00  0.00     0.003 A 
HETATM   10  C   UNL     1      -5.472   3.543 -33.271  1.00  0.00     0.029 A 
BRANCH   7  11
HETATM   11  C   UNL     1      -3.852  -0.283 -32.347  1.00  0.00     0.010 A 
HETATM   12  C   UNL     1      -4.225  -1.574 -32.793  1.00  0.00     0.152 A 
HETATM   13  N   UNL     1      -3.445  -2.540 -32.303  1.00  0.00    -0.187 NA
HETATM   14  N   UNL     1      -2.568  -1.874 -31.535  1.00  0.00    -0.289 N 
HETATM   15  H   UNL     1      -1.857  -2.404 -31.043  1.00  0.00     0.188 HD
HETATM   16  C   UNL     1      -2.764  -0.524 -31.534  1.00  0.00     0.123 A 
ENDBRANCH   7  11
ENDBRANCH   2   5
BRANCH   1  17
HETATM   17  C   UNL     1      -2.141   6.679 -32.811  1.00  0.00     0.108 C 
BRANCH  17  18
HETATM   18  C   UNL     1      -0.680   6.999 -32.497  1.00  0.00     0.048 C 
BRANCH  18  19
HETATM   19  C   UNL     1      -0.134   6.615 -31.136  1.00  0.00    -0.057 A 
HETATM   20  C   UNL     1       0.042   7.520 -30.078  1.00  0.00     0.013 A 
HETATM   21  C   UNL     1       0.507   7.093 -28.826  1.00  0.00    -0.061 A 
HETATM   22  C   UNL     1       0.637   8.058 -27.683  1.00  0.00     0.048 C 
HETATM   23  C   UNL     1       0.826   5.745 -28.639  1.00  0.00     0.007 A 
HETATM   24  C   UNL     1       0.684   4.838 -29.686  1.00  0.00     0.001 A 
HETATM   25  C   UNL     1       0.204   5.269 -30.923  1.00  0.00     0.007 A 
ENDBRANCH  18  19
ENDBRANCH  17  18
ENDBRANCH   1  17
TORSDOF 5
ENDMDL
MODEL 10
REMARK VINA RESULT:      -7.7      3.577      8.820
REMARK  5 active torsions:
REMARK  status: ('A' for Active; 'I' for Inactive)
REMARK    1  A    between atoms: C_4  and  C_5 
REMARK    2  A    between atoms: C_5  and  C_6 
REMARK    3  A    between atoms: C_6  and  C_7 
REMARK       I    between atoms: C_7  and  N_8 
REMARK    4  A    between atoms: N_8  and  C_9 
REMARK    5  A    between atoms: C_11  and  C_12 
ROOT
HETATM    1  C   UNL     1      -4.885   4.814 -34.258  1.00  0.00     0.222 C 
HETATM    2  N   UNL     1      -4.334   5.080 -33.022  1.00  0.00    -0.327 N 
HETATM    3  O   UNL     1      -4.404   5.154 -35.338  1.00  0.00    -0.273 OA
HETATM    4  H   UNL     1      -4.861   4.803 -32.203  1.00  0.00     0.169 HD
ENDROOT
BRANCH   2   5
HETATM    5  C   UNL     1      -3.083   5.669 -32.739  1.00  0.00     0.035 A 
HETATM    6  C   UNL     1      -2.347   5.434 -31.574  1.00  0.00     0.042 A 
HETATM    7  C   UNL     1      -1.129   6.094 -31.338  1.00  0.00    -0.021 A 
HETATM    8  C   UNL     1      -0.646   6.987 -32.302  1.00  0.00     0.012 A 
HETATM    9  C   UNL     1      -1.368   7.223 -33.472  1.00  0.00     0.003 A 
HETATM   10  C   UNL     1      -2.581   6.570 -33.686  1.00  0.00     0.029 A 
BRANCH   7  11
HETATM   11  C   UNL     1      -0.376   5.869 -30.113  1.00  0.00     0.010 A 
HETATM   12  C   UNL     1      -0.447   6.504 -28.849  1.00  0.00     0.152 A 
HETATM   13  N   UNL     1       0.406   5.990 -27.959  1.00  0.00    -0.187 NA
HETATM   14  N   UNL     1       1.032   5.023 -28.650  1.00  0.00    -0.289 N 
HETATM   15  H   UNL     1       1.744   4.477 -28.178  1.00  0.00     0.188 HD
HETATM   16  C   UNL     1       0.596   4.907 -29.937  1.00  0.00     0.123 A 
ENDBRANCH   7  11
ENDBRANCH   2   5
BRANCH   1  17
HETATM   17  C   UNL     1      -6.151   3.958 -34.266  1.00  0.00     0.108 C 
BRANCH  17  18
HETATM   18  C   UNL     1      -6.263   2.799 -33.276  1.00  0.00     0.048 C 
BRANCH  18  19
HETATM   19  C   UNL     1      -6.370   1.390 -33.825  1.00  0.00    -0.057 A 
HETATM   20  C   UNL     1      -5.473   0.357 -33.512  1.00  0.00     0.013 A 
HETATM   21  C   UNL     1      -5.653  -0.940 -34.016  1.00  0.00    -0.061 A 
HETATM   22  C   UNL     1      -4.722  -2.052 -33.629  1.00  0.00     0.048 C 
HETATM   23  C   UNL     1      -6.732  -1.198 -34.867  1.00  0.00     0.007 A 
HETATM   24  C   UNL     1      -7.616  -0.179 -35.209  1.00  0.00     0.001 A 
HETATM   25  C   UNL     1      -7.438   1.104 -34.689  1.00  0.00     0.007 A 
ENDBRANCH  18  19
ENDBRANCH  17  18
ENDBRANCH   1  17
TORSDOF 5
ENDMDL
