MODEL 1
REMARK VINA RESULT:      -8.2      0.000      0.000
REMARK  7 active torsions:
REMARK  status: ('A' for Active; 'I' for Inactive)
REMARK    1  A    between atoms: C_2  and  O_3 
REMARK    2  A    between atoms: O_3  and  C_4 
REMARK    3  A    between atoms: C_4  and  C_5 
REMARK    4  A    between atoms: C_6  and  C_7 
REMARK    5  A    between atoms: C_18  and  C_19 
REMARK    6  A    between atoms: C_19  and  N_20 
REMARK    7  A    between atoms: N_20  and  C_21 
ROOT
HETATM    1  C   UNL     1      -6.725   2.627 -31.715  1.00  0.00     0.068 A 
HETATM    2  C   UNL     1      -6.018   3.174 -30.509  1.00  0.00     0.161 A 
HETATM    3  N   UNL     1      -5.755   2.137 -29.530  1.00  0.00    -0.330 N 
HETATM    4  C   UNL     1      -5.966   0.813 -29.714  1.00  0.00     0.321 A 
HETATM    5  O   UNL     1      -5.652  -0.014 -28.865  1.00  0.00    -0.247 OA
HETATM    6  N   UNL     1      -6.551   0.446 -30.887  1.00  0.00    -0.311 N 
HETATM    7  C   UNL     1      -6.951   1.311 -31.886  1.00  0.00     0.041 A 
HETATM    8  H   UNL     1      -5.299   2.385 -28.662  1.00  0.00     0.165 HD
HETATM    9  H   UNL     1      -6.705  -0.551 -30.983  1.00  0.00     0.170 HD
ENDROOT
BRANCH   7  10
HETATM   10  C   UNL     1      -7.622   0.674 -33.085  1.00  0.00     0.150 C 
BRANCH  10  11
HETATM   11  N   UNL     1      -6.591   0.419 -34.086  1.00  0.00    -0.287 NA
HETATM   12  H   UNL     1      -6.917   0.620 -35.028  1.00  0.00     0.128 HD
BRANCH  11  13
HETATM   13  C   UNL     1      -5.899  -0.799 -34.023  1.00  0.00     0.010 A 
HETATM   14  C   UNL     1      -6.461  -1.932 -34.625  1.00  0.00     0.047 A 
HETATM   15  C   UNL     1      -5.789  -3.162 -34.636  1.00  0.00     0.041 A 
HETATM   16 CL   UNL     1      -6.579  -4.506 -35.383  1.00  0.00    -0.084 Cl
HETATM   17  C   UNL     1      -4.517  -3.287 -34.067  1.00  0.00    -0.040 A 
HETATM   18  C   UNL     1      -3.757  -4.582 -34.070  1.00  0.00     0.050 C 
HETATM   19  C   UNL     1      -3.924  -2.143 -33.521  1.00  0.00     0.010 A 
HETATM   20  C   UNL     1      -4.603  -0.918 -33.511  1.00  0.00     0.024 A 
ENDBRANCH  11  13
ENDBRANCH  10  11
ENDBRANCH   7  10
BRANCH   1  21
HETATM   21  C   UNL     1      -7.165   3.615 -32.725  1.00  0.00     0.293 C 
HETATM   22  O   UNL     1      -8.191   4.270 -32.650  1.00  0.00    -0.259 OA
BRANCH  21  23
HETATM   23  O   UNL     1      -6.261   3.655 -33.736  1.00  0.00    -0.318 OA
BRANCH  23  24
HETATM   24  C   UNL     1      -5.852   4.968 -34.147  1.00  0.00     0.174 C 
HETATM   25  C   UNL     1      -4.437   4.942 -34.694  1.00  0.00     0.034 C 
ENDBRANCH  23  24
ENDBRANCH  21  23
ENDBRANCH   1  21
BRANCH   2  26
HETATM   26  C   UNL     1      -4.717   3.882 -30.869  1.00  0.00    -0.031 A 
HETATM   27  C   UNL     1      -4.587   5.266 -30.669  1.00  0.00     0.011 A 
HETATM   28  C   UNL     1      -3.415   5.932 -31.039  1.00  0.00     0.024 A 
HETATM   29  C   UNL     1      -2.363   5.219 -31.611  1.00  0.00     0.034 A 
HETATM   30 CL   UNL     1      -0.925   6.042 -32.072  1.00  0.00    -0.084 Cl
HETATM   31  C   UNL     1      -2.471   3.845 -31.813  1.00  0.00     0.024 A 
HETATM   32  C   UNL     1      -3.642   3.179 -31.445  1.00  0.00     0.011 A 
ENDBRANCH   2  26
TORSDOF 7
ENDMDL
MODEL 2
REMARK VINA RESULT:      -8.0      1.116      1.364
REMARK  7 active torsions:
REMARK  status: ('A' for Active; 'I' for Inactive)
REMARK    1  A    between atoms: C_2  and  O_3 
REMARK    2  A    between atoms: O_3  and  C_4 
REMARK    3  A    between atoms: C_4  and  C_5 
REMARK    4  A    between atoms: C_6  and  C_7 
REMARK    5  A    between atoms: C_18  and  C_19 
REMARK    6  A    between atoms: C_19  and  N_20 
REMARK    7  A    between atoms: N_20  and  C_21 
ROOT
HETATM    1  C   UNL     1      -5.734   3.548 -32.699  1.00  0.00     0.068 A 
HETATM    2  C   UNL     1      -5.453   4.241 -31.397  1.00  0.00     0.161 A 
HETATM    3  N   UNL     1      -5.645   3.351 -30.268  1.00  0.00    -0.330 N 
HETATM    4  C   UNL     1      -5.894   2.023 -30.349  1.00  0.00     0.321 A 
HETATM    5  O   UNL     1      -5.975   1.320 -29.347  1.00  0.00    -0.247 OA
HETATM    6  N   UNL     1      -6.057   1.509 -31.598  1.00  0.00    -0.311 N 
HETATM    7  C   UNL     1      -6.001   2.230 -32.774  1.00  0.00     0.041 A 
HETATM    8  H   UNL     1      -5.506   3.708 -29.332  1.00  0.00     0.165 HD
HETATM    9  H   UNL     1      -6.255   0.515 -31.619  1.00  0.00     0.170 HD
ENDROOT
BRANCH   7  10
HETATM   10  C   UNL     1      -6.258   1.448 -34.046  1.00  0.00     0.150 C 
BRANCH  10  11
HETATM   11  N   UNL     1      -6.894   0.190 -33.670  1.00  0.00    -0.287 NA
HETATM   12  H   UNL     1      -7.375   0.258 -32.777  1.00  0.00     0.128 HD
BRANCH  11  13
HETATM   13  C   UNL     1      -6.136  -0.986 -33.766  1.00  0.00     0.010 A 
HETATM   14  C   UNL     1      -6.661  -2.078 -34.467  1.00  0.00     0.047 A 
HETATM   15  C   UNL     1      -5.925  -3.259 -34.637  1.00  0.00     0.041 A 
HETATM   16 CL   UNL     1      -6.673  -4.559 -35.498  1.00  0.00    -0.084 Cl
HETATM   17  C   UNL     1      -4.625  -3.371 -34.131  1.00  0.00    -0.040 A 
HETATM   18  C   UNL     1      -3.799  -4.613 -34.303  1.00  0.00     0.050 C 
HETATM   19  C   UNL     1      -4.072  -2.260 -33.485  1.00  0.00     0.010 A 
HETATM   20  C   UNL     1      -4.814  -1.084 -33.317  1.00  0.00     0.024 A 
ENDBRANCH  11  13
ENDBRANCH  10  11
ENDBRANCH   7  10
BRANCH   1  21
HETATM   21  C   UNL     1      -5.701   4.391 -33.915  1.00  0.00     0.293 C 
HETATM   22  O   UNL     1      -6.600   5.138 -34.262  1.00  0.00    -0.259 OA
BRANCH  21  23
HETATM   23  O   UNL     1      -4.531   4.183 -34.571  1.00  0.00    -0.318 OA
BRANCH  23  24
HETATM   24  C   UNL     1      -3.825   5.368 -34.965  1.00  0.00     0.174 C 
HETATM   25  C   UNL     1      -2.326   5.135 -34.933  1.00  0.00     0.034 C 
ENDBRANCH  23  24
ENDBRANCH  21  23
ENDBRANCH   1  21
BRANCH   2  26
HETATM   26  C   UNL     1      -4.052   4.838 -31.347  1.00  0.00    -0.031 A 
HETATM   27  C   UNL     1      -3.880   6.228 -31.231  1.00  0.00     0.011 A 
HETATM   28  C   UNL     1      -2.601   6.789 -31.231  1.00  0.00     0.024 A 
HETATM   29  C   UNL     1      -1.482   5.966 -31.345  1.00  0.00     0.034 A 
HETATM   30 CL   UNL     1       0.092   6.660 -31.353  1.00  0.00    -0.084 Cl
HETATM   31  C   UNL     1      -1.631   4.586 -31.457  1.00  0.00     0.024 A 
HETATM   32  C   UNL     1      -2.910   4.024 -31.458  1.00  0.00     0.011 A 
ENDBRANCH   2  26
TORSDOF 7
ENDMDL
MODEL 3
REMARK VINA RESULT:      -7.9      1.515      1.913
REMARK  7 active torsions:
REMARK  status: ('A' for Active; 'I' for Inactive)
REMARK    1  A    between atoms: C_2  and  O_3 
REMARK    2  A    between atoms: O_3  and  C_4 
REMARK    3  A    between atoms: C_4  and  C_5 
REMARK    4  A    between atoms: C_6  and  C_7 
REMARK    5  A    between atoms: C_18  and  C_19 
REMARK    6  A    between atoms: C_19  and  N_20 
REMARK    7  A    between atoms: N_20  and  C_21 
ROOT
HETATM    1  C   UNL     1      -5.725   3.572 -32.670  1.00  0.00     0.068 A 
HETATM    2  C   UNL     1      -5.441   4.281 -31.378  1.00  0.00     0.161 A 
HETATM    3  N   UNL     1      -5.636   3.407 -30.237  1.00  0.00    -0.330 N 
HETATM    4  C   UNL     1      -5.892   2.079 -30.300  1.00  0.00     0.321 A 
HETATM    5  O   UNL     1      -5.975   1.390 -29.289  1.00  0.00    -0.247 OA
HETATM    6  N   UNL     1      -6.058   1.549 -31.542  1.00  0.00    -0.311 N 
HETATM    7  C   UNL     1      -5.998   2.254 -32.728  1.00  0.00     0.041 A 
HETATM    8  H   UNL     1      -5.495   3.775 -29.306  1.00  0.00     0.165 HD
HETATM    9  H   UNL     1      -6.260   0.556 -31.549  1.00  0.00     0.170 HD
ENDROOT
BRANCH   7  10
HETATM   10  C   UNL     1      -6.260   1.457 -33.988  1.00  0.00     0.150 C 
BRANCH  10  11
HETATM   11  N   UNL     1      -6.810   0.165 -33.589  1.00  0.00    -0.287 NA
HETATM   12  H   UNL     1      -7.207   0.194 -32.653  1.00  0.00     0.128 HD
BRANCH  11  13
HETATM   13  C   UNL     1      -6.020  -0.976 -33.786  1.00  0.00     0.010 A 
HETATM   14  C   UNL     1      -4.972  -1.238 -32.895  1.00  0.00     0.047 A 
HETATM   15  C   UNL     1      -4.183  -2.391 -33.015  1.00  0.00     0.041 A 
HETATM   16 CL   UNL     1      -2.897  -2.610 -31.880  1.00  0.00    -0.084 Cl
HETATM   17  C   UNL     1      -4.441  -3.333 -34.017  1.00  0.00    -0.040 A 
HETATM   18  C   UNL     1      -3.629  -4.587 -34.171  1.00  0.00     0.050 C 
HETATM   19  C   UNL     1      -5.527  -3.108 -34.870  1.00  0.00     0.010 A 
HETATM   20  C   UNL     1      -6.309  -1.952 -34.746  1.00  0.00     0.024 A 
ENDBRANCH  11  13
ENDBRANCH  10  11
ENDBRANCH   7  10
BRANCH   1  21
HETATM   21  C   UNL     1      -5.688   4.398 -33.897  1.00  0.00     0.293 C 
HETATM   22  O   UNL     1      -6.583   5.146 -34.253  1.00  0.00    -0.259 OA
BRANCH  21  23
HETATM   23  O   UNL     1      -4.521   4.174 -34.552  1.00  0.00    -0.318 OA
BRANCH  23  24
HETATM   24  C   UNL     1      -3.840   5.347 -35.019  1.00  0.00     0.174 C 
HETATM   25  C   UNL     1      -2.336   5.164 -34.932  1.00  0.00     0.034 C 
ENDBRANCH  23  24
ENDBRANCH  21  23
ENDBRANCH   1  21
BRANCH   2  26
HETATM   26  C   UNL     1      -4.036   4.872 -31.336  1.00  0.00    -0.031 A 
HETATM   27  C   UNL     1      -3.857   6.263 -31.258  1.00  0.00     0.011 A 
HETATM   28  C   UNL     1      -2.575   6.817 -31.266  1.00  0.00     0.024 A 
HETATM   29  C   UNL     1      -1.460   5.986 -31.351  1.00  0.00     0.034 A 
HETATM   30 CL   UNL     1       0.118   6.671 -31.369  1.00  0.00    -0.084 Cl
HETATM   31  C   UNL     1      -1.616   4.603 -31.425  1.00  0.00     0.024 A 
HETATM   32  C   UNL     1      -2.898   4.049 -31.418  1.00  0.00     0.011 A 
ENDBRANCH   2  26
TORSDOF 7
ENDMDL
MODEL 4
REMARK VINA RESULT:      -7.6      2.700      4.227
REMARK  7 active torsions:
REMARK  status: ('A' for Active; 'I' for Inactive)
REMARK    1  A    between atoms: C_2  and  O_3 
REMARK    2  A    between atoms: O_3  and  C_4 
REMARK    3  A    between atoms: C_4  and  C_5 
REMARK    4  A    between atoms: C_6  and  C_7 
REMARK    5  A    between atoms: C_18  and  C_19 
REMARK    6  A    between atoms: C_19  and  N_20 
REMARK    7  A    between atoms: N_20  and  C_21 
ROOT
HETATM    1  C   UNL     1      -5.017   2.131 -30.835  1.00  0.00     0.068 A 
HETATM    2  C   UNL     1      -5.179   3.486 -30.210  1.00  0.00     0.161 A 
HETATM    3  N   UNL     1      -4.068   4.360 -30.537  1.00  0.00    -0.330 N 
HETATM    4  C   UNL     1      -3.078   4.074 -31.413  1.00  0.00     0.321 A 
HETATM    5  O   UNL     1      -2.209   4.894 -31.693  1.00  0.00    -0.247 OA
HETATM    6  N   UNL     1      -3.091   2.830 -31.964  1.00  0.00    -0.311 N 
HETATM    7  C   UNL     1      -4.018   1.844 -31.692  1.00  0.00     0.041 A 
HETATM    8  H   UNL     1      -4.052   5.296 -30.157  1.00  0.00     0.165 HD
HETATM    9  H   UNL     1      -2.327   2.648 -32.605  1.00  0.00     0.170 HD
ENDROOT
BRANCH   7  10
HETATM   10  C   UNL     1      -3.804   0.519 -32.394  1.00  0.00     0.150 C 
BRANCH  10  11
HETATM   11  N   UNL     1      -4.729   0.460 -33.520  1.00  0.00    -0.287 NA
HETATM   12  H   UNL     1      -5.518   1.090 -33.398  1.00  0.00     0.128 HD
BRANCH  11  13
HETATM   13  C   UNL     1      -5.135  -0.804 -33.973  1.00  0.00     0.010 A 
HETATM   14  C   UNL     1      -4.276  -1.896 -33.799  1.00  0.00     0.047 A 
HETATM   15  C   UNL     1      -4.653  -3.189 -34.186  1.00  0.00     0.041 A 
HETATM   16 CL   UNL     1      -3.511  -4.466 -33.951  1.00  0.00    -0.084 Cl
HETATM   17  C   UNL     1      -5.916  -3.433 -34.737  1.00  0.00    -0.040 A 
HETATM   18  C   UNL     1      -6.363  -4.804 -35.152  1.00  0.00     0.050 C 
HETATM   19  C   UNL     1      -6.802  -2.355 -34.854  1.00  0.00     0.010 A 
HETATM   20  C   UNL     1      -6.418  -1.065 -34.467  1.00  0.00     0.024 A 
ENDBRANCH  11  13
ENDBRANCH  10  11
ENDBRANCH   7  10
BRANCH   1  21
HETATM   21  C   UNL     1      -6.022   1.110 -30.465  1.00  0.00     0.293 C 
HETATM   22  O   UNL     1      -6.073   0.552 -29.381  1.00  0.00    -0.259 OA
BRANCH  21  23
HETATM   23  O   UNL     1      -6.848   0.892 -31.519  1.00  0.00    -0.318 OA
BRANCH  23  24
HETATM   24  C   UNL     1      -8.239   0.759 -31.195  1.00  0.00     0.174 C 
HETATM   25  C   UNL     1      -9.086   1.643 -32.093  1.00  0.00     0.034 C 
ENDBRANCH  23  24
ENDBRANCH  21  23
ENDBRANCH   1  21
BRANCH   2  26
HETATM   26  C   UNL     1      -6.491   4.155 -30.603  1.00  0.00    -0.031 A 
HETATM   27  C   UNL     1      -7.526   4.288 -29.662  1.00  0.00     0.011 A 
HETATM   28  C   UNL     1      -8.749   4.857 -30.025  1.00  0.00     0.024 A 
HETATM   29  C   UNL     1      -8.947   5.300 -31.331  1.00  0.00     0.034 A 
HETATM   30 CL   UNL     1     -10.457   5.994 -31.778  1.00  0.00    -0.084 Cl
HETATM   31  C   UNL     1      -7.933   5.181 -32.278  1.00  0.00     0.024 A 
HETATM   32  C   UNL     1      -6.710   4.611 -31.916  1.00  0.00     0.011 A 
ENDBRANCH   2  26
TORSDOF 7
ENDMDL
MODEL 5
REMARK VINA RESULT:      -7.6      3.463      5.401
REMARK  7 active torsions:
REMARK  status: ('A' for Active; 'I' for Inactive)
REMARK    1  A    between atoms: C_2  and  O_3 
REMARK    2  A    between atoms: O_3  and  C_4 
REMARK    3  A    between atoms: C_4  and  C_5 
REMARK    4  A    between atoms: C_6  and  C_7 
REMARK    5  A    between atoms: C_18  and  C_19 
REMARK    6  A    between atoms: C_19  and  N_20 
REMARK    7  A    between atoms: N_20  and  C_21 
ROOT
HETATM    1  C   UNL     1      -3.359   4.941 -32.122  1.00  0.00     0.068 A 
HETATM    2  C   UNL     1      -1.890   4.644 -32.053  1.00  0.00     0.161 A 
HETATM    3  N   UNL     1      -1.261   4.764 -33.355  1.00  0.00    -0.330 N 
HETATM    4  C   UNL     1      -1.860   5.230 -34.476  1.00  0.00     0.321 A 
HETATM    5  O   UNL     1      -1.242   5.370 -35.526  1.00  0.00    -0.247 OA
HETATM    6  N   UNL     1      -3.183   5.530 -34.379  1.00  0.00    -0.311 N 
HETATM    7  C   UNL     1      -3.956   5.387 -33.244  1.00  0.00     0.041 A 
HETATM    8  H   UNL     1      -0.273   4.568 -33.443  1.00  0.00     0.165 HD
HETATM    9  H   UNL     1      -3.600   5.864 -35.241  1.00  0.00     0.170 HD
ENDROOT
BRANCH   7  10
HETATM   10  C   UNL     1      -5.421   5.743 -33.389  1.00  0.00     0.150 C 
BRANCH  10  11
HETATM   11  N   UNL     1      -6.019   4.791 -34.319  1.00  0.00    -0.287 NA
HETATM   12  H   UNL     1      -6.479   5.257 -35.097  1.00  0.00     0.128 HD
BRANCH  11  13
HETATM   13  C   UNL     1      -6.807   3.759 -33.789  1.00  0.00     0.010 A 
HETATM   14  C   UNL     1      -6.432   2.431 -34.023  1.00  0.00     0.047 A 
HETATM   15  C   UNL     1      -7.155   1.362 -33.474  1.00  0.00     0.041 A 
HETATM   16 CL   UNL     1      -6.625  -0.243 -33.843  1.00  0.00    -0.084 Cl
HETATM   17  C   UNL     1      -8.262   1.594 -32.650  1.00  0.00    -0.040 A 
HETATM   18  C   UNL     1      -9.054   0.478 -32.033  1.00  0.00     0.050 C 
HETATM   19  C   UNL     1      -8.602   2.920 -32.362  1.00  0.00     0.010 A 
HETATM   20  C   UNL     1      -7.877   3.983 -32.916  1.00  0.00     0.024 A 
ENDBRANCH  11  13
ENDBRANCH  10  11
ENDBRANCH   7  10
BRANCH   1  21
HETATM   21  C   UNL     1      -4.134   4.722 -30.881  1.00  0.00     0.293 C 
HETATM   22  O   UNL     1      -4.469   5.606 -30.110  1.00  0.00    -0.259 OA
BRANCH  21  23
HETATM   23  O   UNL     1      -4.390   3.397 -30.740  1.00  0.00    -0.318 OA
BRANCH  23  24
HETATM   24  C   UNL     1      -5.602   3.072 -30.044  1.00  0.00     0.174 C 
HETATM   25  C   UNL     1      -5.803   1.568 -29.992  1.00  0.00     0.034 C 
ENDBRANCH  23  24
ENDBRANCH  21  23
ENDBRANCH   1  21
BRANCH   2  26
HETATM   26  C   UNL     1      -1.164   5.532 -31.049  1.00  0.00    -0.031 A 
HETATM   27  C   UNL     1      -1.392   6.918 -31.036  1.00  0.00     0.011 A 
HETATM   28  C   UNL     1      -0.697   7.746 -30.151  1.00  0.00     0.024 A 
HETATM   29  C   UNL     1       0.232   7.195 -29.271  1.00  0.00     0.034 A 
HETATM   30 CL   UNL     1       1.092   8.217 -28.187  1.00  0.00    -0.084 Cl
HETATM   31  C   UNL     1       0.470   5.823 -29.264  1.00  0.00     0.024 A 
HETATM   32  C   UNL     1      -0.224   4.994 -30.150  1.00  0.00     0.011 A 
ENDBRANCH   2  26
TORSDOF 7
ENDMDL
MODEL 6
REMARK VINA RESULT:      -7.6      3.434      4.807
REMARK  7 active torsions:
REMARK  status: ('A' for Active; 'I' for Inactive)
REMARK    1  A    between atoms: C_2  and  O_3 
REMARK    2  A    between atoms: O_3  and  C_4 
REMARK    3  A    between atoms: C_4  and  C_5 
REMARK    4  A    between atoms: C_6  and  C_7 
REMARK    5  A    between atoms: C_18  and  C_19 
REMARK    6  A    between atoms: C_19  and  N_20 
REMARK    7  A    between atoms: N_20  and  C_21 
ROOT
HETATM    1  C   UNL     1      -2.494   5.576 -31.255  1.00  0.00     0.068 A 
HETATM    2  C   UNL     1      -2.581   6.871 -30.500  1.00  0.00     0.161 A 
HETATM    3  N   UNL     1      -3.863   7.015 -29.836  1.00  0.00    -0.330 N 
HETATM    4  C   UNL     1      -4.818   6.059 -29.758  1.00  0.00     0.321 A 
HETATM    5  O   UNL     1      -5.849   6.230 -29.117  1.00  0.00    -0.247 OA
HETATM    6  N   UNL     1      -4.578   4.903 -30.433  1.00  0.00    -0.311 N 
HETATM    7  C   UNL     1      -3.456   4.635 -31.191  1.00  0.00     0.041 A 
HETATM    8  H   UNL     1      -4.051   7.858 -29.310  1.00  0.00     0.165 HD
HETATM    9  H   UNL     1      -5.321   4.216 -30.362  1.00  0.00     0.170 HD
ENDROOT
BRANCH   7  10
HETATM   10  C   UNL     1      -3.430   3.292 -31.889  1.00  0.00     0.150 C 
BRANCH  10  11
HETATM   11  N   UNL     1      -4.743   2.679 -31.718  1.00  0.00    -0.287 NA
HETATM   12  H   UNL     1      -5.024   2.647 -30.741  1.00  0.00     0.128 HD
BRANCH  11  13
HETATM   13  C   UNL     1      -4.993   1.464 -32.372  1.00  0.00     0.010 A 
HETATM   14  C   UNL     1      -5.945   1.429 -33.398  1.00  0.00     0.047 A 
HETATM   15  C   UNL     1      -6.197   0.254 -34.120  1.00  0.00     0.041 A 
HETATM   16 CL   UNL     1      -7.410   0.308 -35.351  1.00  0.00    -0.084 Cl
HETATM   17  C   UNL     1      -5.482  -0.919 -33.851  1.00  0.00    -0.040 A 
HETATM   18  C   UNL     1      -5.712  -2.194 -34.609  1.00  0.00     0.050 C 
HETATM   19  C   UNL     1      -4.486  -0.872 -32.870  1.00  0.00     0.010 A 
HETATM   20  C   UNL     1      -4.240   0.306 -32.152  1.00  0.00     0.024 A 
ENDBRANCH  11  13
ENDBRANCH  10  11
ENDBRANCH   7  10
BRANCH   1  21
HETATM   21  C   UNL     1      -1.284   5.376 -32.082  1.00  0.00     0.293 C 
HETATM   22  O   UNL     1      -0.335   4.680 -31.762  1.00  0.00    -0.259 OA
BRANCH  21  23
HETATM   23  O   UNL     1      -1.400   6.096 -33.226  1.00  0.00    -0.318 OA
BRANCH  23  24
HETATM   24  C   UNL     1      -1.470   5.327 -34.436  1.00  0.00     0.174 C 
HETATM   25  C   UNL     1      -2.890   5.294 -34.970  1.00  0.00     0.034 C 
ENDBRANCH  23  24
ENDBRANCH  21  23
ENDBRANCH   1  21
BRANCH   2  26
HETATM   26  C   UNL     1      -1.456   7.028 -29.484  1.00  0.00    -0.031 A 
HETATM   27  C   UNL     1      -1.669   6.693 -28.137  1.00  0.00     0.011 A 
HETATM   28  C   UNL     1      -0.659   6.878 -27.189  1.00  0.00     0.024 A 
HETATM   29  C   UNL     1       0.573   7.398 -27.581  1.00  0.00     0.034 A 
HETATM   30 CL   UNL     1       1.813   7.631 -26.411  1.00  0.00    -0.084 Cl
HETATM   31  C   UNL     1       0.806   7.732 -28.913  1.00  0.00     0.024 A 
HETATM   32  C   UNL     1      -0.204   7.549 -29.860  1.00  0.00     0.011 A 
ENDBRANCH   2  26
TORSDOF 7
ENDMDL
MODEL 7
REMARK VINA RESULT:      -7.6      2.332      6.735
REMARK  7 active torsions:
REMARK  status: ('A' for Active; 'I' for Inactive)
REMARK    1  A    between atoms: C_2  and  O_3 
REMARK    2  A    between atoms: O_3  and  C_4 
REMARK    3  A    between atoms: C_4  and  C_5 
REMARK    4  A    between atoms: C_6  and  C_7 
REMARK    5  A    between atoms: C_18  and  C_19 
REMARK    6  A    between atoms: C_19  and  N_20 
REMARK    7  A    between atoms: N_20  and  C_21 
ROOT
HETATM    1  C   UNL     1      -8.050   2.588 -32.362  1.00  0.00     0.068 A 
HETATM    2  C   UNL     1      -8.610   1.205 -32.534  1.00  0.00     0.161 A 
HETATM    3  N   UNL     1      -9.773   1.205 -33.401  1.00  0.00    -0.330 N 
HETATM    4  C   UNL     1     -10.229   2.269 -34.102  1.00  0.00     0.321 A 
HETATM    5  O   UNL     1     -11.179   2.174 -34.872  1.00  0.00    -0.247 OA
HETATM    6  N   UNL     1      -9.583   3.450 -33.905  1.00  0.00    -0.311 N 
HETATM    7  C   UNL     1      -8.519   3.648 -33.048  1.00  0.00     0.041 A 
HETATM    8  H   UNL     1     -10.253   0.333 -33.578  1.00  0.00     0.165 HD
HETATM    9  H   UNL     1      -9.960   4.226 -34.438  1.00  0.00     0.170 HD
ENDROOT
BRANCH   7  10
HETATM   10  C   UNL     1      -7.990   5.064 -32.962  1.00  0.00     0.150 C 
BRANCH  10  11
HETATM   11  N   UNL     1      -6.955   5.213 -33.979  1.00  0.00    -0.287 NA
HETATM   12  H   UNL     1      -6.951   4.435 -34.635  1.00  0.00     0.128 HD
BRANCH  11  13
HETATM   13  C   UNL     1      -5.660   5.548 -33.558  1.00  0.00     0.010 A 
HETATM   14  C   UNL     1      -4.572   5.195 -34.365  1.00  0.00     0.047 A 
HETATM   15  C   UNL     1      -3.261   5.550 -34.018  1.00  0.00     0.041 A 
HETATM   16 CL   UNL     1      -1.983   5.044 -35.068  1.00  0.00    -0.084 Cl
HETATM   17  C   UNL     1      -3.003   6.295 -32.862  1.00  0.00    -0.040 A 
HETATM   18  C   UNL     1      -1.616   6.707 -32.462  1.00  0.00     0.050 C 
HETATM   19  C   UNL     1      -4.093   6.705 -32.086  1.00  0.00     0.010 A 
HETATM   20  C   UNL     1      -5.400   6.345 -32.438  1.00  0.00     0.024 A 
ENDBRANCH  11  13
ENDBRANCH  10  11
ENDBRANCH   7  10
BRANCH   1  21
HETATM   21  C   UNL     1      -6.942   2.734 -31.394  1.00  0.00     0.293 C 
HETATM   22  O   UNL     1      -7.085   2.806 -30.185  1.00  0.00    -0.259 OA
BRANCH  21  23
HETATM   23  O   UNL     1      -5.765   2.791 -32.067  1.00  0.00    -0.318 OA
BRANCH  23  24
HETATM   24  C   UNL     1      -4.585   2.779 -31.250  1.00  0.00     0.174 C 
HETATM   25  C   UNL     1      -3.359   2.454 -32.082  1.00  0.00     0.034 C 
ENDBRANCH  23  24
ENDBRANCH  21  23
ENDBRANCH   1  21
BRANCH   2  26
HETATM   26  C   UNL     1      -7.574   0.221 -33.065  1.00  0.00    -0.031 A 
HETATM   27  C   UNL     1      -7.571  -0.137 -34.424  1.00  0.00     0.011 A 
HETATM   28  C   UNL     1      -6.656  -1.074 -34.911  1.00  0.00     0.024 A 
HETATM   29  C   UNL     1      -5.735  -1.659 -34.045  1.00  0.00     0.034 A 
HETATM   30 CL   UNL     1      -4.614  -2.817 -34.645  1.00  0.00    -0.084 Cl
HETATM   31  C   UNL     1      -5.718  -1.314 -32.696  1.00  0.00     0.024 A 
HETATM   32  C   UNL     1      -6.634  -0.379 -32.207  1.00  0.00     0.011 A 
ENDBRANCH   2  26
TORSDOF 7
ENDMDL
MODEL 8
REMARK VINA RESULT:      -7.6      2.976      7.132
REMARK  7 active torsions:
REMARK  status: ('A' for Active; 'I' for Inactive)
REMARK    1  A    between atoms: C_2  and  O_3 
REMARK    2  A    between atoms: O_3  and  C_4 
REMARK    3  A    between atoms: C_4  and  C_5 
REMARK    4  A    between atoms: C_6  and  C_7 
REMARK    5  A    between atoms: C_18  and  C_19 
REMARK    6  A    between atoms: C_19  and  N_20 
REMARK    7  A    between atoms: N_20  and  C_21 
ROOT
HETATM    1  C   UNL     1      -6.892   0.995 -32.551  1.00  0.00     0.068 A 
HETATM    2  C   UNL     1      -8.280   0.964 -31.981  1.00  0.00     0.161 A 
HETATM    3  N   UNL     1      -8.378   1.765 -30.775  1.00  0.00    -0.330 N 
HETATM    4  C   UNL     1      -7.406   2.570 -30.287  1.00  0.00     0.321 A 
HETATM    5  O   UNL     1      -7.588   3.273 -29.298  1.00  0.00    -0.247 OA
HETATM    6  N   UNL     1      -6.215   2.555 -30.944  1.00  0.00    -0.311 N 
HETATM    7  C   UNL     1      -5.921   1.783 -32.051  1.00  0.00     0.041 A 
HETATM    8  H   UNL     1      -9.261   1.808 -30.284  1.00  0.00     0.165 HD
HETATM    9  H   UNL     1      -5.508   3.160 -30.543  1.00  0.00     0.170 HD
ENDROOT
BRANCH   7  10
HETATM   10  C   UNL     1      -4.509   1.901 -32.587  1.00  0.00     0.150 C 
BRANCH  10  11
HETATM   11  N   UNL     1      -3.707   2.579 -31.574  1.00  0.00    -0.287 NA
HETATM   12  H   UNL     1      -4.161   2.578 -30.664  1.00  0.00     0.128 HD
BRANCH  11  13
HETATM   13  C   UNL     1      -3.173   3.837 -31.890  1.00  0.00     0.010 A 
HETATM   14  C   UNL     1      -2.482   3.998 -33.096  1.00  0.00     0.047 A 
HETATM   15  C   UNL     1      -1.973   5.245 -33.485  1.00  0.00     0.041 A 
HETATM   16 CL   UNL     1      -1.112   5.334 -34.982  1.00  0.00    -0.084 Cl
HETATM   17  C   UNL     1      -2.167   6.378 -32.686  1.00  0.00    -0.040 A 
HETATM   18  C   UNL     1      -1.650   7.733 -33.072  1.00  0.00     0.050 C 
HETATM   19  C   UNL     1      -2.912   6.234 -31.510  1.00  0.00     0.010 A 
HETATM   20  C   UNL     1      -3.415   4.985 -31.127  1.00  0.00     0.024 A 
ENDBRANCH  11  13
ENDBRANCH  10  11
ENDBRANCH   7  10
BRANCH   1  21
HETATM   21  C   UNL     1      -6.635   0.109 -33.708  1.00  0.00     0.293 C 
HETATM   22  O   UNL     1      -6.632   0.475 -34.871  1.00  0.00    -0.259 OA
BRANCH  21  23
HETATM   23  O   UNL     1      -6.424  -1.156 -33.264  1.00  0.00    -0.318 OA
BRANCH  23  24
HETATM   24  C   UNL     1      -5.772  -2.035 -34.192  1.00  0.00     0.174 C 
HETATM   25  C   UNL     1      -6.747  -3.068 -34.729  1.00  0.00     0.034 C 
ENDBRANCH  23  24
ENDBRANCH  21  23
ENDBRANCH   1  21
BRANCH   2  26
HETATM   26  C   UNL     1      -9.331   1.420 -32.986  1.00  0.00    -0.031 A 
HETATM   27  C   UNL     1      -9.202   2.661 -33.630  1.00  0.00     0.011 A 
HETATM   28  C   UNL     1     -10.184   3.108 -34.518  1.00  0.00     0.024 A 
HETATM   29  C   UNL     1     -11.303   2.317 -34.770  1.00  0.00     0.034 A 
HETATM   30 CL   UNL     1     -12.515   2.872 -35.857  1.00  0.00    -0.084 Cl
HETATM   31  C   UNL     1     -11.448   1.081 -34.144  1.00  0.00     0.024 A 
HETATM   32  C   UNL     1     -10.467   0.634 -33.256  1.00  0.00     0.011 A 
ENDBRANCH   2  26
TORSDOF 7
ENDMDL
MODEL 9
REMARK VINA RESULT:      -7.5      2.152      6.759
REMARK  7 active torsions:
REMARK  status: ('A' for Active; 'I' for Inactive)
REMARK    1  A    between atoms: C_2  and  O_3 
REMARK    2  A    between atoms: O_3  and  C_4 
REMARK    3  A    between atoms: C_4  and  C_5 
REMARK    4  A    between atoms: C_6  and  C_7 
REMARK    5  A    between atoms: C_18  and  C_19 
REMARK    6  A    between atoms: C_19  and  N_20 
REMARK    7  A    between atoms: N_20  and  C_21 
ROOT
HETATM    1  C   UNL     1      -7.271   2.478 -32.134  1.00  0.00     0.068 A 
HETATM    2  C   UNL     1      -7.861   1.099 -32.095  1.00  0.00     0.161 A 
HETATM    3  N   UNL     1      -9.187   1.069 -32.683  1.00  0.00    -0.330 N 
HETATM    4  C   UNL     1      -9.781   2.098 -33.330  1.00  0.00     0.321 A 
HETATM    5  O   UNL     1     -10.878   1.976 -33.864  1.00  0.00    -0.247 OA
HETATM    6  N   UNL     1      -9.102   3.277 -33.352  1.00  0.00    -0.311 N 
HETATM    7  C   UNL     1      -7.874   3.505 -32.763  1.00  0.00     0.041 A 
HETATM    8  H   UNL     1      -9.698   0.197 -32.697  1.00  0.00     0.165 HD
HETATM    9  H   UNL     1      -9.583   4.028 -33.834  1.00  0.00     0.170 HD
ENDROOT
BRANCH   7  10
HETATM   10  C   UNL     1      -7.333   4.915 -32.881  1.00  0.00     0.150 C 
BRANCH  10  11
HETATM   11  N   UNL     1      -6.579   4.997 -34.128  1.00  0.00    -0.287 NA
HETATM   12  H   UNL     1      -6.685   4.157 -34.692  1.00  0.00     0.128 HD
BRANCH  11  13
HETATM   13  C   UNL     1      -5.243   5.417 -34.064  1.00  0.00     0.010 A 
HETATM   14  C   UNL     1      -4.832   6.208 -32.985  1.00  0.00     0.047 A 
HETATM   15  C   UNL     1      -3.497   6.614 -32.845  1.00  0.00     0.041 A 
HETATM   16 CL   UNL     1      -3.095   7.610 -31.490  1.00  0.00    -0.084 Cl
HETATM   17  C   UNL     1      -2.526   6.214 -33.770  1.00  0.00    -0.040 A 
HETATM   18  C   UNL     1      -1.085   6.615 -33.650  1.00  0.00     0.050 C 
HETATM   19  C   UNL     1      -2.921   5.371 -34.816  1.00  0.00     0.010 A 
HETATM   20  C   UNL     1      -4.257   4.972 -34.950  1.00  0.00     0.024 A 
ENDBRANCH  11  13
ENDBRANCH  10  11
ENDBRANCH   7  10
BRANCH   1  21
HETATM   21  C   UNL     1      -5.975   2.661 -31.444  1.00  0.00     0.293 C 
HETATM   22  O   UNL     1      -5.843   2.749 -30.235  1.00  0.00    -0.259 OA
BRANCH  21  23
HETATM   23  O   UNL     1      -4.982   2.728 -32.367  1.00  0.00    -0.318 OA
BRANCH  23  24
HETATM   24  C   UNL     1      -3.714   2.205 -31.948  1.00  0.00     0.174 C 
HETATM   25  C   UNL     1      -2.750   3.331 -31.623  1.00  0.00     0.034 C 
ENDBRANCH  23  24
ENDBRANCH  21  23
ENDBRANCH   1  21
BRANCH   2  26
HETATM   26  C   UNL     1      -6.973   0.067 -32.781  1.00  0.00    -0.031 A 
HETATM   27  C   UNL     1      -7.175  -0.253 -34.133  1.00  0.00     0.011 A 
HETATM   28  C   UNL     1      -6.397  -1.231 -34.758  1.00  0.00     0.024 A 
HETATM   29  C   UNL     1      -5.409  -1.896 -34.036  1.00  0.00     0.034 A 
HETATM   30 CL   UNL     1      -4.457  -3.105 -34.805  1.00  0.00    -0.084 Cl
HETATM   31  C   UNL     1      -5.189  -1.591 -32.695  1.00  0.00     0.024 A 
HETATM   32  C   UNL     1      -5.967  -0.615 -32.070  1.00  0.00     0.011 A 
ENDBRANCH   2  26
TORSDOF 7
ENDMDL
MODEL 10
REMARK VINA RESULT:      -7.5      2.688      7.343
REMARK  7 active torsions:
REMARK  status: ('A' for Active; 'I' for Inactive)
REMARK    1  A    between atoms: C_2  and  O_3 
REMARK    2  A    between atoms: O_3  and  C_4 
REMARK    3  A    between atoms: C_4  and  C_5 
REMARK    4  A    between atoms: C_6  and  C_7 
REMARK    5  A    between atoms: C_18  and  C_19 
REMARK    6  A    between atoms: C_19  and  N_20 
REMARK    7  A    between atoms: N_20  and  C_21 
ROOT
HETATM    1  C   UNL     1      -6.992   4.041 -32.307  1.00  0.00     0.068 A 
HETATM    2  C   UNL     1      -8.078   3.046 -32.595  1.00  0.00     0.161 A 
HETATM    3  N   UNL     1      -9.060   3.581 -33.519  1.00  0.00    -0.330 N 
HETATM    4  C   UNL     1      -8.960   4.761 -34.174  1.00  0.00     0.321 A 
HETATM    5  O   UNL     1      -9.798   5.115 -34.995  1.00  0.00    -0.247 OA
HETATM    6  N   UNL     1      -7.885   5.537 -33.869  1.00  0.00    -0.311 N 
HETATM    7  C   UNL     1      -6.906   5.223 -32.947  1.00  0.00     0.041 A 
HETATM    8  H   UNL     1      -9.854   3.011 -33.776  1.00  0.00     0.165 HD
HETATM    9  H   UNL     1      -7.850   6.418 -34.369  1.00  0.00     0.170 HD
ENDROOT
BRANCH   7  10
HETATM   10  C   UNL     1      -5.827   6.266 -32.743  1.00  0.00     0.150 C 
BRANCH  10  11
HETATM   11  N   UNL     1      -4.691   5.896 -33.581  1.00  0.00    -0.287 NA
HETATM   12  H   UNL     1      -4.799   4.967 -33.980  1.00  0.00     0.128 HD
BRANCH  11  13
HETATM   13  C   UNL     1      -3.401   6.097 -33.068  1.00  0.00     0.010 A 
HETATM   14  C   UNL     1      -3.198   7.105 -32.118  1.00  0.00     0.047 A 
HETATM   15  C   UNL     1      -1.940   7.314 -31.534  1.00  0.00     0.041 A 
HETATM   16 CL   UNL     1      -1.787   8.601 -30.389  1.00  0.00    -0.084 Cl
HETATM   17  C   UNL     1      -0.852   6.500 -31.867  1.00  0.00    -0.040 A 
HETATM   18  C   UNL     1       0.507   6.683 -31.256  1.00  0.00     0.050 C 
HETATM   19  C   UNL     1      -1.065   5.452 -32.769  1.00  0.00     0.010 A 
HETATM   20  C   UNL     1      -2.324   5.249 -33.349  1.00  0.00     0.024 A 
ENDBRANCH  11  13
ENDBRANCH  10  11
ENDBRANCH   7  10
BRANCH   1  21
HETATM   21  C   UNL     1      -6.004   3.658 -31.275  1.00  0.00     0.293 C 
HETATM   22  O   UNL     1      -6.209   3.695 -30.074  1.00  0.00    -0.259 OA
BRANCH  21  23
HETATM   23  O   UNL     1      -4.849   3.282 -31.880  1.00  0.00    -0.318 OA
BRANCH  23  24
HETATM   24  C   UNL     1      -4.160   2.183 -31.267  1.00  0.00     0.174 C 
HETATM   25  C   UNL     1      -3.689   1.192 -32.316  1.00  0.00     0.034 C 
ENDBRANCH  23  24
ENDBRANCH  21  23
ENDBRANCH   1  21
BRANCH   2  26
HETATM   26  C   UNL     1      -7.531   1.729 -33.134  1.00  0.00    -0.031 A 
HETATM   27  C   UNL     1      -7.167   1.616 -34.486  1.00  0.00     0.011 A 
HETATM   28  C   UNL     1      -6.708   0.400 -35.000  1.00  0.00     0.024 A 
HETATM   29  C   UNL     1      -6.609  -0.712 -34.167  1.00  0.00     0.034 A 
HETATM   30 CL   UNL     1      -6.052  -2.210 -34.804  1.00  0.00    -0.084 Cl
HETATM   31  C   UNL     1      -6.961  -0.620 -32.823  1.00  0.00     0.024 A 
HETATM   32  C   UNL     1      -7.421   0.595 -32.309  1.00  0.00     0.011 A 
ENDBRANCH   2  26
TORSDOF 7
ENDMDL
