MODEL 1
REMARK VINA RESULT:      -8.3      0.000      0.000
REMARK  3 active torsions:
REMARK  status: ('A' for Active; 'I' for Inactive)
REMARK    1  A    between atoms: C_3  and  N_4 
REMARK       I    between atoms: N_4  and  C_5 
REMARK    2  A    between atoms: C_5  and  C_6 
REMARK    3  A    between atoms: C_6  and  C_7 
ROOT
HETATM    1  C   UNL     1      -6.132  -0.012 -31.172  1.00  0.00     0.286 C 
HETATM    2  N   UNL     1      -6.465   0.907 -32.341  1.00  0.00    -0.056 N 
HETATM    3  H   UNL     1      -5.598   1.458 -32.525  1.00  0.00     0.278 HD
HETATM    4  H   UNL     1      -6.638   0.361 -33.192  1.00  0.00     0.278 HD
HETATM    5  C   UNL     1      -7.620   1.827 -32.035  1.00  0.00     0.209 C 
HETATM    6  C   UNL     1      -7.267   2.685 -30.792  1.00  0.00     0.115 C 
HETATM    7  N   UNL     1      -6.782   1.871 -29.678  1.00  0.00    -0.353 N 
HETATM    8  C   UNL     1      -6.018   0.738 -29.825  1.00  0.00     0.249 C 
HETATM    9  O   UNL     1      -5.365   0.309 -28.880  1.00  0.00    -0.271 OA
HETATM   10  C   UNL     1      -7.941   2.668 -33.268  1.00  0.00     0.035 C 
HETATM   11  C   UNL     1      -6.899   3.747 -33.549  1.00  0.00     0.002 C 
HETATM   12  C   UNL     1      -6.657   4.619 -32.323  1.00  0.00     0.002 C 
HETATM   13  C   UNL     1      -6.246   3.787 -31.113  1.00  0.00     0.027 C 
HETATM   14  H   UNL     1      -6.674   2.316 -28.769  1.00  0.00     0.163 HD
ENDROOT
BRANCH   1  15
HETATM   15  C   UNL     1      -4.876  -0.842 -31.459  1.00  0.00     0.146 C 
BRANCH  15  16
HETATM   16  C   UNL     1      -4.206  -0.348 -32.719  1.00  0.00     0.224 C 
HETATM   17  N   UNL     1      -4.135  -1.111 -33.841  1.00  0.00    -0.327 N 
HETATM   18  H   UNL     1      -3.473  -0.747 -34.520  1.00  0.00     0.169 HD
HETATM   19  O   UNL     1      -3.692   0.780 -32.706  1.00  0.00    -0.273 OA
BRANCH  17  20
HETATM   20  C   UNL     1      -4.755  -2.330 -34.186  1.00  0.00     0.040 A 
HETATM   21  C   UNL     1      -6.067  -2.297 -34.704  1.00  0.00    -0.035 A 
HETATM   22  C   UNL     1      -6.811  -1.010 -34.944  1.00  0.00     0.050 C 
HETATM   23  C   UNL     1      -6.713  -3.505 -35.022  1.00  0.00     0.009 A 
HETATM   24  C   UNL     1      -6.077  -4.728 -34.828  1.00  0.00     0.001 A 
HETATM   25  C   UNL     1      -4.795  -4.761 -34.295  1.00  0.00     0.002 A 
HETATM   26  C   UNL     1      -4.141  -3.570 -33.969  1.00  0.00     0.030 A 
ENDBRANCH  17  20
ENDBRANCH  15  16
ENDBRANCH   1  15
TORSDOF 3
ENDMDL
MODEL 2
REMARK VINA RESULT:      -7.8      4.197      5.720
REMARK  3 active torsions:
REMARK  status: ('A' for Active; 'I' for Inactive)
REMARK    1  A    between atoms: C_3  and  N_4 
REMARK       I    between atoms: N_4  and  C_5 
REMARK    2  A    between atoms: C_5  and  C_6 
REMARK    3  A    between atoms: C_6  and  C_7 
ROOT
HETATM    1  C   UNL     1      -3.111   4.128 -33.366  1.00  0.00     0.286 C 
HETATM    2  N   UNL     1      -2.222   4.661 -32.248  1.00  0.00    -0.056 N 
HETATM    3  H   UNL     1      -2.840   5.255 -31.654  1.00  0.00     0.278 HD
HETATM    4  H   UNL     1      -1.902   3.895 -31.645  1.00  0.00     0.278 HD
HETATM    5  C   UNL     1      -1.061   5.466 -32.775  1.00  0.00     0.209 C 
HETATM    6  C   UNL     1      -1.608   6.656 -33.608  1.00  0.00     0.115 C 
HETATM    7  N   UNL     1      -2.595   6.228 -34.599  1.00  0.00    -0.353 N 
HETATM    8  C   UNL     1      -3.495   5.208 -34.402  1.00  0.00     0.249 C 
HETATM    9  O   UNL     1      -4.498   5.129 -35.102  1.00  0.00    -0.271 OA
HETATM   10  C   UNL     1      -0.179   5.910 -31.610  1.00  0.00     0.035 C 
HETATM   11  C   UNL     1      -0.812   7.008 -30.760  1.00  0.00     0.002 C 
HETATM   12  C   UNL     1      -1.248   8.192 -31.616  1.00  0.00     0.002 C 
HETATM   13  C   UNL     1      -2.203   7.763 -32.725  1.00  0.00     0.027 C 
HETATM   14  H   UNL     1      -2.896   6.904 -35.298  1.00  0.00     0.163 HD
ENDROOT
BRANCH   1  15
HETATM   15  C   UNL     1      -4.351   3.426 -32.801  1.00  0.00     0.146 C 
BRANCH  15  16
HETATM   16  C   UNL     1      -3.957   2.118 -32.157  1.00  0.00     0.224 C 
HETATM   17  N   UNL     1      -4.650   0.971 -32.380  1.00  0.00    -0.327 N 
HETATM   18  H   UNL     1      -4.414   0.237 -31.719  1.00  0.00     0.169 HD
HETATM   19  O   UNL     1      -2.986   2.114 -31.387  1.00  0.00    -0.273 OA
BRANCH  17  20
HETATM   20  C   UNL     1      -5.665   0.654 -33.306  1.00  0.00     0.040 A 
HETATM   21  C   UNL     1      -5.618  -0.597 -33.958  1.00  0.00    -0.035 A 
HETATM   22  C   UNL     1      -4.553  -1.621 -33.669  1.00  0.00     0.050 C 
HETATM   23  C   UNL     1      -6.605  -0.916 -34.909  1.00  0.00     0.009 A 
HETATM   24  C   UNL     1      -7.618  -0.013 -35.217  1.00  0.00     0.001 A 
HETATM   25  C   UNL     1      -7.650   1.227 -34.593  1.00  0.00     0.002 A 
HETATM   26  C   UNL     1      -6.675   1.561 -33.649  1.00  0.00     0.030 A 
ENDBRANCH  17  20
ENDBRANCH  15  16
ENDBRANCH   1  15
TORSDOF 3
ENDMDL
MODEL 3
REMARK VINA RESULT:      -7.7     14.021     16.583
REMARK  3 active torsions:
REMARK  status: ('A' for Active; 'I' for Inactive)
REMARK    1  A    between atoms: C_3  and  N_4 
REMARK       I    between atoms: N_4  and  C_5 
REMARK    2  A    between atoms: C_5  and  C_6 
REMARK    3  A    between atoms: C_6  and  C_7 
ROOT
HETATM    1  C   UNL     1      -4.170 -13.962 -40.131  1.00  0.00     0.286 C 
HETATM    2  N   UNL     1      -3.134 -14.112 -39.023  1.00  0.00    -0.056 N 
HETATM    3  H   UNL     1      -2.535 -13.260 -39.077  1.00  0.00     0.278 HD
HETATM    4  H   UNL     1      -3.584 -14.083 -38.101  1.00  0.00     0.278 HD
HETATM    5  C   UNL     1      -2.299 -15.357 -39.186  1.00  0.00     0.209 C 
HETATM    6  C   UNL     1      -1.577 -15.306 -40.559  1.00  0.00     0.115 C 
HETATM    7  N   UNL     1      -2.497 -15.001 -41.655  1.00  0.00    -0.353 N 
HETATM    8  C   UNL     1      -3.577 -14.158 -41.545  1.00  0.00     0.249 C 
HETATM    9  O   UNL     1      -4.088 -13.679 -42.551  1.00  0.00    -0.271 OA
HETATM   10  C   UNL     1      -1.333 -15.479 -38.010  1.00  0.00     0.035 C 
HETATM   11  C   UNL     1      -0.191 -14.467 -38.060  1.00  0.00     0.002 C 
HETATM   12  C   UNL     1       0.542 -14.521 -39.396  1.00  0.00     0.002 C 
HETATM   13  C   UNL     1      -0.409 -14.307 -40.569  1.00  0.00     0.027 C 
HETATM   14  H   UNL     1      -2.157 -15.100 -42.609  1.00  0.00     0.163 HD
ENDROOT
BRANCH   1  15
HETATM   15  C   UNL     1      -4.915 -12.627 -40.016  1.00  0.00     0.146 C 
BRANCH  15  16
HETATM   16  C   UNL     1      -5.226 -12.332 -38.568  1.00  0.00     0.224 C 
HETATM   17  N   UNL     1      -6.490 -12.411 -38.075  1.00  0.00    -0.327 N 
HETATM   18  H   UNL     1      -6.581 -11.975 -37.162  1.00  0.00     0.169 HD
HETATM   19  O   UNL     1      -4.295 -11.987 -37.827  1.00  0.00    -0.273 OA
BRANCH  17  20
HETATM   20  C   UNL     1      -7.682 -12.920 -38.630  1.00  0.00     0.040 A 
HETATM   21  C   UNL     1      -8.059 -14.245 -38.320  1.00  0.00    -0.035 A 
HETATM   22  C   UNL     1      -7.262 -15.116 -37.386  1.00  0.00     0.050 C 
HETATM   23  C   UNL     1      -9.228 -14.780 -38.891  1.00  0.00     0.009 A 
HETATM   24  C   UNL     1     -10.010 -14.024 -39.760  1.00  0.00     0.001 A 
HETATM   25  C   UNL     1      -9.625 -12.730 -40.083  1.00  0.00     0.002 A 
HETATM   26  C   UNL     1      -8.465 -12.184 -39.528  1.00  0.00     0.030 A 
ENDBRANCH  17  20
ENDBRANCH  15  16
ENDBRANCH   1  15
TORSDOF 3
ENDMDL
MODEL 4
REMARK VINA RESULT:      -7.6      3.212      4.293
REMARK  3 active torsions:
REMARK  status: ('A' for Active; 'I' for Inactive)
REMARK    1  A    between atoms: C_3  and  N_4 
REMARK       I    between atoms: N_4  and  C_5 
REMARK    2  A    between atoms: C_5  and  C_6 
REMARK    3  A    between atoms: C_6  and  C_7 
ROOT
HETATM    1  C   UNL     1      -5.213   3.985 -32.019  1.00  0.00     0.286 C 
HETATM    2  N   UNL     1      -4.338   4.006 -33.267  1.00  0.00    -0.056 N 
HETATM    3  H   UNL     1      -3.402   3.661 -32.962  1.00  0.00     0.278 HD
HETATM    4  H   UNL     1      -4.678   3.328 -33.958  1.00  0.00     0.278 HD
HETATM    5  C   UNL     1      -4.224   5.387 -33.862  1.00  0.00     0.209 C 
HETATM    6  C   UNL     1      -3.626   6.347 -32.800  1.00  0.00     0.115 C 
HETATM    7  N   UNL     1      -4.325   6.256 -31.518  1.00  0.00    -0.353 N 
HETATM    8  C   UNL     1      -4.851   5.094 -31.006  1.00  0.00     0.249 C 
HETATM    9  O   UNL     1      -5.104   5.009 -29.810  1.00  0.00    -0.271 OA
HETATM   10  C   UNL     1      -3.392   5.322 -35.141  1.00  0.00     0.035 C 
HETATM   11  C   UNL     1      -1.905   5.095 -34.882  1.00  0.00     0.002 C 
HETATM   12  C   UNL     1      -1.348   6.121 -33.902  1.00  0.00     0.002 C 
HETATM   13  C   UNL     1      -2.121   6.122 -32.588  1.00  0.00     0.027 C 
HETATM   14  H   UNL     1      -4.116   6.953 -30.807  1.00  0.00     0.163 HD
ENDROOT
BRANCH   1  15
HETATM   15  C   UNL     1      -5.207   2.600 -31.361  1.00  0.00     0.146 C 
BRANCH  15  16
HETATM   16  C   UNL     1      -3.946   1.857 -31.731  1.00  0.00     0.224 C 
HETATM   17  N   UNL     1      -3.973   0.731 -32.490  1.00  0.00    -0.327 N 
HETATM   18  H   UNL     1      -3.093   0.224 -32.470  1.00  0.00     0.169 HD
HETATM   19  O   UNL     1      -2.865   2.287 -31.303  1.00  0.00    -0.273 OA
BRANCH  17  20
HETATM   20  C   UNL     1      -5.010   0.123 -33.228  1.00  0.00     0.040 A 
HETATM   21  C   UNL     1      -4.987  -1.278 -33.397  1.00  0.00    -0.035 A 
HETATM   22  C   UNL     1      -3.925  -2.151 -32.781  1.00  0.00     0.050 C 
HETATM   23  C   UNL     1      -5.995  -1.898 -34.158  1.00  0.00     0.009 A 
HETATM   24  C   UNL     1      -7.006  -1.147 -34.750  1.00  0.00     0.001 A 
HETATM   25  C   UNL     1      -7.014   0.234 -34.604  1.00  0.00     0.002 A 
HETATM   26  C   UNL     1      -6.018   0.866 -33.855  1.00  0.00     0.030 A 
ENDBRANCH  17  20
ENDBRANCH  15  16
ENDBRANCH   1  15
TORSDOF 3
ENDMDL
MODEL 5
REMARK VINA RESULT:      -7.6      4.151      5.724
REMARK  3 active torsions:
REMARK  status: ('A' for Active; 'I' for Inactive)
REMARK    1  A    between atoms: C_3  and  N_4 
REMARK       I    between atoms: N_4  and  C_5 
REMARK    2  A    between atoms: C_5  and  C_6 
REMARK    3  A    between atoms: C_6  and  C_7 
ROOT
HETATM    1  C   UNL     1      -3.558   4.172 -33.347  1.00  0.00     0.286 C 
HETATM    2  N   UNL     1      -2.656   4.613 -32.200  1.00  0.00    -0.056 N 
HETATM    3  H   UNL     1      -3.154   5.403 -31.736  1.00  0.00     0.278 HD
HETATM    4  H   UNL     1      -2.581   3.872 -31.494  1.00  0.00     0.278 HD
HETATM    5  C   UNL     1      -1.296   5.054 -32.679  1.00  0.00     0.209 C 
HETATM    6  C   UNL     1      -1.468   6.229 -33.678  1.00  0.00     0.115 C 
HETATM    7  N   UNL     1      -2.450   5.928 -34.720  1.00  0.00    -0.353 N 
HETATM    8  C   UNL     1      -3.585   5.178 -34.519  1.00  0.00     0.249 C 
HETATM    9  O   UNL     1      -4.519   5.252 -35.309  1.00  0.00    -0.271 OA
HETATM   10  C   UNL     1      -0.426   5.416 -31.478  1.00  0.00     0.035 C 
HETATM   11  C   UNL     1      -0.835   6.727 -30.812  1.00  0.00     0.002 C 
HETATM   12  C   UNL     1      -0.901   7.867 -31.821  1.00  0.00     0.002 C 
HETATM   13  C   UNL     1      -1.842   7.543 -32.976  1.00  0.00     0.027 C 
HETATM   14  H   UNL     1      -2.522   6.565 -35.511  1.00  0.00     0.163 HD
ENDROOT
BRANCH   1  15
HETATM   15  C   UNL     1      -4.973   3.854 -32.848  1.00  0.00     0.146 C 
BRANCH  15  16
HETATM   16  C   UNL     1      -4.921   3.372 -31.418  1.00  0.00     0.224 C 
HETATM   17  N   UNL     1      -4.926   2.049 -31.107  1.00  0.00    -0.327 N 
HETATM   18  H   UNL     1      -5.113   1.880 -30.123  1.00  0.00     0.169 HD
HETATM   19  O   UNL     1      -4.898   4.219 -30.515  1.00  0.00    -0.273 OA
BRANCH  17  20
HETATM   20  C   UNL     1      -4.788   0.897 -31.908  1.00  0.00     0.040 A 
HETATM   21  C   UNL     1      -5.931   0.110 -32.162  1.00  0.00    -0.035 A 
HETATM   22  C   UNL     1      -7.298   0.478 -31.649  1.00  0.00     0.050 C 
HETATM   23  C   UNL     1      -5.805  -1.061 -32.931  1.00  0.00     0.009 A 
HETATM   24  C   UNL     1      -4.569  -1.454 -33.437  1.00  0.00     0.001 A 
HETATM   25  C   UNL     1      -3.440  -0.692 -33.167  1.00  0.00     0.002 A 
HETATM   26  C   UNL     1      -3.547   0.472 -32.400  1.00  0.00     0.030 A 
ENDBRANCH  17  20
ENDBRANCH  15  16
ENDBRANCH   1  15
TORSDOF 3
ENDMDL
MODEL 6
REMARK VINA RESULT:      -7.5      2.798      4.258
REMARK  3 active torsions:
REMARK  status: ('A' for Active; 'I' for Inactive)
REMARK    1  A    between atoms: C_3  and  N_4 
REMARK       I    between atoms: N_4  and  C_5 
REMARK    2  A    between atoms: C_5  and  C_6 
REMARK    3  A    between atoms: C_6  and  C_7 
ROOT
HETATM    1  C   UNL     1      -6.043   3.516 -34.016  1.00  0.00     0.286 C 
HETATM    2  N   UNL     1      -4.665   3.377 -33.380  1.00  0.00    -0.056 N 
HETATM    3  H   UNL     1      -4.835   3.257 -32.358  1.00  0.00     0.278 HD
HETATM    4  H   UNL     1      -4.208   2.513 -33.694  1.00  0.00     0.278 HD
HETATM    5  C   UNL     1      -3.794   4.581 -33.634  1.00  0.00     0.209 C 
HETATM    6  C   UNL     1      -4.496   5.842 -33.065  1.00  0.00     0.115 C 
HETATM    7  N   UNL     1      -5.885   5.949 -33.511  1.00  0.00    -0.353 N 
HETATM    8  C   UNL     1      -6.717   4.873 -33.710  1.00  0.00     0.249 C 
HETATM    9  O   UNL     1      -7.932   5.032 -33.741  1.00  0.00    -0.271 OA
HETATM   10  C   UNL     1      -2.411   4.345 -33.029  1.00  0.00     0.035 C 
HETATM   11  C   UNL     1      -2.402   4.412 -31.504  1.00  0.00     0.002 C 
HETATM   12  C   UNL     1      -3.021   5.711 -31.000  1.00  0.00     0.002 C 
HETATM   13  C   UNL     1      -4.437   5.902 -31.530  1.00  0.00     0.027 C 
HETATM   14  H   UNL     1      -6.384   6.816 -33.324  1.00  0.00     0.163 HD
ENDROOT
BRANCH   1  15
HETATM   15  C   UNL     1      -6.951   2.341 -33.635  1.00  0.00     0.146 C 
BRANCH  15  16
HETATM   16  C   UNL     1      -6.579   1.823 -32.266  1.00  0.00     0.224 C 
HETATM   17  N   UNL     1      -6.280   0.515 -32.050  1.00  0.00    -0.327 N 
HETATM   18  H   UNL     1      -6.271   0.273 -31.064  1.00  0.00     0.169 HD
HETATM   19  O   UNL     1      -6.573   2.622 -31.319  1.00  0.00    -0.273 OA
BRANCH  17  20
HETATM   20  C   UNL     1      -6.054  -0.554 -32.942  1.00  0.00     0.040 A 
HETATM   21  C   UNL     1      -4.723  -0.918 -33.237  1.00  0.00    -0.035 A 
HETATM   22  C   UNL     1      -3.538  -0.239 -32.601  1.00  0.00     0.050 C 
HETATM   23  C   UNL     1      -4.479  -1.960 -34.150  1.00  0.00     0.009 A 
HETATM   24  C   UNL     1      -5.531  -2.629 -34.768  1.00  0.00     0.001 A 
HETATM   25  C   UNL     1      -6.840  -2.255 -34.496  1.00  0.00     0.002 A 
HETATM   26  C   UNL     1      -7.100  -1.219 -33.595  1.00  0.00     0.030 A 
ENDBRANCH  17  20
ENDBRANCH  15  16
ENDBRANCH   1  15
TORSDOF 3
ENDMDL
MODEL 7
REMARK VINA RESULT:      -7.5      3.600      6.919
REMARK  3 active torsions:
REMARK  status: ('A' for Active; 'I' for Inactive)
REMARK    1  A    between atoms: C_3  and  N_4 
REMARK       I    between atoms: N_4  and  C_5 
REMARK    2  A    between atoms: C_5  and  C_6 
REMARK    3  A    between atoms: C_6  and  C_7 
ROOT
HETATM    1  C   UNL     1      -6.575   3.099 -32.372  1.00  0.00     0.286 C 
HETATM    2  N   UNL     1      -6.070   1.663 -32.441  1.00  0.00    -0.056 N 
HETATM    3  H   UNL     1      -5.432   1.626 -33.265  1.00  0.00     0.278 HD
HETATM    4  H   UNL     1      -5.489   1.445 -31.623  1.00  0.00     0.278 HD
HETATM    5  C   UNL     1      -7.193   0.669 -32.596  1.00  0.00     0.209 C 
HETATM    6  C   UNL     1      -7.984   0.997 -33.890  1.00  0.00     0.115 C 
HETATM    7  N   UNL     1      -8.361   2.409 -33.963  1.00  0.00    -0.353 N 
HETATM    8  C   UNL     1      -7.586   3.440 -33.490  1.00  0.00     0.249 C 
HETATM    9  O   UNL     1      -7.781   4.586 -33.882  1.00  0.00    -0.271 OA
HETATM   10  C   UNL     1      -6.623  -0.748 -32.590  1.00  0.00     0.035 C 
HETATM   11  C   UNL     1      -5.869  -1.099 -33.870  1.00  0.00     0.002 C 
HETATM   12  C   UNL     1      -6.723  -0.844 -35.106  1.00  0.00     0.002 C 
HETATM   13  C   UNL     1      -7.217   0.598 -35.161  1.00  0.00     0.027 C 
HETATM   14  H   UNL     1      -9.014   2.694 -34.690  1.00  0.00     0.163 HD
ENDROOT
BRANCH   1  15
HETATM   15  C   UNL     1      -5.411   4.096 -32.345  1.00  0.00     0.146 C 
BRANCH  15  16
HETATM   16  C   UNL     1      -4.433   3.720 -31.258  1.00  0.00     0.224 C 
HETATM   17  N   UNL     1      -3.113   4.031 -31.341  1.00  0.00    -0.327 N 
HETATM   18  H   UNL     1      -2.549   3.528 -30.662  1.00  0.00     0.169 HD
HETATM   19  O   UNL     1      -4.858   3.089 -30.280  1.00  0.00    -0.273 OA
BRANCH  17  20
HETATM   20  C   UNL     1      -2.399   4.860 -32.232  1.00  0.00     0.040 A 
HETATM   21  C   UNL     1      -1.995   6.137 -31.788  1.00  0.00    -0.035 A 
HETATM   22  C   UNL     1      -2.256   6.629 -30.389  1.00  0.00     0.050 C 
HETATM   23  C   UNL     1      -1.312   6.990 -32.674  1.00  0.00     0.009 A 
HETATM   24  C   UNL     1      -1.037   6.592 -33.980  1.00  0.00     0.001 A 
HETATM   25  C   UNL     1      -1.456   5.345 -34.422  1.00  0.00     0.002 A 
HETATM   26  C   UNL     1      -2.140   4.487 -33.557  1.00  0.00     0.030 A 
ENDBRANCH  17  20
ENDBRANCH  15  16
ENDBRANCH   1  15
TORSDOF 3
ENDMDL
MODEL 8
REMARK VINA RESULT:      -7.4      3.543      7.398
REMARK  3 active torsions:
REMARK  status: ('A' for Active; 'I' for Inactive)
REMARK    1  A    between atoms: C_3  and  N_4 
REMARK       I    between atoms: N_4  and  C_5 
REMARK    2  A    between atoms: C_5  and  C_6 
REMARK    3  A    between atoms: C_6  and  C_7 
ROOT
HETATM    1  C   UNL     1      -5.189   3.056 -32.717  1.00  0.00     0.286 C 
HETATM    2  N   UNL     1      -5.240   1.533 -32.669  1.00  0.00    -0.056 N 
HETATM    3  H   UNL     1      -4.764   1.205 -33.537  1.00  0.00     0.278 HD
HETATM    4  H   UNL     1      -4.677   1.178 -31.887  1.00  0.00     0.278 HD
HETATM    5  C   UNL     1      -6.652   1.010 -32.610  1.00  0.00     0.209 C 
HETATM    6  C   UNL     1      -7.429   1.509 -33.856  1.00  0.00     0.115 C 
HETATM    7  N   UNL     1      -7.286   2.951 -34.054  1.00  0.00    -0.353 N 
HETATM    8  C   UNL     1      -6.143   3.660 -33.772  1.00  0.00     0.249 C 
HETATM    9  O   UNL     1      -5.966   4.765 -34.271  1.00  0.00    -0.271 OA
HETATM   10  C   UNL     1      -6.626  -0.513 -32.495  1.00  0.00     0.035 C 
HETATM   11  C   UNL     1      -6.212  -1.208 -33.789  1.00  0.00     0.002 C 
HETATM   12  C   UNL     1      -7.066  -0.749 -34.965  1.00  0.00     0.002 C 
HETATM   13  C   UNL     1      -7.019   0.766 -35.137  1.00  0.00     0.027 C 
HETATM   14  H   UNL     1      -7.881   3.402 -34.747  1.00  0.00     0.163 HD
ENDROOT
BRANCH   1  15
HETATM   15  C   UNL     1      -3.753   3.557 -32.908  1.00  0.00     0.146 C 
BRANCH  15  16
HETATM   16  C   UNL     1      -2.957   3.341 -31.643  1.00  0.00     0.224 C 
HETATM   17  N   UNL     1      -2.269   4.349 -31.047  1.00  0.00    -0.327 N 
HETATM   18  H   UNL     1      -1.613   4.015 -30.348  1.00  0.00     0.169 HD
HETATM   19  O   UNL     1      -2.923   2.200 -31.160  1.00  0.00    -0.273 OA
BRANCH  17  20
HETATM   20  C   UNL     1      -2.261   5.741 -31.275  1.00  0.00     0.040 A 
HETATM   21  C   UNL     1      -3.332   6.514 -30.776  1.00  0.00    -0.035 A 
HETATM   22  C   UNL     1      -4.456   5.916 -29.972  1.00  0.00     0.050 C 
HETATM   23  C   UNL     1      -3.357   7.898 -31.023  1.00  0.00     0.009 A 
HETATM   24  C   UNL     1      -2.345   8.511 -31.756  1.00  0.00     0.001 A 
HETATM   25  C   UNL     1      -1.305   7.747 -32.268  1.00  0.00     0.002 A 
HETATM   26  C   UNL     1      -1.267   6.370 -32.035  1.00  0.00     0.030 A 
ENDBRANCH  17  20
ENDBRANCH  15  16
ENDBRANCH   1  15
TORSDOF 3
ENDMDL
MODEL 9
REMARK VINA RESULT:      -7.3      6.455      8.672
REMARK  3 active torsions:
REMARK  status: ('A' for Active; 'I' for Inactive)
REMARK    1  A    between atoms: C_3  and  N_4 
REMARK       I    between atoms: N_4  and  C_5 
REMARK    2  A    between atoms: C_5  and  C_6 
REMARK    3  A    between atoms: C_6  and  C_7 
ROOT
HETATM    1  C   UNL     1      -0.876   6.294 -30.444  1.00  0.00     0.286 C 
HETATM    2  N   UNL     1      -1.045   7.593 -29.664  1.00  0.00    -0.056 N 
HETATM    3  H   UNL     1      -0.179   8.146 -29.843  1.00  0.00     0.278 HD
HETATM    4  H   UNL     1      -1.819   8.147 -30.048  1.00  0.00     0.278 HD
HETATM    5  C   UNL     1      -1.222   7.353 -28.186  1.00  0.00     0.209 C 
HETATM    6  C   UNL     1       0.014   6.588 -27.646  1.00  0.00     0.115 C 
HETATM    7  N   UNL     1       0.331   5.410 -28.454  1.00  0.00    -0.353 N 
HETATM    8  C   UNL     1       0.167   5.343 -29.817  1.00  0.00     0.249 C 
HETATM    9  O   UNL     1       0.760   4.488 -30.465  1.00  0.00    -0.271 OA
HETATM   10  C   UNL     1      -1.453   8.687 -27.479  1.00  0.00     0.035 C 
HETATM   11  C   UNL     1      -0.196   9.547 -27.389  1.00  0.00     0.002 C 
HETATM   12  C   UNL     1       0.963   8.776 -26.769  1.00  0.00     0.002 C 
HETATM   13  C   UNL     1       1.255   7.487 -27.531  1.00  0.00     0.027 C 
HETATM   14  H   UNL     1       1.022   4.754 -28.096  1.00  0.00     0.163 HD
ENDROOT
BRANCH   1  15
HETATM   15  C   UNL     1      -0.568   6.570 -31.920  1.00  0.00     0.146 C 
BRANCH  15  16
HETATM   16  C   UNL     1      -1.757   7.223 -32.583  1.00  0.00     0.224 C 
HETATM   17  N   UNL     1      -2.904   6.538 -32.834  1.00  0.00    -0.327 N 
HETATM   18  H   UNL     1      -3.521   7.030 -33.474  1.00  0.00     0.169 HD
HETATM   19  O   UNL     1      -1.660   8.410 -32.924  1.00  0.00    -0.273 OA
BRANCH  17  20
HETATM   20  C   UNL     1      -3.343   5.263 -32.422  1.00  0.00     0.040 A 
HETATM   21  C   UNL     1      -4.246   5.176 -31.341  1.00  0.00    -0.035 A 
HETATM   22  C   UNL     1      -4.792   6.393 -30.642  1.00  0.00     0.050 C 
HETATM   23  C   UNL     1      -4.669   3.910 -30.896  1.00  0.00     0.009 A 
HETATM   24  C   UNL     1      -4.204   2.747 -31.503  1.00  0.00     0.001 A 
HETATM   25  C   UNL     1      -3.297   2.833 -32.551  1.00  0.00     0.002 A 
HETATM   26  C   UNL     1      -2.863   4.082 -33.003  1.00  0.00     0.030 A 
ENDBRANCH  17  20
ENDBRANCH  15  16
ENDBRANCH   1  15
TORSDOF 3
ENDMDL
MODEL 10
REMARK VINA RESULT:      -7.3      3.476      6.733
REMARK  3 active torsions:
REMARK  status: ('A' for Active; 'I' for Inactive)
REMARK    1  A    between atoms: C_3  and  N_4 
REMARK       I    between atoms: N_4  and  C_5 
REMARK    2  A    between atoms: C_5  and  C_6 
REMARK    3  A    between atoms: C_6  and  C_7 
ROOT
HETATM    1  C   UNL     1      -5.512   2.199 -31.378  1.00  0.00     0.286 C 
HETATM    2  N   UNL     1      -5.689   1.422 -32.677  1.00  0.00    -0.056 N 
HETATM    3  H   UNL     1      -6.042   2.112 -33.374  1.00  0.00     0.278 HD
HETATM    4  H   UNL     1      -4.781   1.101 -33.032  1.00  0.00     0.278 HD
HETATM    5  C   UNL     1      -6.657   0.275 -32.530  1.00  0.00     0.209 C 
HETATM    6  C   UNL     1      -8.032   0.829 -32.074  1.00  0.00     0.115 C 
HETATM    7  N   UNL     1      -7.912   1.720 -30.920  1.00  0.00    -0.353 N 
HETATM    8  C   UNL     1      -6.854   2.572 -30.708  1.00  0.00     0.249 C 
HETATM    9  O   UNL     1      -6.971   3.517 -29.937  1.00  0.00    -0.271 OA
HETATM   10  C   UNL     1      -6.733  -0.498 -33.846  1.00  0.00     0.035 C 
HETATM   11  C   UNL     1      -7.482   0.254 -34.943  1.00  0.00     0.002 C 
HETATM   12  C   UNL     1      -8.862   0.697 -34.472  1.00  0.00     0.002 C 
HETATM   13  C   UNL     1      -8.779   1.547 -33.208  1.00  0.00     0.027 C 
HETATM   14  H   UNL     1      -8.765   2.010 -30.446  1.00  0.00     0.163 HD
ENDROOT
BRANCH   1  15
HETATM   15  C   UNL     1      -4.627   3.433 -31.586  1.00  0.00     0.146 C 
BRANCH  15  16
HETATM   16  C   UNL     1      -3.170   3.042 -31.520  1.00  0.00     0.224 C 
HETATM   17  N   UNL     1      -2.176   3.934 -31.766  1.00  0.00    -0.327 N 
HETATM   18  H   UNL     1      -1.274   3.487 -31.905  1.00  0.00     0.169 HD
HETATM   19  O   UNL     1      -2.891   1.864 -31.256  1.00  0.00    -0.273 OA
BRANCH  17  20
HETATM   20  C   UNL     1      -2.192   5.336 -31.925  1.00  0.00     0.040 A 
HETATM   21  C   UNL     1      -2.014   5.870 -33.219  1.00  0.00    -0.035 A 
HETATM   22  C   UNL     1      -1.854   5.002 -34.439  1.00  0.00     0.050 C 
HETATM   23  C   UNL     1      -1.994   7.266 -33.391  1.00  0.00     0.009 A 
HETATM   24  C   UNL     1      -2.141   8.123 -32.304  1.00  0.00     0.001 A 
HETATM   25  C   UNL     1      -2.292   7.596 -31.028  1.00  0.00     0.002 A 
HETATM   26  C   UNL     1      -2.309   6.211 -30.839  1.00  0.00     0.030 A 
ENDBRANCH  17  20
ENDBRANCH  15  16
ENDBRANCH   1  15
TORSDOF 3
ENDMDL
