MODEL 1
REMARK VINA RESULT:      -8.9      0.000      0.000
REMARK  5 active torsions:
REMARK  status: ('A' for Active; 'I' for Inactive)
REMARK    1  A    between atoms: O_2  and  C_3 
REMARK    2  A    between atoms: C_4  and  C_5 
REMARK    3  A    between atoms: C_5  and  C_6 
REMARK       I    between atoms: C_6  and  N_7 
REMARK    4  A    between atoms: N_7  and  C_8 
REMARK    5  A    between atoms: C_9  and  O_10 
ROOT
HETATM    1  C   UNL     1      -4.697   1.669 -32.854  1.00  0.00     0.071 A 
HETATM    2  C   UNL     1      -5.976   1.537 -33.429  1.00  0.00     0.096 A 
HETATM    3  C   UNL     1      -6.464   0.301 -33.877  1.00  0.00     0.054 A 
HETATM    4  C   UNL     1      -5.617  -0.816 -33.804  1.00  0.00     0.014 A 
HETATM    5  C   UNL     1      -4.334  -0.645 -33.293  1.00  0.00     0.089 A 
HETATM    6  O   UNL     1      -3.657  -1.828 -33.309  1.00  0.00    -0.309 OA
HETATM    7  C   UNL     1      -4.499  -2.764 -33.830  1.00  0.00     0.087 A 
HETATM    8  C   UNL     1      -5.723  -2.191 -34.159  1.00  0.00     0.011 A 
HETATM    9  C   UNL     1      -4.196  -4.111 -34.018  1.00  0.00     0.038 A 
HETATM   10  C   UNL     1      -5.201  -4.909 -34.577  1.00  0.00     0.003 A 
HETATM   11  C   UNL     1      -6.442  -4.369 -34.927  1.00  0.00     0.001 A 
HETATM   12  C   UNL     1      -6.720  -3.010 -34.724  1.00  0.00     0.015 A 
HETATM   13  C   UNL     1      -3.827   0.571 -32.828  1.00  0.00     0.070 A 
ENDROOT
BRANCH   1  14
HETATM   14  N   UNL     1      -4.216   2.906 -32.371  1.00  0.00    -0.324 N 
HETATM   15  C   UNL     1      -4.559   3.434 -31.137  1.00  0.00     0.226 C 
HETATM   16  O   UNL     1      -5.045   2.795 -30.205  1.00  0.00    -0.273 OA
HETATM   17  H   UNL     1      -3.392   3.302 -32.811  1.00  0.00     0.169 HD
BRANCH  15  18
HETATM   18  C   UNL     1      -4.342   4.929 -31.016  1.00  0.00     0.144 C 
BRANCH  18  19
HETATM   19  C   UNL     1      -3.157   5.487 -31.762  1.00  0.00    -0.016 A 
HETATM   20  C   UNL     1      -3.277   5.983 -33.067  1.00  0.00     0.074 A 
HETATM   21  C   UNL     1      -2.176   6.516 -33.739  1.00  0.00     0.037 A 
HETATM   22  C   UNL     1      -0.942   6.591 -33.096  1.00  0.00     0.003 A 
HETATM   23  C   UNL     1      -0.805   6.105 -31.797  1.00  0.00     0.001 A 
HETATM   24  C   UNL     1      -1.903   5.549 -31.136  1.00  0.00     0.010 A 
BRANCH  20  25
HETATM   25  O   UNL     1      -4.472   5.854 -33.726  1.00  0.00    -0.355 OA
HETATM   26  C   UNL     1      -4.298   5.112 -34.935  1.00  0.00     0.210 C 
ENDBRANCH  20  25
ENDBRANCH  18  19
ENDBRANCH  15  18
ENDBRANCH   1  14
BRANCH   2  27
HETATM   27  O   UNL     1      -6.791   2.625 -33.641  1.00  0.00    -0.354 OA
HETATM   28  C   UNL     1      -7.886   2.602 -32.724  1.00  0.00     0.210 C 
ENDBRANCH   2  27
TORSDOF 5
ENDMDL
MODEL 2
REMARK VINA RESULT:      -8.8      1.334      2.169
REMARK  5 active torsions:
REMARK  status: ('A' for Active; 'I' for Inactive)
REMARK    1  A    between atoms: O_2  and  C_3 
REMARK    2  A    between atoms: C_4  and  C_5 
REMARK    3  A    between atoms: C_5  and  C_6 
REMARK       I    between atoms: C_6  and  N_7 
REMARK    4  A    between atoms: N_7  and  C_8 
REMARK    5  A    between atoms: C_9  and  O_10 
ROOT
HETATM    1  C   UNL     1      -6.328   1.727 -33.453  1.00  0.00     0.071 A 
HETATM    2  C   UNL     1      -7.485   1.197 -34.056  1.00  0.00     0.096 A 
HETATM    3  C   UNL     1      -7.588  -0.158 -34.401  1.00  0.00     0.054 A 
HETATM    4  C   UNL     1      -6.473  -0.985 -34.194  1.00  0.00     0.014 A 
HETATM    5  C   UNL     1      -5.319  -0.422 -33.658  1.00  0.00     0.089 A 
HETATM    6  O   UNL     1      -4.344  -1.368 -33.539  1.00  0.00    -0.309 OA
HETATM    7  C   UNL     1      -4.865  -2.541 -33.997  1.00  0.00     0.087 A 
HETATM    8  C   UNL     1      -6.177  -2.360 -34.420  1.00  0.00     0.011 A 
HETATM    9  C   UNL     1      -4.193  -3.761 -34.047  1.00  0.00     0.038 A 
HETATM   10  C   UNL     1      -4.906  -4.850 -34.561  1.00  0.00     0.003 A 
HETATM   11  C   UNL     1      -6.225  -4.707 -35.002  1.00  0.00     0.001 A 
HETATM   12  C   UNL     1      -6.876  -3.467 -34.938  1.00  0.00     0.015 A 
HETATM   13  C   UNL     1      -5.193   0.920 -33.294  1.00  0.00     0.070 A 
ENDROOT
BRANCH   1  14
HETATM   14  N   UNL     1      -6.233   3.084 -33.073  1.00  0.00    -0.324 N 
HETATM   15  C   UNL     1      -5.664   4.066 -33.869  1.00  0.00     0.226 C 
HETATM   16  O   UNL     1      -5.464   3.967 -35.078  1.00  0.00    -0.273 OA
HETATM   17  H   UNL     1      -6.828   3.411 -32.320  1.00  0.00     0.169 HD
BRANCH  15  18
HETATM   18  C   UNL     1      -5.232   5.307 -33.114  1.00  0.00     0.144 C 
BRANCH  18  19
HETATM   19  C   UNL     1      -3.748   5.463 -32.897  1.00  0.00    -0.016 A 
HETATM   20  C   UNL     1      -3.052   4.670 -31.975  1.00  0.00     0.074 A 
HETATM   21  C   UNL     1      -1.674   4.809 -31.799  1.00  0.00     0.037 A 
HETATM   22  C   UNL     1      -0.967   5.727 -32.573  1.00  0.00     0.003 A 
HETATM   23  C   UNL     1      -1.642   6.523 -33.498  1.00  0.00     0.001 A 
HETATM   24  C   UNL     1      -3.025   6.398 -33.653  1.00  0.00     0.010 A 
BRANCH  20  25
HETATM   25  O   UNL     1      -3.752   3.812 -31.167  1.00  0.00    -0.355 OA
HETATM   26  C   UNL     1      -3.178   2.503 -31.213  1.00  0.00     0.210 C 
ENDBRANCH  20  25
ENDBRANCH  18  19
ENDBRANCH  15  18
ENDBRANCH   1  14
BRANCH   2  27
HETATM   27  O   UNL     1      -8.553   1.994 -34.397  1.00  0.00    -0.354 OA
HETATM   28  C   UNL     1      -9.779   1.321 -34.106  1.00  0.00     0.210 C 
ENDBRANCH   2  27
TORSDOF 5
ENDMDL
MODEL 3
REMARK VINA RESULT:      -8.7      1.709      7.622
REMARK  5 active torsions:
REMARK  status: ('A' for Active; 'I' for Inactive)
REMARK    1  A    between atoms: O_2  and  C_3 
REMARK    2  A    between atoms: C_4  and  C_5 
REMARK    3  A    between atoms: C_5  and  C_6 
REMARK       I    between atoms: C_6  and  N_7 
REMARK    4  A    between atoms: N_7  and  C_8 
REMARK    5  A    between atoms: C_9  and  O_10 
ROOT
HETATM    1  C   UNL     1      -4.990   2.945 -33.053  1.00  0.00     0.071 A 
HETATM    2  C   UNL     1      -5.202   4.214 -33.627  1.00  0.00     0.096 A 
HETATM    3  C   UNL     1      -4.277   5.257 -33.484  1.00  0.00     0.054 A 
HETATM    4  C   UNL     1      -3.141   5.037 -32.688  1.00  0.00     0.014 A 
HETATM    5  C   UNL     1      -2.989   3.796 -32.078  1.00  0.00     0.089 A 
HETATM    6  O   UNL     1      -1.841   3.770 -31.342  1.00  0.00    -0.309 OA
HETATM    7  C   UNL     1      -1.252   4.992 -31.474  1.00  0.00     0.087 A 
HETATM    8  C   UNL     1      -2.017   5.816 -32.292  1.00  0.00     0.011 A 
HETATM    9  C   UNL     1      -0.054   5.382 -30.880  1.00  0.00     0.038 A 
HETATM   10  C   UNL     1       0.378   6.688 -31.136  1.00  0.00     0.003 A 
HETATM   11  C   UNL     1      -0.365   7.549 -31.948  1.00  0.00     0.001 A 
HETATM   12  C   UNL     1      -1.567   7.128 -32.534  1.00  0.00     0.015 A 
HETATM   13  C   UNL     1      -3.888   2.735 -32.213  1.00  0.00     0.070 A 
ENDROOT
BRANCH   1  14
HETATM   14  N   UNL     1      -5.903   1.882 -33.223  1.00  0.00    -0.324 N 
HETATM   15  C   UNL     1      -6.826   1.500 -32.261  1.00  0.00     0.226 C 
HETATM   16  O   UNL     1      -7.181   2.193 -31.309  1.00  0.00    -0.273 OA
HETATM   17  H   UNL     1      -6.081   1.552 -34.166  1.00  0.00     0.169 HD
BRANCH  15  18
HETATM   18  C   UNL     1      -7.354   0.090 -32.429  1.00  0.00     0.144 C 
BRANCH  18  19
HETATM   19  C   UNL     1      -6.446  -0.874 -33.150  1.00  0.00    -0.016 A 
HETATM   20  C   UNL     1      -5.177  -1.200 -32.653  1.00  0.00     0.074 A 
HETATM   21  C   UNL     1      -4.354  -2.111 -33.318  1.00  0.00     0.037 A 
HETATM   22  C   UNL     1      -4.809  -2.735 -34.478  1.00  0.00     0.003 A 
HETATM   23  C   UNL     1      -6.070  -2.425 -34.985  1.00  0.00     0.001 A 
HETATM   24  C   UNL     1      -6.881  -1.495 -34.330  1.00  0.00     0.010 A 
BRANCH  20  25
HETATM   25  O   UNL     1      -4.701  -0.542 -31.549  1.00  0.00    -0.355 OA
HETATM   26  C   UNL     1      -3.280  -0.673 -31.464  1.00  0.00     0.210 C 
ENDBRANCH  20  25
ENDBRANCH  18  19
ENDBRANCH  15  18
ENDBRANCH   1  14
BRANCH   2  27
HETATM   27  O   UNL     1      -6.360   4.517 -34.306  1.00  0.00    -0.354 OA
HETATM   28  C   UNL     1      -7.233   5.278 -33.470  1.00  0.00     0.210 C 
ENDBRANCH   2  27
TORSDOF 5
ENDMDL
MODEL 4
REMARK VINA RESULT:      -8.7      3.662      7.053
REMARK  5 active torsions:
REMARK  status: ('A' for Active; 'I' for Inactive)
REMARK    1  A    between atoms: O_2  and  C_3 
REMARK    2  A    between atoms: C_4  and  C_5 
REMARK    3  A    between atoms: C_5  and  C_6 
REMARK       I    between atoms: C_6  and  N_7 
REMARK    4  A    between atoms: N_7  and  C_8 
REMARK    5  A    between atoms: C_9  and  O_10 
ROOT
HETATM    1  C   UNL     1      -7.689   0.793 -34.405  1.00  0.00     0.071 A 
HETATM    2  C   UNL     1      -6.516   1.063 -33.673  1.00  0.00     0.096 A 
HETATM    3  C   UNL     1      -5.541   0.081 -33.446  1.00  0.00     0.054 A 
HETATM    4  C   UNL     1      -5.785  -1.221 -33.911  1.00  0.00     0.014 A 
HETATM    5  C   UNL     1      -6.981  -1.476 -34.573  1.00  0.00     0.089 A 
HETATM    6  O   UNL     1      -7.047  -2.788 -34.940  1.00  0.00    -0.309 OA
HETATM    7  C   UNL     1      -5.896  -3.381 -34.515  1.00  0.00     0.087 A 
HETATM    8  C   UNL     1      -5.082  -2.458 -33.867  1.00  0.00     0.011 A 
HETATM    9  C   UNL     1      -5.563  -4.723 -34.692  1.00  0.00     0.038 A 
HETATM   10  C   UNL     1      -4.332  -5.137 -34.173  1.00  0.00     0.003 A 
HETATM   11  C   UNL     1      -3.487  -4.241 -33.510  1.00  0.00     0.001 A 
HETATM   12  C   UNL     1      -3.848  -2.896 -33.348  1.00  0.00     0.015 A 
HETATM   13  C   UNL     1      -7.964  -0.516 -34.824  1.00  0.00     0.070 A 
ENDROOT
BRANCH   1  14
HETATM   14  N   UNL     1      -8.657   1.788 -34.665  1.00  0.00    -0.324 N 
HETATM   15  C   UNL     1      -9.697   2.092 -33.801  1.00  0.00     0.226 C 
HETATM   16  O   UNL     1      -9.739   1.785 -32.611  1.00  0.00    -0.273 OA
HETATM   17  H   UNL     1      -8.447   2.485 -35.371  1.00  0.00     0.169 HD
BRANCH  15  18
HETATM   18  C   UNL     1     -10.861   2.811 -34.454  1.00  0.00     0.144 C 
BRANCH  18  19
HETATM   19  C   UNL     1     -12.236   2.345 -34.048  1.00  0.00    -0.016 A 
HETATM   20  C   UNL     1     -12.994   3.036 -33.093  1.00  0.00     0.074 A 
HETATM   21  C   UNL     1     -14.275   2.607 -32.741  1.00  0.00     0.037 A 
HETATM   22  C   UNL     1     -14.828   1.493 -33.370  1.00  0.00     0.003 A 
HETATM   23  C   UNL     1     -14.091   0.795 -34.324  1.00  0.00     0.001 A 
HETATM   24  C   UNL     1     -12.799   1.213 -34.656  1.00  0.00     0.010 A 
BRANCH  20  25
HETATM   25  O   UNL     1     -12.430   4.093 -32.427  1.00  0.00    -0.355 OA
HETATM   26  C   UNL     1     -12.792   4.062 -31.044  1.00  0.00     0.210 C 
ENDBRANCH  20  25
ENDBRANCH  18  19
ENDBRANCH  15  18
ENDBRANCH   1  14
BRANCH   2  27
HETATM   27  O   UNL     1      -6.294   2.288 -33.088  1.00  0.00    -0.354 OA
HETATM   28  C   UNL     1      -5.931   2.117 -31.717  1.00  0.00     0.210 C 
ENDBRANCH   2  27
TORSDOF 5
ENDMDL
MODEL 5
REMARK VINA RESULT:      -8.1      2.326      3.490
REMARK  5 active torsions:
REMARK  status: ('A' for Active; 'I' for Inactive)
REMARK    1  A    between atoms: O_2  and  C_3 
REMARK    2  A    between atoms: C_4  and  C_5 
REMARK    3  A    between atoms: C_5  and  C_6 
REMARK       I    between atoms: C_6  and  N_7 
REMARK    4  A    between atoms: N_7  and  C_8 
REMARK    5  A    between atoms: C_9  and  O_10 
ROOT
HETATM    1  C   UNL     1      -3.713   2.781 -31.869  1.00  0.00     0.071 A 
HETATM    2  C   UNL     1      -4.990   3.081 -32.381  1.00  0.00     0.096 A 
HETATM    3  C   UNL     1      -5.789   2.109 -33.001  1.00  0.00     0.054 A 
HETATM    4  C   UNL     1      -5.259   0.819 -33.167  1.00  0.00     0.014 A 
HETATM    5  C   UNL     1      -3.970   0.567 -32.711  1.00  0.00     0.089 A 
HETATM    6  O   UNL     1      -3.623  -0.727 -32.966  1.00  0.00    -0.309 OA
HETATM    7  C   UNL     1      -4.687  -1.311 -33.586  1.00  0.00     0.087 A 
HETATM    8  C   UNL     1      -5.724  -0.398 -33.741  1.00  0.00     0.011 A 
HETATM    9  C   UNL     1      -4.746  -2.636 -34.017  1.00  0.00     0.038 A 
HETATM   10  C   UNL     1      -5.931  -3.040 -34.641  1.00  0.00     0.003 A 
HETATM   11  C   UNL     1      -6.995  -2.150 -34.820  1.00  0.00     0.001 A 
HETATM   12  C   UNL     1      -6.907  -0.824 -34.375  1.00  0.00     0.015 A 
HETATM   13  C   UNL     1      -3.158   1.512 -32.080  1.00  0.00     0.070 A 
ENDROOT
BRANCH   1  14
HETATM   14  N   UNL     1      -2.920   3.749 -31.214  1.00  0.00    -0.324 N 
HETATM   15  C   UNL     1      -1.948   4.504 -31.850  1.00  0.00     0.226 C 
HETATM   16  O   UNL     1      -1.860   4.662 -33.067  1.00  0.00    -0.273 OA
HETATM   17  H   UNL     1      -3.240   4.100 -30.317  1.00  0.00     0.169 HD
BRANCH  15  18
HETATM   18  C   UNL     1      -0.916   5.106 -30.918  1.00  0.00     0.144 C 
BRANCH  18  19
HETATM   19  C   UNL     1      -1.232   6.479 -30.382  1.00  0.00    -0.016 A 
HETATM   20  C   UNL     1      -0.785   6.897 -29.121  1.00  0.00     0.074 A 
HETATM   21  C   UNL     1      -1.066   8.179 -28.646  1.00  0.00     0.037 A 
HETATM   22  C   UNL     1      -1.773   9.075 -29.446  1.00  0.00     0.003 A 
HETATM   23  C   UNL     1      -2.223   8.677 -30.704  1.00  0.00     0.001 A 
HETATM   24  C   UNL     1      -1.961   7.385 -31.167  1.00  0.00     0.010 A 
BRANCH  20  25
HETATM   25  O   UNL     1      -0.145   6.001 -28.306  1.00  0.00    -0.355 OA
HETATM   26  C   UNL     1      -0.320   6.360 -26.933  1.00  0.00     0.210 C 
ENDBRANCH  20  25
ENDBRANCH  18  19
ENDBRANCH  15  18
ENDBRANCH   1  14
BRANCH   2  27
HETATM   27  O   UNL     1      -5.498   4.360 -32.357  1.00  0.00    -0.354 OA
HETATM   28  C   UNL     1      -5.496   4.912 -33.675  1.00  0.00     0.210 C 
ENDBRANCH   2  27
TORSDOF 5
ENDMDL
MODEL 6
REMARK VINA RESULT:      -7.8      2.470      7.690
REMARK  5 active torsions:
REMARK  status: ('A' for Active; 'I' for Inactive)
REMARK    1  A    between atoms: O_2  and  C_3 
REMARK    2  A    between atoms: C_4  and  C_5 
REMARK    3  A    between atoms: C_5  and  C_6 
REMARK       I    between atoms: C_6  and  N_7 
REMARK    4  A    between atoms: N_7  and  C_8 
REMARK    5  A    between atoms: C_9  and  O_10 
ROOT
HETATM    1  C   UNL     1      -5.567   3.493 -31.228  1.00  0.00     0.071 A 
HETATM    2  C   UNL     1      -5.810   4.764 -30.672  1.00  0.00     0.096 A 
HETATM    3  C   UNL     1      -4.795   5.720 -30.533  1.00  0.00     0.054 A 
HETATM    4  C   UNL     1      -3.488   5.363 -30.902  1.00  0.00     0.014 A 
HETATM    5  C   UNL     1      -3.263   4.079 -31.386  1.00  0.00     0.089 A 
HETATM    6  O   UNL     1      -1.942   3.910 -31.682  1.00  0.00    -0.309 OA
HETATM    7  C   UNL     1      -1.313   5.083 -31.388  1.00  0.00     0.087 A 
HETATM    8  C   UNL     1      -2.222   6.015 -30.898  1.00  0.00     0.011 A 
HETATM    9  C   UNL     1       0.048   5.335 -31.548  1.00  0.00     0.038 A 
HETATM   10  C   UNL     1       0.499   6.607 -31.180  1.00  0.00     0.003 A 
HETATM   11  C   UNL     1      -0.382   7.569 -30.676  1.00  0.00     0.001 A 
HETATM   12  C   UNL     1      -1.748   7.289 -30.529  1.00  0.00     0.015 A 
HETATM   13  C   UNL     1      -4.257   3.111 -31.547  1.00  0.00     0.070 A 
ENDROOT
BRANCH   1  14
HETATM   14  N   UNL     1      -6.594   2.539 -31.401  1.00  0.00    -0.324 N 
HETATM   15  C   UNL     1      -6.725   1.401 -30.622  1.00  0.00     0.226 C 
HETATM   16  O   UNL     1      -6.190   1.229 -29.527  1.00  0.00    -0.273 OA
HETATM   17  H   UNL     1      -7.416   2.815 -31.928  1.00  0.00     0.169 HD
BRANCH  15  18
HETATM   18  C   UNL     1      -7.559   0.305 -31.253  1.00  0.00     0.144 C 
BRANCH  18  19
HETATM   19  C   UNL     1      -6.996  -0.313 -32.508  1.00  0.00    -0.016 A 
HETATM   20  C   UNL     1      -7.711  -0.311 -33.713  1.00  0.00     0.074 A 
HETATM   21  C   UNL     1      -7.169  -0.866 -34.874  1.00  0.00     0.037 A 
HETATM   22  C   UNL     1      -5.884  -1.404 -34.849  1.00  0.00     0.003 A 
HETATM   23  C   UNL     1      -5.156  -1.412 -33.660  1.00  0.00     0.001 A 
HETATM   24  C   UNL     1      -5.711  -0.877 -32.494  1.00  0.00     0.010 A 
BRANCH  20  25
HETATM   25  O   UNL     1      -8.998   0.159 -33.728  1.00  0.00    -0.355 OA
HETATM   26  C   UNL     1      -9.057   1.437 -34.366  1.00  0.00     0.210 C 
ENDBRANCH  20  25
ENDBRANCH  18  19
ENDBRANCH  15  18
ENDBRANCH   1  14
BRANCH   2  27
HETATM   27  O   UNL     1      -7.046   5.113 -30.177  1.00  0.00    -0.354 OA
HETATM   28  C   UNL     1      -7.014   5.133 -28.749  1.00  0.00     0.210 C 
ENDBRANCH   2  27
TORSDOF 5
ENDMDL
MODEL 7
REMARK VINA RESULT:      -7.8      2.277      3.725
REMARK  5 active torsions:
REMARK  status: ('A' for Active; 'I' for Inactive)
REMARK    1  A    between atoms: O_2  and  C_3 
REMARK    2  A    between atoms: C_4  and  C_5 
REMARK    3  A    between atoms: C_5  and  C_6 
REMARK       I    between atoms: C_6  and  N_7 
REMARK    4  A    between atoms: N_7  and  C_8 
REMARK    5  A    between atoms: C_9  and  O_10 
ROOT
HETATM    1  C   UNL     1      -5.161   1.527 -32.732  1.00  0.00     0.071 A 
HETATM    2  C   UNL     1      -6.392   1.321 -33.385  1.00  0.00     0.096 A 
HETATM    3  C   UNL     1      -6.758   0.071 -33.903  1.00  0.00     0.054 A 
HETATM    4  C   UNL     1      -5.833  -0.981 -33.819  1.00  0.00     0.014 A 
HETATM    5  C   UNL     1      -4.598  -0.735 -33.229  1.00  0.00     0.089 A 
HETATM    6  O   UNL     1      -3.832  -1.863 -33.246  1.00  0.00    -0.309 OA
HETATM    7  C   UNL     1      -4.569  -2.838 -33.848  1.00  0.00     0.087 A 
HETATM    8  C   UNL     1      -5.813  -2.346 -34.227  1.00  0.00     0.011 A 
HETATM    9  C   UNL     1      -4.153  -4.150 -34.065  1.00  0.00     0.038 A 
HETATM   10  C   UNL     1      -5.061  -4.998 -34.709  1.00  0.00     0.003 A 
HETATM   11  C   UNL     1      -6.319  -4.540 -35.111  1.00  0.00     0.001 A 
HETATM   12  C   UNL     1      -6.711  -3.214 -34.877  1.00  0.00     0.015 A 
HETATM   13  C   UNL     1      -4.212   0.497 -32.693  1.00  0.00     0.070 A 
ENDROOT
BRANCH   1  14
HETATM   14  N   UNL     1      -4.804   2.776 -32.179  1.00  0.00    -0.324 N 
HETATM   15  C   UNL     1      -5.070   3.140 -30.868  1.00  0.00     0.226 C 
HETATM   16  O   UNL     1      -5.349   2.358 -29.961  1.00  0.00    -0.273 OA
HETATM   17  H   UNL     1      -4.101   3.327 -32.659  1.00  0.00     0.169 HD
BRANCH  15  18
HETATM   18  C   UNL     1      -5.052   4.635 -30.620  1.00  0.00     0.144 C 
BRANCH  18  19
HETATM   19  C   UNL     1      -6.262   5.203 -29.923  1.00  0.00    -0.016 A 
HETATM   20  C   UNL     1      -6.151   5.925 -28.727  1.00  0.00     0.074 A 
HETATM   21  C   UNL     1      -7.276   6.464 -28.102  1.00  0.00     0.037 A 
HETATM   22  C   UNL     1      -8.531   6.315 -28.690  1.00  0.00     0.003 A 
HETATM   23  C   UNL     1      -8.661   5.604 -29.881  1.00  0.00     0.001 A 
HETATM   24  C   UNL     1      -7.535   5.043 -30.491  1.00  0.00     0.010 A 
BRANCH  20  25
HETATM   25  O   UNL     1      -4.929   6.019 -28.113  1.00  0.00    -0.355 OA
HETATM   26  C   UNL     1      -4.972   6.986 -27.061  1.00  0.00     0.210 C 
ENDBRANCH  20  25
ENDBRANCH  18  19
ENDBRANCH  15  18
ENDBRANCH   1  14
BRANCH   2  27
HETATM   27  O   UNL     1      -7.276   2.353 -33.605  1.00  0.00    -0.354 OA
HETATM   28  C   UNL     1      -8.410   2.218 -32.748  1.00  0.00     0.210 C 
ENDBRANCH   2  27
TORSDOF 5
ENDMDL
MODEL 8
REMARK VINA RESULT:      -7.8      2.596      4.639
REMARK  5 active torsions:
REMARK  status: ('A' for Active; 'I' for Inactive)
REMARK    1  A    between atoms: O_2  and  C_3 
REMARK    2  A    between atoms: C_4  and  C_5 
REMARK    3  A    between atoms: C_5  and  C_6 
REMARK       I    between atoms: C_6  and  N_7 
REMARK    4  A    between atoms: N_7  and  C_8 
REMARK    5  A    between atoms: C_9  and  O_10 
ROOT
HETATM    1  C   UNL     1      -4.378   4.243 -30.913  1.00  0.00     0.071 A 
HETATM    2  C   UNL     1      -3.321   3.558 -31.543  1.00  0.00     0.096 A 
HETATM    3  C   UNL     1      -3.532   2.385 -32.282  1.00  0.00     0.054 A 
HETATM    4  C   UNL     1      -4.830   1.854 -32.331  1.00  0.00     0.014 A 
HETATM    5  C   UNL     1      -5.844   2.513 -31.644  1.00  0.00     0.089 A 
HETATM    6  O   UNL     1      -7.026   1.850 -31.796  1.00  0.00    -0.309 OA
HETATM    7  C   UNL     1      -6.778   0.763 -32.578  1.00  0.00     0.087 A 
HETATM    8  C   UNL     1      -5.434   0.713 -32.933  1.00  0.00     0.011 A 
HETATM    9  C   UNL     1      -7.723  -0.181 -32.977  1.00  0.00     0.038 A 
HETATM   10  C   UNL     1      -7.261  -1.232 -33.778  1.00  0.00     0.003 A 
HETATM   11  C   UNL     1      -5.916  -1.320 -34.151  1.00  0.00     0.001 A 
HETATM   12  C   UNL     1      -4.989  -0.354 -33.736  1.00  0.00     0.015 A 
HETATM   13  C   UNL     1      -5.665   3.689 -30.912  1.00  0.00     0.070 A 
ENDROOT
BRANCH   1  14
HETATM   14  N   UNL     1      -4.174   5.443 -30.197  1.00  0.00    -0.324 N 
HETATM   15  C   UNL     1      -4.064   6.687 -30.798  1.00  0.00     0.226 C 
HETATM   16  O   UNL     1      -4.428   6.953 -31.943  1.00  0.00    -0.273 OA
HETATM   17  H   UNL     1      -4.376   5.446 -29.203  1.00  0.00     0.169 HD
BRANCH  15  18
HETATM   18  C   UNL     1      -3.385   7.737 -29.941  1.00  0.00     0.144 C 
BRANCH  18  19
HETATM   19  C   UNL     1      -1.997   7.398 -29.459  1.00  0.00    -0.016 A 
HETATM   20  C   UNL     1      -1.752   7.017 -28.133  1.00  0.00     0.074 A 
HETATM   21  C   UNL     1      -0.466   6.684 -27.704  1.00  0.00     0.037 A 
HETATM   22  C   UNL     1       0.591   6.697 -28.612  1.00  0.00     0.003 A 
HETATM   23  C   UNL     1       0.366   7.070 -29.936  1.00  0.00     0.001 A 
HETATM   24  C   UNL     1      -0.919   7.427 -30.356  1.00  0.00     0.010 A 
BRANCH  20  25
HETATM   25  O   UNL     1      -2.775   7.064 -27.222  1.00  0.00    -0.355 OA
HETATM   26  C   UNL     1      -2.258   7.182 -25.895  1.00  0.00     0.210 C 
ENDBRANCH  20  25
ENDBRANCH  18  19
ENDBRANCH  15  18
ENDBRANCH   1  14
BRANCH   2  27
HETATM   27  O   UNL     1      -2.014   3.969 -31.415  1.00  0.00    -0.354 OA
HETATM   28  C   UNL     1      -1.607   4.681 -32.585  1.00  0.00     0.210 C 
ENDBRANCH   2  27
TORSDOF 5
ENDMDL
MODEL 9
REMARK VINA RESULT:      -7.7      2.374      3.896
REMARK  5 active torsions:
REMARK  status: ('A' for Active; 'I' for Inactive)
REMARK    1  A    between atoms: O_2  and  C_3 
REMARK    2  A    between atoms: C_4  and  C_5 
REMARK    3  A    between atoms: C_5  and  C_6 
REMARK       I    between atoms: C_6  and  N_7 
REMARK    4  A    between atoms: N_7  and  C_8 
REMARK    5  A    between atoms: C_9  and  O_10 
ROOT
HETATM    1  C   UNL     1      -3.280   3.632 -31.693  1.00  0.00     0.071 A 
HETATM    2  C   UNL     1      -4.526   4.223 -31.978  1.00  0.00     0.096 A 
HETATM    3  C   UNL     1      -5.615   3.470 -32.441  1.00  0.00     0.054 A 
HETATM    4  C   UNL     1      -5.424   2.101 -32.684  1.00  0.00     0.014 A 
HETATM    5  C   UNL     1      -4.164   1.556 -32.456  1.00  0.00     0.089 A 
HETATM    6  O   UNL     1      -4.165   0.225 -32.755  1.00  0.00    -0.309 OA
HETATM    7  C   UNL     1      -5.422  -0.090 -33.176  1.00  0.00     0.087 A 
HETATM    8  C   UNL     1      -6.240   1.034 -33.157  1.00  0.00     0.011 A 
HETATM    9  C   UNL     1      -5.848  -1.355 -33.576  1.00  0.00     0.038 A 
HETATM   10  C   UNL     1      -7.183  -1.469 -33.982  1.00  0.00     0.003 A 
HETATM   11  C   UNL     1      -8.035  -0.361 -33.983  1.00  0.00     0.001 A 
HETATM   12  C   UNL     1      -7.579   0.900 -33.572  1.00  0.00     0.015 A 
HETATM   13  C   UNL     1      -3.066   2.278 -31.984  1.00  0.00     0.070 A 
ENDROOT
BRANCH   1  14
HETATM   14  N   UNL     1      -2.190   4.381 -31.194  1.00  0.00    -0.324 N 
HETATM   15  C   UNL     1      -1.225   4.963 -32.001  1.00  0.00     0.226 C 
HETATM   16  O   UNL     1      -1.346   5.174 -33.207  1.00  0.00    -0.273 OA
HETATM   17  H   UNL     1      -2.249   4.734 -30.245  1.00  0.00     0.169 HD
BRANCH  15  18
HETATM   18  C   UNL     1       0.071   5.289 -31.287  1.00  0.00     0.144 C 
BRANCH  18  19
HETATM   19  C   UNL     1      -0.051   6.164 -30.065  1.00  0.00    -0.016 A 
HETATM   20  C   UNL     1      -0.684   7.413 -30.115  1.00  0.00     0.074 A 
HETATM   21  C   UNL     1      -0.810   8.204 -28.972  1.00  0.00     0.037 A 
HETATM   22  C   UNL     1      -0.330   7.736 -27.751  1.00  0.00     0.003 A 
HETATM   23  C   UNL     1       0.300   6.494 -27.681  1.00  0.00     0.001 A 
HETATM   24  C   UNL     1       0.447   5.716 -28.832  1.00  0.00     0.010 A 
BRANCH  20  25
HETATM   25  O   UNL     1      -1.101   7.904 -31.324  1.00  0.00    -0.355 OA
HETATM   26  C   UNL     1      -2.423   8.441 -31.218  1.00  0.00     0.210 C 
ENDBRANCH  20  25
ENDBRANCH  18  19
ENDBRANCH  15  18
ENDBRANCH   1  14
BRANCH   2  27
HETATM   27  O   UNL     1      -4.723   5.581 -31.880  1.00  0.00    -0.354 OA
HETATM   28  C   UNL     1      -5.541   6.037 -32.958  1.00  0.00     0.210 C 
ENDBRANCH   2  27
TORSDOF 5
ENDMDL
MODEL 10
REMARK VINA RESULT:      -7.6      2.011      3.407
REMARK  5 active torsions:
REMARK  status: ('A' for Active; 'I' for Inactive)
REMARK    1  A    between atoms: O_2  and  C_3 
REMARK    2  A    between atoms: C_4  and  C_5 
REMARK    3  A    between atoms: C_5  and  C_6 
REMARK       I    between atoms: C_6  and  N_7 
REMARK    4  A    between atoms: N_7  and  C_8 
REMARK    5  A    between atoms: C_9  and  O_10 
ROOT
HETATM    1  C   UNL     1      -6.274   1.774 -33.374  1.00  0.00     0.071 A 
HETATM    2  C   UNL     1      -5.035   1.394 -32.823  1.00  0.00     0.096 A 
HETATM    3  C   UNL     1      -4.525   0.096 -32.969  1.00  0.00     0.054 A 
HETATM    4  C   UNL     1      -5.313  -0.859 -33.630  1.00  0.00     0.014 A 
HETATM    5  C   UNL     1      -6.562  -0.475 -34.107  1.00  0.00     0.089 A 
HETATM    6  O   UNL     1      -7.183  -1.530 -34.707  1.00  0.00    -0.309 OA
HETATM    7  C   UNL     1      -6.339  -2.596 -34.618  1.00  0.00     0.087 A 
HETATM    8  C   UNL     1      -5.169  -2.238 -33.956  1.00  0.00     0.011 A 
HETATM    9  C   UNL     1      -6.593  -3.874 -35.111  1.00  0.00     0.038 A 
HETATM   10  C   UNL     1      -5.596  -4.835 -34.910  1.00  0.00     0.003 A 
HETATM   11  C   UNL     1      -4.408  -4.516 -34.244  1.00  0.00     0.001 A 
HETATM   12  C   UNL     1      -4.179  -3.220 -33.760  1.00  0.00     0.015 A 
HETATM   13  C   UNL     1      -7.089   0.813 -33.987  1.00  0.00     0.070 A 
ENDROOT
BRANCH   1  14
HETATM   14  N   UNL     1      -6.776   3.089 -33.258  1.00  0.00    -0.324 N 
HETATM   15  C   UNL     1      -6.222   4.182 -33.905  1.00  0.00     0.226 C 
HETATM   16  O   UNL     1      -5.460   4.121 -34.869  1.00  0.00    -0.273 OA
HETATM   17  H   UNL     1      -7.721   3.210 -32.910  1.00  0.00     0.169 HD
BRANCH  15  18
HETATM   18  C   UNL     1      -6.583   5.520 -33.291  1.00  0.00     0.144 C 
BRANCH  18  19
HETATM   19  C   UNL     1      -5.975   5.813 -31.943  1.00  0.00    -0.016 A 
HETATM   20  C   UNL     1      -6.583   5.388 -30.754  1.00  0.00     0.074 A 
HETATM   21  C   UNL     1      -5.999   5.646 -29.513  1.00  0.00     0.037 A 
HETATM   22  C   UNL     1      -4.775   6.307 -29.449  1.00  0.00     0.003 A 
HETATM   23  C   UNL     1      -4.153   6.735 -30.621  1.00  0.00     0.001 A 
HETATM   24  C   UNL     1      -4.753   6.497 -31.861  1.00  0.00     0.010 A 
BRANCH  20  25
HETATM   25  O   UNL     1      -7.817   4.793 -30.808  1.00  0.00    -0.355 OA
HETATM   26  C   UNL     1      -8.789   5.596 -30.133  1.00  0.00     0.210 C 
ENDBRANCH  20  25
ENDBRANCH  18  19
ENDBRANCH  15  18
ENDBRANCH   1  14
BRANCH   2  27
HETATM   27  O   UNL     1      -4.288   2.259 -32.057  1.00  0.00    -0.354 OA
HETATM   28  C   UNL     1      -4.702   2.187 -30.692  1.00  0.00     0.210 C 
ENDBRANCH   2  27
TORSDOF 5
ENDMDL
