MODEL 1
REMARK VINA RESULT:      -9.5      0.000      0.000
REMARK  11 active torsions:
REMARK  status: ('A' for Active; 'I' for Inactive)
REMARK    1  A    between atoms: C_2  and  N_3 
REMARK    2  A    between atoms: N_3  and  C_5 
REMARK    3  A    between atoms: N_3  and  C_12 
REMARK    4  A    between atoms: C_5  and  C_6 
REMARK    5  A    between atoms: C_12  and  C_13 
REMARK    6  A    between atoms: C_13  and  N_14 
REMARK       I    between atoms: N_14  and  C_15 
REMARK    7  A    between atoms: C_15  and  C_16 
REMARK    8  A    between atoms: C_24  and  N_25 
REMARK    9  A    between atoms: N_25  and  C_26 
REMARK   10  A    between atoms: C_27  and  O_28 
REMARK   11  A    between atoms: C_31  and  O_32 
ROOT
HETATM    1  C   UNL     1      -6.103   0.210 -32.185  1.00  0.00     0.048 A 
HETATM    2  C   UNL     1      -5.831  -0.850 -33.064  1.00  0.00     0.009 A 
HETATM    3  C   UNL     1      -6.938  -1.346 -33.775  1.00  0.00     0.070 A 
HETATM    4  C   UNL     1      -6.745  -2.405 -34.651  1.00  0.00     0.032 A 
HETATM    5  C   UNL     1      -5.490  -2.988 -34.839  1.00  0.00     0.002 A 
HETATM    6  C   UNL     1      -4.392  -2.502 -34.144  1.00  0.00     0.001 A 
HETATM    7  C   UNL     1      -4.556  -1.435 -33.262  1.00  0.00     0.015 A 
HETATM    8  N   UNL     1      -8.175  -0.836 -33.642  1.00  0.00    -0.231 NA
HETATM    9  C   UNL     1      -8.408   0.177 -32.786  1.00  0.00     0.129 A 
HETATM   10  C   UNL     1      -7.389   0.721 -32.030  1.00  0.00     0.068 A 
ENDROOT
BRANCH   1  11
HETATM   11  C   UNL     1      -5.037   0.885 -31.429  1.00  0.00     0.252 C 
HETATM   12  N   UNL     1      -4.581   2.060 -31.969  1.00  0.00    -0.355 N 
HETATM   13  H   UNL     1      -5.017   2.360 -32.839  1.00  0.00     0.162 HD
HETATM   14  O   UNL     1      -4.583   0.368 -30.416  1.00  0.00    -0.268 OA
BRANCH  12  15
HETATM   15  C   UNL     1      -3.353   2.754 -31.591  1.00  0.00     0.150 C 
BRANCH  15  16
HETATM   16  C   UNL     1      -3.301   4.293 -31.742  1.00  0.00     0.255 C 
BRANCH  16  17
HETATM   17  N   UNL     1      -2.162   4.823 -32.606  1.00  0.00    -0.062 N 
HETATM   18  H   UNL     1      -1.391   4.148 -32.415  1.00  0.00     0.280 HD
BRANCH  17  19
HETATM   19  C   UNL     1      -2.365   4.737 -34.111  1.00  0.00     0.180 C 
HETATM   20  C   UNL     1      -1.212   5.411 -34.857  1.00  0.00     0.039 C 
HETATM   21  C   UNL     1      -3.717   5.299 -34.528  1.00  0.00     0.039 C 
ENDBRANCH  17  19
BRANCH  17  22
HETATM   22  C   UNL     1      -1.647   6.158 -32.103  1.00  0.00     0.273 C 
BRANCH  22  23
HETATM   23  C   UNL     1      -0.858   6.075 -30.824  1.00  0.00    -0.033 A 
HETATM   24  C   UNL     1      -1.069   7.007 -29.795  1.00  0.00     0.009 A 
HETATM   25  C   UNL     1      -0.334   6.932 -28.611  1.00  0.00     0.001 A 
HETATM   26  C   UNL     1       0.617   5.928 -28.441  1.00  0.00     0.000 A 
HETATM   27  C   UNL     1       0.833   4.996 -29.454  1.00  0.00     0.001 A 
HETATM   28  C   UNL     1       0.101   5.066 -30.639  1.00  0.00     0.009 A 
ENDBRANCH  22  23
ENDBRANCH  17  22
ENDBRANCH  16  17
ENDBRANCH  15  16
ENDBRANCH  12  15
ENDBRANCH   1  11
BRANCH   9  29
HETATM   29  N   UNL     1      -9.694   0.726 -32.642  1.00  0.00    -0.339 N 
HETATM   30  H   UNL     1     -10.335   0.079 -32.190  1.00  0.00     0.167 HD
BRANCH  29  31
HETATM   31  C   UNL     1     -10.396   1.522 -33.574  1.00  0.00     0.067 A 
HETATM   32  C   UNL     1     -11.715   1.185 -33.920  1.00  0.00     0.097 A 
HETATM   33  C   UNL     1     -12.498   2.009 -34.733  1.00  0.00     0.075 A 
HETATM   34  C   UNL     1     -11.947   3.178 -35.255  1.00  0.00     0.070 A 
HETATM   35  C   UNL     1     -10.620   3.500 -34.958  1.00  0.00     0.039 A 
HETATM   36  C   UNL     1      -9.851   2.684 -34.122  1.00  0.00     0.035 A 
BRANCH  32  37
HETATM   37  O   UNL     1     -12.266   0.028 -33.415  1.00  0.00    -0.354 OA
HETATM   38  C   UNL     1     -13.664  -0.002 -33.719  1.00  0.00     0.210 C 
ENDBRANCH  32  37
BRANCH  34  39
HETATM   39  O   UNL     1     -12.588   4.078 -36.060  1.00  0.00    -0.356 OA
HETATM   40  C   UNL     1     -12.939   5.327 -35.475  1.00  0.00     0.210 C 
ENDBRANCH  34  39
ENDBRANCH  29  31
ENDBRANCH   9  29
TORSDOF 11
ENDMDL
MODEL 2
REMARK VINA RESULT:      -9.3      3.436      6.779
REMARK  11 active torsions:
REMARK  status: ('A' for Active; 'I' for Inactive)
REMARK    1  A    between atoms: C_2  and  N_3 
REMARK    2  A    between atoms: N_3  and  C_5 
REMARK    3  A    between atoms: N_3  and  C_12 
REMARK    4  A    between atoms: C_5  and  C_6 
REMARK    5  A    between atoms: C_12  and  C_13 
REMARK    6  A    between atoms: C_13  and  N_14 
REMARK       I    between atoms: N_14  and  C_15 
REMARK    7  A    between atoms: C_15  and  C_16 
REMARK    8  A    between atoms: C_24  and  N_25 
REMARK    9  A    between atoms: N_25  and  C_26 
REMARK   10  A    between atoms: C_27  and  O_28 
REMARK   11  A    between atoms: C_31  and  O_32 
ROOT
HETATM    1  C   UNL     1      -3.732   5.182 -31.072  1.00  0.00     0.048 A 
HETATM    2  C   UNL     1      -3.021   5.536 -32.230  1.00  0.00     0.009 A 
HETATM    3  C   UNL     1      -2.611   4.463 -33.041  1.00  0.00     0.070 A 
HETATM    4  C   UNL     1      -1.891   4.739 -34.194  1.00  0.00     0.032 A 
HETATM    5  C   UNL     1      -1.562   6.045 -34.565  1.00  0.00     0.002 A 
HETATM    6  C   UNL     1      -1.968   7.109 -33.772  1.00  0.00     0.001 A 
HETATM    7  C   UNL     1      -2.697   6.862 -32.611  1.00  0.00     0.015 A 
HETATM    8  N   UNL     1      -2.888   3.181 -32.745  1.00  0.00    -0.231 NA
HETATM    9  C   UNL     1      -3.565   2.870 -31.623  1.00  0.00     0.129 A 
HETATM   10  C   UNL     1      -3.997   3.853 -30.753  1.00  0.00     0.068 A 
ENDROOT
BRANCH   1  11
HETATM   11  C   UNL     1      -4.293   6.195 -30.165  1.00  0.00     0.252 C 
HETATM   12  N   UNL     1      -3.473   6.588 -29.138  1.00  0.00    -0.355 N 
HETATM   13  H   UNL     1      -2.556   6.149 -29.094  1.00  0.00     0.162 HD
HETATM   14  O   UNL     1      -5.439   6.593 -30.326  1.00  0.00    -0.268 OA
BRANCH  12  15
HETATM   15  C   UNL     1      -3.887   7.336 -27.953  1.00  0.00     0.150 C 
BRANCH  15  16
HETATM   16  C   UNL     1      -2.796   7.813 -26.966  1.00  0.00     0.255 C 
BRANCH  16  17
HETATM   17  N   UNL     1      -1.580   8.470 -27.608  1.00  0.00    -0.062 N 
HETATM   18  H   UNL     1      -1.799   8.423 -28.625  1.00  0.00     0.280 HD
BRANCH  17  19
HETATM   19  C   UNL     1      -1.399   9.956 -27.336  1.00  0.00     0.180 C 
HETATM   20  C   UNL     1      -1.865  10.791 -28.530  1.00  0.00     0.039 C 
HETATM   21  C   UNL     1       0.035  10.283 -26.940  1.00  0.00     0.039 C 
ENDBRANCH  17  19
BRANCH  17  22
HETATM   22  C   UNL     1      -0.329   7.630 -27.438  1.00  0.00     0.273 C 
BRANCH  22  23
HETATM   23  C   UNL     1       0.069   6.856 -28.667  1.00  0.00    -0.033 A 
HETATM   24  C   UNL     1       0.039   7.464 -29.933  1.00  0.00     0.009 A 
HETATM   25  C   UNL     1       0.404   6.745 -31.072  1.00  0.00     0.001 A 
HETATM   26  C   UNL     1       0.802   5.414 -30.959  1.00  0.00     0.000 A 
HETATM   27  C   UNL     1       0.839   4.802 -29.709  1.00  0.00     0.001 A 
HETATM   28  C   UNL     1       0.476   5.516 -28.567  1.00  0.00     0.009 A 
ENDBRANCH  22  23
ENDBRANCH  17  22
ENDBRANCH  16  17
ENDBRANCH  15  16
ENDBRANCH  12  15
ENDBRANCH   1  11
BRANCH   9  29
HETATM   29  N   UNL     1      -3.870   1.535 -31.304  1.00  0.00    -0.339 N 
HETATM   30  H   UNL     1      -3.157   1.113 -30.715  1.00  0.00     0.167 HD
BRANCH  29  31
HETATM   31  C   UNL     1      -4.429   0.556 -32.154  1.00  0.00     0.067 A 
HETATM   32  C   UNL     1      -5.813   0.555 -32.396  1.00  0.00     0.097 A 
HETATM   33  C   UNL     1      -6.399  -0.306 -33.328  1.00  0.00     0.075 A 
HETATM   34  C   UNL     1      -5.600  -1.223 -34.008  1.00  0.00     0.070 A 
HETATM   35  C   UNL     1      -4.228  -1.266 -33.741  1.00  0.00     0.039 A 
HETATM   36  C   UNL     1      -3.646  -0.382 -32.827  1.00  0.00     0.035 A 
BRANCH  32  37
HETATM   37  O   UNL     1      -6.611   1.453 -31.723  1.00  0.00    -0.354 OA
HETATM   38  C   UNL     1      -7.913   0.886 -31.544  1.00  0.00     0.210 C 
ENDBRANCH  32  37
BRANCH  34  39
HETATM   39  O   UNL     1      -6.029  -2.123 -34.944  1.00  0.00    -0.356 OA
HETATM   40  C   UNL     1      -5.438  -3.416 -34.910  1.00  0.00     0.210 C 
ENDBRANCH  34  39
ENDBRANCH  29  31
ENDBRANCH   9  29
TORSDOF 11
ENDMDL
MODEL 3
REMARK VINA RESULT:      -9.2      1.329      2.280
REMARK  11 active torsions:
REMARK  status: ('A' for Active; 'I' for Inactive)
REMARK    1  A    between atoms: C_2  and  N_3 
REMARK    2  A    between atoms: N_3  and  C_5 
REMARK    3  A    between atoms: N_3  and  C_12 
REMARK    4  A    between atoms: C_5  and  C_6 
REMARK    5  A    between atoms: C_12  and  C_13 
REMARK    6  A    between atoms: C_13  and  N_14 
REMARK       I    between atoms: N_14  and  C_15 
REMARK    7  A    between atoms: C_15  and  C_16 
REMARK    8  A    between atoms: C_24  and  N_25 
REMARK    9  A    between atoms: N_25  and  C_26 
REMARK   10  A    between atoms: C_27  and  O_28 
REMARK   11  A    between atoms: C_31  and  O_32 
ROOT
HETATM    1  C   UNL     1      -6.647   1.312 -32.810  1.00  0.00     0.048 A 
HETATM    2  C   UNL     1      -6.233   0.088 -33.361  1.00  0.00     0.009 A 
HETATM    3  C   UNL     1      -7.065  -0.435 -34.366  1.00  0.00     0.070 A 
HETATM    4  C   UNL     1      -6.725  -1.650 -34.945  1.00  0.00     0.032 A 
HETATM    5  C   UNL     1      -5.587  -2.361 -34.554  1.00  0.00     0.002 A 
HETATM    6  C   UNL     1      -4.759  -1.848 -33.566  1.00  0.00     0.001 A 
HETATM    7  C   UNL     1      -5.074  -0.628 -32.971  1.00  0.00     0.015 A 
HETATM    8  N   UNL     1      -8.176   0.192 -34.790  1.00  0.00    -0.231 NA
HETATM    9  C   UNL     1      -8.553   1.361 -34.238  1.00  0.00     0.129 A 
HETATM   10  C   UNL     1      -7.811   1.948 -33.232  1.00  0.00     0.068 A 
ENDROOT
BRANCH   1  11
HETATM   11  C   UNL     1      -5.842   2.022 -31.804  1.00  0.00     0.252 C 
HETATM   12  N   UNL     1      -4.942   2.930 -32.300  1.00  0.00    -0.355 N 
HETATM   13  H   UNL     1      -4.909   3.031 -33.312  1.00  0.00     0.162 HD
HETATM   14  O   UNL     1      -5.967   1.751 -30.617  1.00  0.00    -0.268 OA
BRANCH  12  15
HETATM   15  C   UNL     1      -3.839   3.532 -31.557  1.00  0.00     0.150 C 
BRANCH  15  16
HETATM   16  C   UNL     1      -3.435   4.988 -31.890  1.00  0.00     0.255 C 
BRANCH  16  17
HETATM   17  N   UNL     1      -2.152   5.138 -32.699  1.00  0.00    -0.062 N 
HETATM   18  H   UNL     1      -1.558   4.360 -32.341  1.00  0.00     0.280 HD
BRANCH  17  19
HETATM   19  C   UNL     1      -2.263   4.864 -34.191  1.00  0.00     0.180 C 
HETATM   20  C   UNL     1      -1.067   5.448 -34.944  1.00  0.00     0.039 C 
HETATM   21  C   UNL     1      -3.588   5.360 -34.755  1.00  0.00     0.039 C 
ENDBRANCH  17  19
BRANCH  17  22
HETATM   22  C   UNL     1      -1.399   6.403 -32.334  1.00  0.00     0.273 C 
BRANCH  22  23
HETATM   23  C   UNL     1      -0.684   6.338 -31.010  1.00  0.00    -0.033 A 
HETATM   24  C   UNL     1       0.051   5.197 -30.652  1.00  0.00     0.009 A 
HETATM   25  C   UNL     1       0.710   5.136 -29.423  1.00  0.00     0.001 A 
HETATM   26  C   UNL     1       0.642   6.213 -28.541  1.00  0.00     0.000 A 
HETATM   27  C   UNL     1      -0.080   7.352 -28.887  1.00  0.00     0.001 A 
HETATM   28  C   UNL     1      -0.740   7.418 -30.114  1.00  0.00     0.009 A 
ENDBRANCH  22  23
ENDBRANCH  17  22
ENDBRANCH  16  17
ENDBRANCH  15  16
ENDBRANCH  12  15
ENDBRANCH   1  11
BRANCH   9  29
HETATM   29  N   UNL     1      -9.707   2.033 -34.676  1.00  0.00    -0.339 N 
HETATM   30  H   UNL     1      -9.527   3.015 -34.865  1.00  0.00     0.167 HD
BRANCH  29  31
HETATM   31  C   UNL     1     -11.027   1.873 -34.197  1.00  0.00     0.067 A 
HETATM   32  C   UNL     1     -11.852   3.000 -34.048  1.00  0.00     0.097 A 
HETATM   33  C   UNL     1     -13.202   2.886 -33.705  1.00  0.00     0.075 A 
HETATM   34  C   UNL     1     -13.741   1.625 -33.460  1.00  0.00     0.070 A 
HETATM   35  C   UNL     1     -12.919   0.498 -33.557  1.00  0.00     0.039 A 
HETATM   36  C   UNL     1     -11.575   0.619 -33.928  1.00  0.00     0.035 A 
BRANCH  32  37
HETATM   37  O   UNL     1     -11.326   4.252 -34.281  1.00  0.00    -0.354 OA
HETATM   38  C   UNL     1     -12.173   4.958 -35.192  1.00  0.00     0.210 C 
ENDBRANCH  32  37
BRANCH  34  39
HETATM   39  O   UNL     1     -15.038   1.358 -33.118  1.00  0.00    -0.356 OA
HETATM   40  C   UNL     1     -15.620   2.180 -32.114  1.00  0.00     0.210 C 
ENDBRANCH  34  39
ENDBRANCH  29  31
ENDBRANCH   9  29
TORSDOF 11
ENDMDL
MODEL 4
REMARK VINA RESULT:      -9.2      2.691      7.130
REMARK  11 active torsions:
REMARK  status: ('A' for Active; 'I' for Inactive)
REMARK    1  A    between atoms: C_2  and  N_3 
REMARK    2  A    between atoms: N_3  and  C_5 
REMARK    3  A    between atoms: N_3  and  C_12 
REMARK    4  A    between atoms: C_5  and  C_6 
REMARK    5  A    between atoms: C_12  and  C_13 
REMARK    6  A    between atoms: C_13  and  N_14 
REMARK       I    between atoms: N_14  and  C_15 
REMARK    7  A    between atoms: C_15  and  C_16 
REMARK    8  A    between atoms: C_24  and  N_25 
REMARK    9  A    between atoms: N_25  and  C_26 
REMARK   10  A    between atoms: C_27  and  O_28 
REMARK   11  A    between atoms: C_31  and  O_32 
ROOT
HETATM    1  C   UNL     1      -6.445  -0.631 -33.861  1.00  0.00     0.048 A 
HETATM    2  C   UNL     1      -6.007  -1.944 -34.096  1.00  0.00     0.009 A 
HETATM    3  C   UNL     1      -4.697  -2.229 -33.673  1.00  0.00     0.070 A 
HETATM    4  C   UNL     1      -4.192  -3.504 -33.887  1.00  0.00     0.032 A 
HETATM    5  C   UNL     1      -4.946  -4.501 -34.511  1.00  0.00     0.002 A 
HETATM    6  C   UNL     1      -6.241  -4.229 -34.927  1.00  0.00     0.001 A 
HETATM    7  C   UNL     1      -6.775  -2.959 -34.719  1.00  0.00     0.015 A 
HETATM    8  N   UNL     1      -3.913  -1.319 -33.070  1.00  0.00    -0.231 NA
HETATM    9  C   UNL     1      -4.358  -0.064 -32.864  1.00  0.00     0.129 A 
HETATM   10  C   UNL     1      -5.625   0.318 -33.259  1.00  0.00     0.068 A 
ENDROOT
BRANCH   1  11
HETATM   11  C   UNL     1      -7.816  -0.202 -34.177  1.00  0.00     0.252 C 
HETATM   12  N   UNL     1      -8.668  -0.107 -33.107  1.00  0.00    -0.355 N 
HETATM   13  H   UNL     1      -8.280  -0.339 -32.195  1.00  0.00     0.162 HD
HETATM   14  O   UNL     1      -8.143  -0.004 -35.341  1.00  0.00    -0.268 OA
BRANCH  12  15
HETATM   15  C   UNL     1     -10.123   0.001 -33.180  1.00  0.00     0.150 C 
BRANCH  15  16
HETATM   16  C   UNL     1     -10.769   1.393 -32.989  1.00  0.00     0.255 C 
BRANCH  16  17
HETATM   17  N   UNL     1      -9.932   2.570 -33.475  1.00  0.00    -0.062 N 
HETATM   18  H   UNL     1      -9.264   2.124 -34.138  1.00  0.00     0.280 HD
BRANCH  17  19
HETATM   19  C   UNL     1     -10.657   3.606 -34.320  1.00  0.00     0.180 C 
HETATM   20  C   UNL     1     -11.385   4.620 -33.437  1.00  0.00     0.039 C 
HETATM   21  C   UNL     1     -11.595   2.952 -35.326  1.00  0.00     0.039 C 
ENDBRANCH  17  19
BRANCH  17  22
HETATM   22  C   UNL     1      -9.063   3.139 -32.369  1.00  0.00     0.273 C 
BRANCH  22  23
HETATM   23  C   UNL     1      -7.898   3.958 -32.857  1.00  0.00    -0.033 A 
HETATM   24  C   UNL     1      -7.756   5.299 -32.467  1.00  0.00     0.009 A 
HETATM   25  C   UNL     1      -6.678   6.059 -32.922  1.00  0.00     0.001 A 
HETATM   26  C   UNL     1      -5.731   5.489 -33.771  1.00  0.00     0.000 A 
HETATM   27  C   UNL     1      -5.859   4.158 -34.162  1.00  0.00     0.001 A 
HETATM   28  C   UNL     1      -6.934   3.394 -33.708  1.00  0.00     0.009 A 
ENDBRANCH  22  23
ENDBRANCH  17  22
ENDBRANCH  16  17
ENDBRANCH  15  16
ENDBRANCH  12  15
ENDBRANCH   1  11
BRANCH   9  29
HETATM   29  N   UNL     1      -3.553   0.897 -32.227  1.00  0.00    -0.339 N 
HETATM   30  H   UNL     1      -2.746   0.477 -31.774  1.00  0.00     0.167 HD
BRANCH  29  31
HETATM   31  C   UNL     1      -3.983   2.024 -31.491  1.00  0.00     0.067 A 
HETATM   32  C   UNL     1      -3.352   3.263 -31.690  1.00  0.00     0.097 A 
HETATM   33  C   UNL     1      -3.821   4.434 -31.087  1.00  0.00     0.075 A 
HETATM   34  C   UNL     1      -4.917   4.370 -30.229  1.00  0.00     0.070 A 
HETATM   35  C   UNL     1      -5.524   3.135 -29.984  1.00  0.00     0.039 A 
HETATM   36  C   UNL     1      -5.065   1.972 -30.613  1.00  0.00     0.035 A 
BRANCH  32  37
HETATM   37  O   UNL     1      -2.263   3.334 -32.531  1.00  0.00    -0.354 OA
HETATM   38  C   UNL     1      -2.231   4.623 -33.153  1.00  0.00     0.210 C 
ENDBRANCH  32  37
BRANCH  34  39
HETATM   39  O   UNL     1      -5.485   5.426 -29.572  1.00  0.00    -0.356 OA
HETATM   40  C   UNL     1      -6.769   5.210 -28.999  1.00  0.00     0.210 C 
ENDBRANCH  34  39
ENDBRANCH  29  31
ENDBRANCH   9  29
TORSDOF 11
ENDMDL
MODEL 5
REMARK VINA RESULT:      -9.0      1.130      1.747
REMARK  11 active torsions:
REMARK  status: ('A' for Active; 'I' for Inactive)
REMARK    1  A    between atoms: C_2  and  N_3 
REMARK    2  A    between atoms: N_3  and  C_5 
REMARK    3  A    between atoms: N_3  and  C_12 
REMARK    4  A    between atoms: C_5  and  C_6 
REMARK    5  A    between atoms: C_12  and  C_13 
REMARK    6  A    between atoms: C_13  and  N_14 
REMARK       I    between atoms: N_14  and  C_15 
REMARK    7  A    between atoms: C_15  and  C_16 
REMARK    8  A    between atoms: C_24  and  N_25 
REMARK    9  A    between atoms: N_25  and  C_26 
REMARK   10  A    between atoms: C_27  and  O_28 
REMARK   11  A    between atoms: C_31  and  O_32 
ROOT
HETATM    1  C   UNL     1      -5.968   0.352 -32.169  1.00  0.00     0.048 A 
HETATM    2  C   UNL     1      -5.806  -0.733 -33.045  1.00  0.00     0.009 A 
HETATM    3  C   UNL     1      -6.994  -1.255 -33.588  1.00  0.00     0.070 A 
HETATM    4  C   UNL     1      -6.910  -2.339 -34.451  1.00  0.00     0.032 A 
HETATM    5  C   UNL     1      -5.685  -2.921 -34.788  1.00  0.00     0.002 A 
HETATM    6  C   UNL     1      -4.509  -2.408 -34.260  1.00  0.00     0.001 A 
HETATM    7  C   UNL     1      -4.563  -1.317 -33.395  1.00  0.00     0.015 A 
HETATM    8  N   UNL     1      -8.206  -0.749 -33.305  1.00  0.00    -0.231 NA
HETATM    9  C   UNL     1      -8.332   0.288 -32.455  1.00  0.00     0.129 A 
HETATM   10  C   UNL     1      -7.226   0.860 -31.857  1.00  0.00     0.068 A 
ENDROOT
BRANCH   1  11
HETATM   11  C   UNL     1      -4.817   1.054 -31.582  1.00  0.00     0.252 C 
HETATM   12  N   UNL     1      -4.512   2.266 -32.146  1.00  0.00    -0.355 N 
HETATM   13  H   UNL     1      -5.105   2.571 -32.915  1.00  0.00     0.162 HD
HETATM   14  O   UNL     1      -4.172   0.529 -30.683  1.00  0.00    -0.268 OA
BRANCH  12  15
HETATM   15  C   UNL     1      -3.269   3.008 -31.958  1.00  0.00     0.150 C 
BRANCH  15  16
HETATM   16  C   UNL     1      -2.960   4.182 -32.916  1.00  0.00     0.255 C 
BRANCH  16  17
HETATM   17  N   UNL     1      -1.885   5.149 -32.434  1.00  0.00    -0.062 N 
HETATM   18  H   UNL     1      -1.144   4.513 -32.071  1.00  0.00     0.280 HD
BRANCH  17  19
HETATM   19  C   UNL     1      -1.181   5.962 -33.510  1.00  0.00     0.180 C 
HETATM   20  C   UNL     1      -1.690   7.404 -33.527  1.00  0.00     0.039 C 
HETATM   21  C   UNL     1      -1.298   5.302 -34.878  1.00  0.00     0.039 C 
ENDBRANCH  17  19
BRANCH  17  22
HETATM   22  C   UNL     1      -2.341   5.945 -31.226  1.00  0.00     0.273 C 
BRANCH  22  23
HETATM   23  C   UNL     1      -1.269   6.174 -30.194  1.00  0.00    -0.033 A 
HETATM   24  C   UNL     1      -1.294   7.320 -29.383  1.00  0.00     0.009 A 
HETATM   25  C   UNL     1      -0.298   7.533 -28.429  1.00  0.00     0.001 A 
HETATM   26  C   UNL     1       0.731   6.606 -28.275  1.00  0.00     0.000 A 
HETATM   27  C   UNL     1       0.764   5.463 -29.070  1.00  0.00     0.001 A 
HETATM   28  C   UNL     1      -0.230   5.245 -30.024  1.00  0.00     0.009 A 
ENDBRANCH  22  23
ENDBRANCH  17  22
ENDBRANCH  16  17
ENDBRANCH  15  16
ENDBRANCH  12  15
ENDBRANCH   1  11
BRANCH   9  29
HETATM   29  N   UNL     1      -9.592   0.834 -32.156  1.00  0.00    -0.339 N 
HETATM   30  H   UNL     1     -10.159   0.201 -31.597  1.00  0.00     0.167 HD
BRANCH  29  31
HETATM   31  C   UNL     1     -10.424   1.592 -33.010  1.00  0.00     0.067 A 
HETATM   32  C   UNL     1     -10.324   2.993 -33.012  1.00  0.00     0.097 A 
HETATM   33  C   UNL     1     -11.027   3.781 -33.928  1.00  0.00     0.075 A 
HETATM   34  C   UNL     1     -11.886   3.171 -34.838  1.00  0.00     0.070 A 
HETATM   35  C   UNL     1     -12.032   1.780 -34.815  1.00  0.00     0.039 A 
HETATM   36  C   UNL     1     -11.305   0.996 -33.913  1.00  0.00     0.035 A 
BRANCH  32  37
HETATM   37  O   UNL     1      -9.482   3.606 -32.111  1.00  0.00    -0.354 OA
HETATM   38  C   UNL     1      -9.235   4.951 -32.534  1.00  0.00     0.210 C 
ENDBRANCH  32  37
BRANCH  34  39
HETATM   39  O   UNL     1     -12.634   3.808 -35.789  1.00  0.00    -0.356 OA
HETATM   40  C   UNL     1     -12.871   5.197 -35.595  1.00  0.00     0.210 C 
ENDBRANCH  34  39
ENDBRANCH  29  31
ENDBRANCH   9  29
TORSDOF 11
ENDMDL
MODEL 6
REMARK VINA RESULT:      -8.8      1.507      3.138
REMARK  11 active torsions:
REMARK  status: ('A' for Active; 'I' for Inactive)
REMARK    1  A    between atoms: C_2  and  N_3 
REMARK    2  A    between atoms: N_3  and  C_5 
REMARK    3  A    between atoms: N_3  and  C_12 
REMARK    4  A    between atoms: C_5  and  C_6 
REMARK    5  A    between atoms: C_12  and  C_13 
REMARK    6  A    between atoms: C_13  and  N_14 
REMARK       I    between atoms: N_14  and  C_15 
REMARK    7  A    between atoms: C_15  and  C_16 
REMARK    8  A    between atoms: C_24  and  N_25 
REMARK    9  A    between atoms: N_25  and  C_26 
REMARK   10  A    between atoms: C_27  and  O_28 
REMARK   11  A    between atoms: C_31  and  O_32 
ROOT
HETATM    1  C   UNL     1      -6.233   0.420 -32.237  1.00  0.00     0.048 A 
HETATM    2  C   UNL     1      -5.915  -0.675 -33.057  1.00  0.00     0.009 A 
HETATM    3  C   UNL     1      -7.001  -1.267 -33.725  1.00  0.00     0.070 A 
HETATM    4  C   UNL     1      -6.762  -2.365 -34.540  1.00  0.00     0.032 A 
HETATM    5  C   UNL     1      -5.480  -2.894 -34.708  1.00  0.00     0.002 A 
HETATM    6  C   UNL     1      -4.403  -2.312 -34.056  1.00  0.00     0.001 A 
HETATM    7  C   UNL     1      -4.613  -1.206 -33.236  1.00  0.00     0.015 A 
HETATM    8  N   UNL     1      -8.261  -0.815 -33.607  1.00  0.00    -0.231 NA
HETATM    9  C   UNL     1      -8.538   0.234 -32.808  1.00  0.00     0.129 A 
HETATM   10  C   UNL     1      -7.542   0.873 -32.097  1.00  0.00     0.068 A 
ENDROOT
BRANCH   1  11
HETATM   11  C   UNL     1      -5.197   1.191 -31.535  1.00  0.00     0.252 C 
HETATM   12  N   UNL     1      -4.456   2.038 -32.318  1.00  0.00    -0.355 N 
HETATM   13  H   UNL     1      -4.686   2.059 -33.309  1.00  0.00     0.162 HD
HETATM   14  O   UNL     1      -5.010   1.017 -30.337  1.00  0.00    -0.268 OA
BRANCH  12  15
HETATM   15  C   UNL     1      -3.198   2.675 -31.937  1.00  0.00     0.150 C 
BRANCH  15  16
HETATM   16  C   UNL     1      -2.822   4.019 -32.602  1.00  0.00     0.255 C 
BRANCH  16  17
HETATM   17  N   UNL     1      -3.203   5.265 -31.811  1.00  0.00    -0.062 N 
HETATM   18  H   UNL     1      -3.346   4.895 -30.847  1.00  0.00     0.280 HD
BRANCH  17  19
HETATM   19  C   UNL     1      -2.115   6.316 -31.647  1.00  0.00     0.180 C 
HETATM   20  C   UNL     1      -0.911   5.998 -32.534  1.00  0.00     0.039 C 
HETATM   21  C   UNL     1      -1.716   6.487 -30.187  1.00  0.00     0.039 C 
ENDBRANCH  17  19
BRANCH  17  22
HETATM   22  C   UNL     1      -4.558   5.805 -32.226  1.00  0.00     0.273 C 
BRANCH  22  23
HETATM   23  C   UNL     1      -5.722   5.185 -31.500  1.00  0.00    -0.033 A 
HETATM   24  C   UNL     1      -5.601   4.806 -30.153  1.00  0.00     0.009 A 
HETATM   25  C   UNL     1      -6.679   4.227 -29.482  1.00  0.00     0.001 A 
HETATM   26  C   UNL     1      -7.887   4.023 -30.146  1.00  0.00     0.000 A 
HETATM   27  C   UNL     1      -8.020   4.398 -31.480  1.00  0.00     0.001 A 
HETATM   28  C   UNL     1      -6.946   4.978 -32.156  1.00  0.00     0.009 A 
ENDBRANCH  22  23
ENDBRANCH  17  22
ENDBRANCH  16  17
ENDBRANCH  15  16
ENDBRANCH  12  15
ENDBRANCH   1  11
BRANCH   9  29
HETATM   29  N   UNL     1      -9.850   0.724 -32.681  1.00  0.00    -0.339 N 
HETATM   30  H   UNL     1     -10.482   0.025 -32.299  1.00  0.00     0.167 HD
BRANCH  29  31
HETATM   31  C   UNL     1     -10.547   1.556 -33.585  1.00  0.00     0.067 A 
HETATM   32  C   UNL     1     -11.872   1.246 -33.932  1.00  0.00     0.097 A 
HETATM   33  C   UNL     1     -12.649   2.103 -34.718  1.00  0.00     0.075 A 
HETATM   34  C   UNL     1     -12.085   3.278 -35.210  1.00  0.00     0.070 A 
HETATM   35  C   UNL     1     -10.752   3.574 -34.913  1.00  0.00     0.039 A 
HETATM   36  C   UNL     1      -9.989   2.725 -34.104  1.00  0.00     0.035 A 
BRANCH  32  37
HETATM   37  O   UNL     1     -12.435   0.082 -33.456  1.00  0.00    -0.354 OA
HETATM   38  C   UNL     1     -13.834   0.077 -33.758  1.00  0.00     0.210 C 
ENDBRANCH  32  37
BRANCH  34  39
HETATM   39  O   UNL     1     -12.718   4.209 -35.986  1.00  0.00    -0.356 OA
HETATM   40  C   UNL     1     -13.032   5.452 -35.370  1.00  0.00     0.210 C 
ENDBRANCH  34  39
ENDBRANCH  29  31
ENDBRANCH   9  29
TORSDOF 11
ENDMDL
MODEL 7
REMARK VINA RESULT:      -8.8      2.479      8.877
REMARK  11 active torsions:
REMARK  status: ('A' for Active; 'I' for Inactive)
REMARK    1  A    between atoms: C_2  and  N_3 
REMARK    2  A    between atoms: N_3  and  C_5 
REMARK    3  A    between atoms: N_3  and  C_12 
REMARK    4  A    between atoms: C_5  and  C_6 
REMARK    5  A    between atoms: C_12  and  C_13 
REMARK    6  A    between atoms: C_13  and  N_14 
REMARK       I    between atoms: N_14  and  C_15 
REMARK    7  A    between atoms: C_15  and  C_16 
REMARK    8  A    between atoms: C_24  and  N_25 
REMARK    9  A    between atoms: N_25  and  C_26 
REMARK   10  A    between atoms: C_27  and  O_28 
REMARK   11  A    between atoms: C_31  and  O_32 
ROOT
HETATM    1  C   UNL     1      -6.354  -0.661 -33.755  1.00  0.00     0.048 A 
HETATM    2  C   UNL     1      -5.922  -1.969 -34.028  1.00  0.00     0.009 A 
HETATM    3  C   UNL     1      -4.609  -2.269 -33.626  1.00  0.00     0.070 A 
HETATM    4  C   UNL     1      -4.110  -3.540 -33.879  1.00  0.00     0.032 A 
HETATM    5  C   UNL     1      -4.874  -4.518 -34.521  1.00  0.00     0.002 A 
HETATM    6  C   UNL     1      -6.172  -4.230 -34.916  1.00  0.00     0.001 A 
HETATM    7  C   UNL     1      -6.700  -2.965 -34.670  1.00  0.00     0.015 A 
HETATM    8  N   UNL     1      -3.816  -1.377 -33.008  1.00  0.00    -0.231 NA
HETATM    9  C   UNL     1      -4.254  -0.127 -32.765  1.00  0.00     0.129 A 
HETATM   10  C   UNL     1      -5.523   0.270 -33.136  1.00  0.00     0.068 A 
ENDROOT
BRANCH   1  11
HETATM   11  C   UNL     1      -7.726  -0.220 -34.046  1.00  0.00     0.252 C 
HETATM   12  N   UNL     1      -8.559  -0.121 -32.960  1.00  0.00    -0.355 N 
HETATM   13  H   UNL     1      -8.157  -0.359 -32.056  1.00  0.00     0.162 HD
HETATM   14  O   UNL     1      -8.071  -0.015 -35.202  1.00  0.00    -0.268 OA
BRANCH  12  15
HETATM   15  C   UNL     1     -10.013  -0.001 -33.007  1.00  0.00     0.150 C 
BRANCH  15  16
HETATM   16  C   UNL     1     -10.627   1.277 -33.625  1.00  0.00     0.255 C 
BRANCH  16  17
HETATM   17  N   UNL     1     -11.079   2.332 -32.622  1.00  0.00    -0.062 N 
HETATM   18  H   UNL     1     -11.612   1.774 -31.921  1.00  0.00     0.280 HD
BRANCH  17  19
HETATM   19  C   UNL     1      -9.981   2.998 -31.807  1.00  0.00     0.180 C 
HETATM   20  C   UNL     1     -10.547   4.128 -30.946  1.00  0.00     0.039 C 
HETATM   21  C   UNL     1      -8.838   3.477 -32.693  1.00  0.00     0.039 C 
ENDBRANCH  17  19
BRANCH  17  22
HETATM   22  C   UNL     1     -12.098   3.281 -33.222  1.00  0.00     0.273 C 
BRANCH  22  23
HETATM   23  C   UNL     1     -13.530   2.914 -32.937  1.00  0.00    -0.033 A 
HETATM   24  C   UNL     1     -14.282   3.646 -32.004  1.00  0.00     0.009 A 
HETATM   25  C   UNL     1     -15.608   3.302 -31.738  1.00  0.00     0.001 A 
HETATM   26  C   UNL     1     -16.197   2.226 -32.400  1.00  0.00     0.000 A 
HETATM   27  C   UNL     1     -15.462   1.495 -33.330  1.00  0.00     0.001 A 
HETATM   28  C   UNL     1     -14.137   1.835 -33.601  1.00  0.00     0.009 A 
ENDBRANCH  22  23
ENDBRANCH  17  22
ENDBRANCH  16  17
ENDBRANCH  15  16
ENDBRANCH  12  15
ENDBRANCH   1  11
BRANCH   9  29
HETATM   29  N   UNL     1      -3.440   0.815 -32.111  1.00  0.00    -0.339 N 
HETATM   30  H   UNL     1      -3.079   0.459 -31.230  1.00  0.00     0.167 HD
BRANCH  29  31
HETATM   31  C   UNL     1      -3.648   2.208 -32.014  1.00  0.00     0.067 A 
HETATM   32  C   UNL     1      -4.445   2.721 -30.977  1.00  0.00     0.097 A 
HETATM   33  C   UNL     1      -4.576   4.095 -30.758  1.00  0.00     0.075 A 
HETATM   34  C   UNL     1      -3.938   4.989 -31.615  1.00  0.00     0.070 A 
HETATM   35  C   UNL     1      -3.181   4.492 -32.681  1.00  0.00     0.039 A 
HETATM   36  C   UNL     1      -3.032   3.115 -32.877  1.00  0.00     0.035 A 
BRANCH  32  37
HETATM   37  O   UNL     1      -5.086   1.844 -30.129  1.00  0.00    -0.354 OA
HETATM   38  C   UNL     1      -6.473   2.191 -30.054  1.00  0.00     0.210 C 
ENDBRANCH  32  37
BRANCH  34  39
HETATM   39  O   UNL     1      -3.973   6.352 -31.525  1.00  0.00    -0.356 OA
HETATM   40  C   UNL     1      -2.771   7.002 -31.128  1.00  0.00     0.210 C 
ENDBRANCH  34  39
ENDBRANCH  29  31
ENDBRANCH   9  29
TORSDOF 11
ENDMDL
MODEL 8
REMARK VINA RESULT:      -8.8      2.685      9.737
REMARK  11 active torsions:
REMARK  status: ('A' for Active; 'I' for Inactive)
REMARK    1  A    between atoms: C_2  and  N_3 
REMARK    2  A    between atoms: N_3  and  C_5 
REMARK    3  A    between atoms: N_3  and  C_12 
REMARK    4  A    between atoms: C_5  and  C_6 
REMARK    5  A    between atoms: C_12  and  C_13 
REMARK    6  A    between atoms: C_13  and  N_14 
REMARK       I    between atoms: N_14  and  C_15 
REMARK    7  A    between atoms: C_15  and  C_16 
REMARK    8  A    between atoms: C_24  and  N_25 
REMARK    9  A    between atoms: N_25  and  C_26 
REMARK   10  A    between atoms: C_27  and  O_28 
REMARK   11  A    between atoms: C_31  and  O_32 
ROOT
HETATM    1  C   UNL     1      -4.981   3.659 -32.581  1.00  0.00     0.048 A 
HETATM    2  C   UNL     1      -4.769   2.383 -32.035  1.00  0.00     0.009 A 
HETATM    3  C   UNL     1      -3.479   2.150 -31.527  1.00  0.00     0.070 A 
HETATM    4  C   UNL     1      -3.193   0.903 -30.986  1.00  0.00     0.032 A 
HETATM    5  C   UNL     1      -4.147  -0.116 -30.939  1.00  0.00     0.002 A 
HETATM    6  C   UNL     1      -5.423   0.109 -31.434  1.00  0.00     0.001 A 
HETATM    7  C   UNL     1      -5.739   1.352 -31.978  1.00  0.00     0.015 A 
HETATM    8  N   UNL     1      -2.511   3.082 -31.542  1.00  0.00    -0.231 NA
HETATM    9  C   UNL     1      -2.741   4.296 -32.079  1.00  0.00     0.129 A 
HETATM   10  C   UNL     1      -3.971   4.617 -32.619  1.00  0.00     0.068 A 
ENDROOT
BRANCH   1  11
HETATM   11  C   UNL     1      -6.298   4.080 -33.082  1.00  0.00     0.252 C 
HETATM   12  N   UNL     1      -7.298   4.137 -32.145  1.00  0.00    -0.355 N 
HETATM   13  H   UNL     1      -7.042   3.885 -31.192  1.00  0.00     0.162 HD
HETATM   14  O   UNL     1      -6.456   4.305 -34.275  1.00  0.00    -0.268 OA
BRANCH  12  15
HETATM   15  C   UNL     1      -8.728   4.229 -32.425  1.00  0.00     0.150 C 
BRANCH  15  16
HETATM   16  C   UNL     1      -9.652   3.098 -31.918  1.00  0.00     0.255 C 
BRANCH  16  17
HETATM   17  N   UNL     1     -10.220   2.187 -33.000  1.00  0.00    -0.062 N 
HETATM   18  H   UNL     1     -10.165   1.243 -32.562  1.00  0.00     0.280 HD
BRANCH  17  19
HETATM   19  C   UNL     1     -11.697   2.363 -33.318  1.00  0.00     0.180 C 
HETATM   20  C   UNL     1     -12.324   1.037 -33.752  1.00  0.00     0.039 C 
HETATM   21  C   UNL     1     -11.922   3.461 -34.349  1.00  0.00     0.039 C 
ENDBRANCH  17  19
BRANCH  17  22
HETATM   22  C   UNL     1      -9.308   2.111 -34.209  1.00  0.00     0.273 C 
BRANCH  22  23
HETATM   23  C   UNL     1      -8.464   0.865 -34.271  1.00  0.00    -0.033 A 
HETATM   24  C   UNL     1      -7.415   0.760 -35.198  1.00  0.00     0.009 A 
HETATM   25  C   UNL     1      -6.636  -0.396 -35.258  1.00  0.00     0.001 A 
HETATM   26  C   UNL     1      -6.896  -1.458 -34.393  1.00  0.00     0.000 A 
HETATM   27  C   UNL     1      -7.932  -1.364 -33.467  1.00  0.00     0.001 A 
HETATM   28  C   UNL     1      -8.712  -0.210 -33.402  1.00  0.00     0.009 A 
ENDBRANCH  22  23
ENDBRANCH  17  22
ENDBRANCH  16  17
ENDBRANCH  15  16
ENDBRANCH  12  15
ENDBRANCH   1  11
BRANCH   9  29
HETATM   29  N   UNL     1      -1.742   5.285 -32.095  1.00  0.00    -0.339 N 
HETATM   30  H   UNL     1      -1.112   5.176 -32.886  1.00  0.00     0.167 HD
BRANCH  29  31
HETATM   31  C   UNL     1      -1.035   5.809 -30.990  1.00  0.00     0.067 A 
HETATM   32  C   UNL     1      -1.489   6.986 -30.371  1.00  0.00     0.097 A 
HETATM   33  C   UNL     1      -0.906   7.474 -29.198  1.00  0.00     0.075 A 
HETATM   34  C   UNL     1       0.183   6.805 -28.646  1.00  0.00     0.070 A 
HETATM   35  C   UNL     1       0.676   5.660 -29.279  1.00  0.00     0.039 A 
HETATM   36  C   UNL     1       0.070   5.162 -30.438  1.00  0.00     0.035 A 
BRANCH  32  37
HETATM   37  O   UNL     1      -2.562   7.658 -30.915  1.00  0.00    -0.354 OA
HETATM   38  C   UNL     1      -3.637   7.674 -29.970  1.00  0.00     0.210 C 
ENDBRANCH  32  37
BRANCH  34  39
HETATM   39  O   UNL     1       0.852   7.162 -27.508  1.00  0.00    -0.356 OA
HETATM   40  C   UNL     1       1.527   8.414 -27.525  1.00  0.00     0.210 C 
ENDBRANCH  34  39
ENDBRANCH  29  31
ENDBRANCH   9  29
TORSDOF 11
ENDMDL
MODEL 9
REMARK VINA RESULT:      -8.7      1.758      3.530
REMARK  11 active torsions:
REMARK  status: ('A' for Active; 'I' for Inactive)
REMARK    1  A    between atoms: C_2  and  N_3 
REMARK    2  A    between atoms: N_3  and  C_5 
REMARK    3  A    between atoms: N_3  and  C_12 
REMARK    4  A    between atoms: C_5  and  C_6 
REMARK    5  A    between atoms: C_12  and  C_13 
REMARK    6  A    between atoms: C_13  and  N_14 
REMARK       I    between atoms: N_14  and  C_15 
REMARK    7  A    between atoms: C_15  and  C_16 
REMARK    8  A    between atoms: C_24  and  N_25 
REMARK    9  A    between atoms: N_25  and  C_26 
REMARK   10  A    between atoms: C_27  and  O_28 
REMARK   11  A    between atoms: C_31  and  O_32 
ROOT
HETATM    1  C   UNL     1      -6.472   0.602 -32.007  1.00  0.00     0.048 A 
HETATM    2  C   UNL     1      -6.128  -0.424 -32.902  1.00  0.00     0.009 A 
HETATM    3  C   UNL     1      -7.203  -1.012 -33.590  1.00  0.00     0.070 A 
HETATM    4  C   UNL     1      -6.939  -2.045 -34.479  1.00  0.00     0.032 A 
HETATM    5  C   UNL     1      -5.641  -2.512 -34.702  1.00  0.00     0.002 A 
HETATM    6  C   UNL     1      -4.574  -1.933 -34.030  1.00  0.00     0.001 A 
HETATM    7  C   UNL     1      -4.811  -0.892 -33.135  1.00  0.00     0.015 A 
HETATM    8  N   UNL     1      -8.477  -0.617 -33.423  1.00  0.00    -0.231 NA
HETATM    9  C   UNL     1      -8.778   0.366 -32.553  1.00  0.00     0.129 A 
HETATM   10  C   UNL     1      -7.794   0.995 -31.817  1.00  0.00     0.068 A 
ENDROOT
BRANCH   1  11
HETATM   11  C   UNL     1      -5.452   1.365 -31.272  1.00  0.00     0.252 C 
HETATM   12  N   UNL     1      -4.814   2.345 -31.988  1.00  0.00    -0.355 N 
HETATM   13  H   UNL     1      -5.100   2.457 -32.959  1.00  0.00     0.162 HD
HETATM   14  O   UNL     1      -5.188   1.075 -30.112  1.00  0.00    -0.268 OA
BRANCH  12  15
HETATM   15  C   UNL     1      -3.583   3.026 -31.597  1.00  0.00     0.150 C 
BRANCH  15  16
HETATM   16  C   UNL     1      -2.698   3.643 -32.705  1.00  0.00     0.255 C 
BRANCH  16  17
HETATM   17  N   UNL     1      -2.690   5.167 -32.756  1.00  0.00    -0.062 N 
HETATM   18  H   UNL     1      -3.126   5.433 -31.849  1.00  0.00     0.280 HD
BRANCH  17  19
HETATM   19  C   UNL     1      -1.322   5.832 -32.720  1.00  0.00     0.180 C 
HETATM   20  C   UNL     1      -0.735   5.797 -31.308  1.00  0.00     0.039 C 
HETATM   21  C   UNL     1      -1.372   7.248 -33.280  1.00  0.00     0.039 C 
ENDBRANCH  17  19
BRANCH  17  22
HETATM   22  C   UNL     1      -3.635   5.701 -33.816  1.00  0.00     0.273 C 
BRANCH  22  23
HETATM   23  C   UNL     1      -5.087   5.679 -33.418  1.00  0.00    -0.033 A 
HETATM   24  C   UNL     1      -5.986   4.806 -34.052  1.00  0.00     0.009 A 
HETATM   25  C   UNL     1      -7.332   4.789 -33.686  1.00  0.00     0.001 A 
HETATM   26  C   UNL     1      -7.795   5.641 -32.685  1.00  0.00     0.000 A 
HETATM   27  C   UNL     1      -6.912   6.509 -32.047  1.00  0.00     0.001 A 
HETATM   28  C   UNL     1      -5.565   6.529 -32.408  1.00  0.00     0.009 A 
ENDBRANCH  22  23
ENDBRANCH  17  22
ENDBRANCH  16  17
ENDBRANCH  15  16
ENDBRANCH  12  15
ENDBRANCH   1  11
BRANCH   9  29
HETATM   29  N   UNL     1     -10.105   0.797 -32.373  1.00  0.00    -0.339 N 
HETATM   30  H   UNL     1     -10.714   0.039 -32.076  1.00  0.00     0.167 HD
BRANCH  29  31
HETATM   31  C   UNL     1     -10.829   1.704 -33.178  1.00  0.00     0.067 A 
HETATM   32  C   UNL     1     -10.890   3.059 -32.813  1.00  0.00     0.097 A 
HETATM   33  C   UNL     1     -11.480   4.020 -33.639  1.00  0.00     0.075 A 
HETATM   34  C   UNL     1     -12.064   3.624 -34.840  1.00  0.00     0.070 A 
HETATM   35  C   UNL     1     -12.053   2.271 -35.193  1.00  0.00     0.039 A 
HETATM   36  C   UNL     1     -11.437   1.319 -34.373  1.00  0.00     0.035 A 
BRANCH  32  37
HETATM   37  O   UNL     1     -10.321   3.459 -31.623  1.00  0.00    -0.354 OA
HETATM   38  C   UNL     1     -11.199   4.379 -30.966  1.00  0.00     0.210 C 
ENDBRANCH  32  37
BRANCH  34  39
HETATM   39  O   UNL     1     -12.674   4.446 -35.746  1.00  0.00    -0.356 OA
HETATM   40  C   UNL     1     -12.591   5.845 -35.502  1.00  0.00     0.210 C 
ENDBRANCH  34  39
ENDBRANCH  29  31
ENDBRANCH   9  29
TORSDOF 11
ENDMDL
MODEL 10
REMARK VINA RESULT:      -8.6      1.945      3.106
REMARK  11 active torsions:
REMARK  status: ('A' for Active; 'I' for Inactive)
REMARK    1  A    between atoms: C_2  and  N_3 
REMARK    2  A    between atoms: N_3  and  C_5 
REMARK    3  A    between atoms: N_3  and  C_12 
REMARK    4  A    between atoms: C_5  and  C_6 
REMARK    5  A    between atoms: C_12  and  C_13 
REMARK    6  A    between atoms: C_13  and  N_14 
REMARK       I    between atoms: N_14  and  C_15 
REMARK    7  A    between atoms: C_15  and  C_16 
REMARK    8  A    between atoms: C_24  and  N_25 
REMARK    9  A    between atoms: N_25  and  C_26 
REMARK   10  A    between atoms: C_27  and  O_28 
REMARK   11  A    between atoms: C_31  and  O_32 
ROOT
HETATM    1  C   UNL     1      -7.136   0.576 -31.709  1.00  0.00     0.048 A 
HETATM    2  C   UNL     1      -6.538  -0.347 -32.582  1.00  0.00     0.009 A 
HETATM    3  C   UNL     1      -7.385  -0.886 -33.567  1.00  0.00     0.070 A 
HETATM    4  C   UNL     1      -6.864  -1.817 -34.455  1.00  0.00     0.032 A 
HETATM    5  C   UNL     1      -5.531  -2.230 -34.393  1.00  0.00     0.002 A 
HETATM    6  C   UNL     1      -4.688  -1.698 -33.428  1.00  0.00     0.001 A 
HETATM    7  C   UNL     1      -5.182  -0.759 -32.527  1.00  0.00     0.015 A 
HETATM    8  N   UNL     1      -8.678  -0.538 -33.683  1.00  0.00    -0.231 NA
HETATM    9  C   UNL     1      -9.227   0.344 -32.826  1.00  0.00     0.129 A 
HETATM   10  C   UNL     1      -8.482   0.917 -31.815  1.00  0.00     0.068 A 
ENDROOT
BRANCH   1  11
HETATM   11  C   UNL     1      -6.362   1.282 -30.677  1.00  0.00     0.252 C 
HETATM   12  N   UNL     1      -5.969   2.556 -31.000  1.00  0.00    -0.355 N 
HETATM   13  H   UNL     1      -6.245   2.897 -31.918  1.00  0.00     0.162 HD
HETATM   14  O   UNL     1      -6.069   0.712 -29.634  1.00  0.00    -0.268 OA
BRANCH  12  15
HETATM   15  C   UNL     1      -4.961   3.343 -30.297  1.00  0.00     0.150 C 
BRANCH  15  16
HETATM   16  C   UNL     1      -5.241   4.843 -30.046  1.00  0.00     0.255 C 
BRANCH  16  17
HETATM   17  N   UNL     1      -5.569   5.661 -31.290  1.00  0.00    -0.062 N 
HETATM   18  H   UNL     1      -5.605   4.939 -32.040  1.00  0.00     0.280 HD
BRANCH  17  19
HETATM   19  C   UNL     1      -6.947   6.303 -31.327  1.00  0.00     0.180 C 
HETATM   20  C   UNL     1      -7.098   7.338 -30.211  1.00  0.00     0.039 C 
HETATM   21  C   UNL     1      -8.054   5.258 -31.287  1.00  0.00     0.039 C 
ENDBRANCH  17  19
BRANCH  17  22
HETATM   22  C   UNL     1      -4.424   6.575 -31.683  1.00  0.00     0.273 C 
BRANCH  22  23
HETATM   23  C   UNL     1      -3.556   6.039 -32.791  1.00  0.00    -0.033 A 
HETATM   24  C   UNL     1      -4.113   5.709 -34.036  1.00  0.00     0.009 A 
HETATM   25  C   UNL     1      -3.308   5.210 -35.061  1.00  0.00     0.001 A 
HETATM   26  C   UNL     1      -1.941   5.035 -34.853  1.00  0.00     0.000 A 
HETATM   27  C   UNL     1      -1.377   5.362 -33.623  1.00  0.00     0.001 A 
HETATM   28  C   UNL     1      -2.176   5.863 -32.596  1.00  0.00     0.009 A 
ENDBRANCH  22  23
ENDBRANCH  17  22
ENDBRANCH  16  17
ENDBRANCH  15  16
ENDBRANCH  12  15
ENDBRANCH   1  11
BRANCH   9  29
HETATM   29  N   UNL     1     -10.576   0.725 -32.940  1.00  0.00    -0.339 N 
HETATM   30  H   UNL     1     -11.195  -0.080 -32.987  1.00  0.00     0.167 HD
BRANCH  29  31
HETATM   31  C   UNL     1     -11.107   1.783 -33.711  1.00  0.00     0.067 A 
HETATM   32  C   UNL     1     -12.500   1.942 -33.804  1.00  0.00     0.097 A 
HETATM   33  C   UNL     1     -13.075   3.044 -34.443  1.00  0.00     0.075 A 
HETATM   34  C   UNL     1     -12.251   3.992 -35.046  1.00  0.00     0.070 A 
HETATM   35  C   UNL     1     -10.864   3.820 -35.003  1.00  0.00     0.039 A 
HETATM   36  C   UNL     1     -10.295   2.728 -34.338  1.00  0.00     0.035 A 
BRANCH  32  37
HETATM   37  O   UNL     1     -13.322   1.005 -33.217  1.00  0.00    -0.354 OA
HETATM   38  C   UNL     1     -14.179   0.439 -34.214  1.00  0.00     0.210 C 
ENDBRANCH  32  37
BRANCH  34  39
HETATM   39  O   UNL     1     -12.667   5.116 -35.703  1.00  0.00    -0.356 OA
HETATM   40  C   UNL     1     -11.965   6.321 -35.423  1.00  0.00     0.210 C 
ENDBRANCH  34  39
ENDBRANCH  29  31
ENDBRANCH   9  29
TORSDOF 11
ENDMDL
