MODEL 1
REMARK VINA RESULT:      -8.2      0.000      0.000
REMARK  3 active torsions:
REMARK  status: ('A' for Active; 'I' for Inactive)
REMARK    1  A    between atoms: C_9  and  C_10 
REMARK    2  A    between atoms: C_16  and  C_17 
REMARK       I    between atoms: C_17  and  N_18 
REMARK    3  A    between atoms: N_18  and  C_19 
ROOT
HETATM    1  C   UNL     1      -3.219   0.719 -31.009  1.00  0.00     0.070 C 
HETATM    2  C   UNL     1      -4.127   1.562 -31.867  1.00  0.00     0.037 A 
HETATM    3  N   UNL     1      -3.841   2.922 -31.895  1.00  0.00    -0.192 N 
HETATM    4  C   UNL     1      -4.436   3.780 -32.748  1.00  0.00     0.725 A 
HETATM    5  N   UNL     1      -5.457   3.338 -33.545  1.00  0.00    -0.082 N 
HETATM    6  N   UNL     1      -5.830   4.290 -34.432  1.00  0.00    -0.149 NA
HETATM    7  C   UNL     1      -5.049   5.305 -34.045  1.00  0.00     0.275 A 
HETATM    8  N   UNL     1      -4.178   5.033 -33.022  1.00  0.00    -0.054 NA
HETATM    9  C   UNL     1      -5.972   1.969 -33.537  1.00  0.00     0.221 A 
HETATM   10  C   UNL     1      -5.138   1.077 -32.627  1.00  0.00     0.064 A 
HETATM   11  H   UNL     1      -3.036   3.248 -31.368  1.00  0.00     0.184 HD
ENDROOT
BRANCH  10  12
HETATM   12  C   UNL     1      -5.504  -0.357 -32.706  1.00  0.00     0.256 C 
HETATM   13  N   UNL     1      -4.958  -0.999 -33.793  1.00  0.00    -0.322 N 
HETATM   14  H   UNL     1      -4.312  -0.462 -34.360  1.00  0.00     0.169 HD
HETATM   15  O   UNL     1      -6.194  -0.844 -31.820  1.00  0.00    -0.267 OA
BRANCH  13  16
HETATM   16  C   UNL     1      -5.173  -2.339 -34.172  1.00  0.00     0.052 A 
HETATM   17  C   UNL     1      -4.244  -3.368 -34.042  1.00  0.00     0.145 A 
HETATM   18  N   UNL     1      -4.481  -4.658 -34.398  1.00  0.00    -0.271 NA
HETATM   19  C   UNL     1      -5.700  -4.938 -34.902  1.00  0.00     0.116 A 
HETATM   20  C   UNL     1      -6.693  -3.990 -35.071  1.00  0.00     0.021 A 
HETATM   21  C   UNL     1      -6.421  -2.673 -34.705  1.00  0.00     0.032 A 
ENDBRANCH  13  16
ENDBRANCH  10  12
BRANCH   9  22
HETATM   22  C   UNL     1      -7.445   1.995 -33.141  1.00  0.00     0.064 A 
HETATM   23  N   UNL     1      -7.775   2.450 -31.897  1.00  0.00    -0.263 NA
HETATM   24  C   UNL     1      -9.089   2.491 -31.579  1.00  0.00     0.117 A 
HETATM   25  C   UNL     1     -10.104   2.093 -32.431  1.00  0.00     0.019 A 
HETATM   26  C   UNL     1      -9.756   1.627 -33.692  1.00  0.00     0.003 A 
HETATM   27  C   UNL     1      -8.414   1.578 -34.056  1.00  0.00     0.030 A 
ENDBRANCH   9  22
TORSDOF 3
ENDMDL
MODEL 2
REMARK VINA RESULT:      -7.7      1.825      4.114
REMARK  3 active torsions:
REMARK  status: ('A' for Active; 'I' for Inactive)
REMARK    1  A    between atoms: C_9  and  C_10 
REMARK    2  A    between atoms: C_16  and  C_17 
REMARK       I    between atoms: C_17  and  N_18 
REMARK    3  A    between atoms: N_18  and  C_19 
ROOT
HETATM    1  C   UNL     1     -10.065  -0.040 -32.716  1.00  0.00     0.070 C 
HETATM    2  C   UNL     1      -9.394   1.183 -32.145  1.00  0.00     0.037 A 
HETATM    3  N   UNL     1     -10.219   2.282 -31.932  1.00  0.00    -0.192 N 
HETATM    4  C   UNL     1      -9.819   3.382 -31.264  1.00  0.00     0.725 A 
HETATM    5  N   UNL     1      -8.511   3.495 -30.875  1.00  0.00    -0.082 N 
HETATM    6  N   UNL     1      -8.327   4.586 -30.095  1.00  0.00    -0.149 NA
HETATM    7  C   UNL     1      -9.551   5.125 -30.136  1.00  0.00     0.275 A 
HETATM    8  N   UNL     1     -10.494   4.417 -30.835  1.00  0.00    -0.054 NA
HETATM    9  C   UNL     1      -7.484   2.489 -31.145  1.00  0.00     0.221 A 
HETATM   10  C   UNL     1      -8.088   1.251 -31.792  1.00  0.00     0.064 A 
HETATM   11  H   UNL     1     -11.207   2.180 -32.145  1.00  0.00     0.184 HD
ENDROOT
BRANCH  10  12
HETATM   12  C   UNL     1      -7.129   0.129 -31.935  1.00  0.00     0.256 C 
HETATM   13  N   UNL     1      -6.925  -0.248 -33.241  1.00  0.00    -0.322 N 
HETATM   14  H   UNL     1      -7.369   0.320 -33.953  1.00  0.00     0.169 HD
HETATM   15  O   UNL     1      -6.591  -0.323 -30.933  1.00  0.00    -0.267 OA
BRANCH  13  16
HETATM   16  C   UNL     1      -6.124  -1.318 -33.691  1.00  0.00     0.052 A 
HETATM   17  C   UNL     1      -4.764  -1.466 -33.433  1.00  0.00     0.145 A 
HETATM   18  N   UNL     1      -4.017  -2.518 -33.862  1.00  0.00    -0.271 NA
HETATM   19  C   UNL     1      -4.654  -3.468 -34.577  1.00  0.00     0.116 A 
HETATM   20  C   UNL     1      -6.001  -3.416 -34.886  1.00  0.00     0.021 A 
HETATM   21  C   UNL     1      -6.742  -2.323 -34.440  1.00  0.00     0.032 A 
ENDBRANCH  13  16
ENDBRANCH  10  12
BRANCH   9  22
HETATM   22  C   UNL     1      -6.385   3.118 -31.996  1.00  0.00     0.064 A 
HETATM   23  N   UNL     1      -5.120   3.176 -31.485  1.00  0.00    -0.263 NA
HETATM   24  C   UNL     1      -4.157   3.711 -32.270  1.00  0.00     0.117 A 
HETATM   25  C   UNL     1      -4.382   4.205 -33.542  1.00  0.00     0.019 A 
HETATM   26  C   UNL     1      -5.673   4.145 -34.051  1.00  0.00     0.003 A 
HETATM   27  C   UNL     1      -6.688   3.593 -33.274  1.00  0.00     0.030 A 
ENDBRANCH   9  22
TORSDOF 3
ENDMDL
MODEL 3
REMARK VINA RESULT:      -7.6      2.814      5.701
REMARK  3 active torsions:
REMARK  status: ('A' for Active; 'I' for Inactive)
REMARK    1  A    between atoms: C_9  and  C_10 
REMARK    2  A    between atoms: C_16  and  C_17 
REMARK       I    between atoms: C_17  and  N_18 
REMARK    3  A    between atoms: N_18  and  C_19 
ROOT
HETATM    1  C   UNL     1      -9.217   5.564 -34.257  1.00  0.00     0.070 C 
HETATM    2  C   UNL     1      -8.132   4.621 -33.807  1.00  0.00     0.037 A 
HETATM    3  N   UNL     1      -6.828   5.078 -33.963  1.00  0.00    -0.192 N 
HETATM    4  C   UNL     1      -5.759   4.440 -33.448  1.00  0.00     0.725 A 
HETATM    5  N   UNL     1      -5.927   3.223 -32.845  1.00  0.00    -0.082 N 
HETATM    6  N   UNL     1      -4.779   2.805 -32.262  1.00  0.00    -0.149 NA
HETATM    7  C   UNL     1      -3.945   3.782 -32.635  1.00  0.00     0.275 A 
HETATM    8  N   UNL     1      -4.506   4.804 -33.357  1.00  0.00    -0.054 NA
HETATM    9  C   UNL     1      -7.214   2.538 -32.722  1.00  0.00     0.221 A 
HETATM   10  C   UNL     1      -8.350   3.414 -33.230  1.00  0.00     0.064 A 
HETATM   11  H   UNL     1      -6.697   6.014 -34.338  1.00  0.00     0.184 HD
ENDROOT
BRANCH  10  12
HETATM   12  C   UNL     1      -9.696   2.847 -32.975  1.00  0.00     0.256 C 
HETATM   13  N   UNL     1     -10.243   2.230 -34.076  1.00  0.00    -0.322 N 
HETATM   14  H   UNL     1      -9.651   2.154 -34.895  1.00  0.00     0.169 HD
HETATM   15  O   UNL     1     -10.173   2.930 -31.851  1.00  0.00    -0.267 OA
BRANCH  13  16
HETATM   16  C   UNL     1     -11.527   1.656 -34.165  1.00  0.00     0.052 A 
HETATM   17  C   UNL     1     -12.597   2.190 -34.879  1.00  0.00     0.145 A 
HETATM   18  N   UNL     1     -13.821   1.606 -34.966  1.00  0.00    -0.271 NA
HETATM   19  C   UNL     1     -13.988   0.436 -34.317  1.00  0.00     0.116 A 
HETATM   20  C   UNL     1     -12.990  -0.178 -33.582  1.00  0.00     0.021 A 
HETATM   21  C   UNL     1     -11.746   0.445 -33.503  1.00  0.00     0.032 A 
ENDBRANCH  13  16
ENDBRANCH  10  12
BRANCH   9  22
HETATM   22  C   UNL     1      -7.136   1.200 -33.450  1.00  0.00     0.064 A 
HETATM   23  N   UNL     1      -7.140   1.202 -34.815  1.00  0.00    -0.263 NA
HETATM   24  C   UNL     1      -7.041   0.006 -35.439  1.00  0.00     0.117 A 
HETATM   25  C   UNL     1      -6.947  -1.205 -34.778  1.00  0.00     0.019 A 
HETATM   26  C   UNL     1      -6.949  -1.197 -33.389  1.00  0.00     0.003 A 
HETATM   27  C   UNL     1      -7.042   0.017 -32.714  1.00  0.00     0.030 A 
ENDBRANCH   9  22
TORSDOF 3
ENDMDL
MODEL 4
REMARK VINA RESULT:      -7.5      1.991      4.191
REMARK  3 active torsions:
REMARK  status: ('A' for Active; 'I' for Inactive)
REMARK    1  A    between atoms: C_9  and  C_10 
REMARK    2  A    between atoms: C_16  and  C_17 
REMARK       I    between atoms: C_17  and  N_18 
REMARK    3  A    between atoms: N_18  and  C_19 
ROOT
HETATM    1  C   UNL     1      -9.521   2.063 -33.037  1.00  0.00     0.070 C 
HETATM    2  C   UNL     1      -8.328   2.659 -32.334  1.00  0.00     0.037 A 
HETATM    3  N   UNL     1      -8.611   3.630 -31.380  1.00  0.00    -0.192 N 
HETATM    4  C   UNL     1      -7.681   4.126 -30.540  1.00  0.00     0.725 A 
HETATM    5  N   UNL     1      -6.371   3.763 -30.695  1.00  0.00    -0.082 N 
HETATM    6  N   UNL     1      -5.610   4.238 -29.681  1.00  0.00    -0.149 NA
HETATM    7  C   UNL     1      -6.519   4.950 -29.006  1.00  0.00     0.275 A 
HETATM    8  N   UNL     1      -7.799   4.904 -29.494  1.00  0.00    -0.054 NA
HETATM    9  C   UNL     1      -5.886   2.859 -31.738  1.00  0.00     0.221 A 
HETATM   10  C   UNL     1      -7.044   2.276 -32.537  1.00  0.00     0.064 A 
HETATM   11  H   UNL     1      -9.587   3.849 -31.203  1.00  0.00     0.184 HD
ENDROOT
BRANCH  10  12
HETATM   12  C   UNL     1      -6.632   1.224 -33.496  1.00  0.00     0.256 C 
HETATM   13  N   UNL     1      -6.446  -0.005 -32.908  1.00  0.00    -0.322 N 
HETATM   14  H   UNL     1      -6.688  -0.080 -31.926  1.00  0.00     0.169 HD
HETATM   15  O   UNL     1      -6.535   1.507 -34.683  1.00  0.00    -0.267 OA
BRANCH  13  16
HETATM   16  C   UNL     1      -5.995  -1.180 -33.543  1.00  0.00     0.052 A 
HETATM   17  C   UNL     1      -4.670  -1.603 -33.600  1.00  0.00     0.145 A 
HETATM   18  N   UNL     1      -4.262  -2.752 -34.202  1.00  0.00    -0.271 NA
HETATM   19  C   UNL     1      -5.217  -3.517 -34.769  1.00  0.00     0.116 A 
HETATM   20  C   UNL     1      -6.560  -3.187 -34.766  1.00  0.00     0.021 A 
HETATM   21  C   UNL     1      -6.951  -2.000 -34.149  1.00  0.00     0.032 A 
ENDBRANCH  13  16
ENDBRANCH  10  12
BRANCH   9  22
HETATM   22  C   UNL     1      -4.886   3.604 -32.617  1.00  0.00     0.064 A 
HETATM   23  N   UNL     1      -5.360   4.536 -33.494  1.00  0.00    -0.263 NA
HETATM   24  C   UNL     1      -4.453   5.205 -34.241  1.00  0.00     0.117 A 
HETATM   25  C   UNL     1      -3.088   4.992 -34.173  1.00  0.00     0.019 A 
HETATM   26  C   UNL     1      -2.616   4.038 -33.280  1.00  0.00     0.003 A 
HETATM   27  C   UNL     1      -3.521   3.337 -32.490  1.00  0.00     0.030 A 
ENDBRANCH   9  22
TORSDOF 3
ENDMDL
MODEL 5
REMARK VINA RESULT:      -7.3     14.764     16.384
REMARK  3 active torsions:
REMARK  status: ('A' for Active; 'I' for Inactive)
REMARK    1  A    between atoms: C_9  and  C_10 
REMARK    2  A    between atoms: C_16  and  C_17 
REMARK       I    between atoms: C_17  and  N_18 
REMARK    3  A    between atoms: N_18  and  C_19 
ROOT
HETATM    1  C   UNL     1      -4.002 -12.388 -37.595  1.00  0.00     0.070 C 
HETATM    2  C   UNL     1      -4.804 -13.008 -38.709  1.00  0.00     0.037 A 
HETATM    3  N   UNL     1      -4.270 -12.873 -39.986  1.00  0.00    -0.192 N 
HETATM    4  C   UNL     1      -4.763 -13.521 -41.061  1.00  0.00     0.725 A 
HETATM    5  N   UNL     1      -5.914 -14.253 -40.936  1.00  0.00    -0.082 N 
HETATM    6  N   UNL     1      -6.175 -14.946 -42.069  1.00  0.00    -0.149 NA
HETATM    7  C   UNL     1      -5.187 -14.509 -42.857  1.00  0.00     0.275 A 
HETATM    8  N   UNL     1      -4.298 -13.641 -42.277  1.00  0.00    -0.054 NA
HETATM    9  C   UNL     1      -6.676 -14.382 -39.694  1.00  0.00     0.221 A 
HETATM   10  C   UNL     1      -5.950 -13.709 -38.536  1.00  0.00     0.064 A 
HETATM   11  H   UNL     1      -3.376 -12.400 -40.078  1.00  0.00     0.184 HD
ENDROOT
BRANCH  10  12
HETATM   12  C   UNL     1      -6.585 -13.951 -37.219  1.00  0.00     0.256 C 
HETATM   13  N   UNL     1      -6.039 -15.014 -36.538  1.00  0.00    -0.322 N 
HETATM   14  H   UNL     1      -5.227 -15.452 -36.957  1.00  0.00     0.169 HD
HETATM   15  O   UNL     1      -7.473 -13.198 -36.840  1.00  0.00    -0.267 OA
BRANCH  13  16
HETATM   16  C   UNL     1      -6.468 -15.527 -35.297  1.00  0.00     0.052 A 
HETATM   17  C   UNL     1      -7.277 -16.647 -35.129  1.00  0.00     0.145 A 
HETATM   18  N   UNL     1      -7.661 -17.135 -33.919  1.00  0.00    -0.271 NA
HETATM   19  C   UNL     1      -7.217 -16.479 -32.828  1.00  0.00     0.116 A 
HETATM   20  C   UNL     1      -6.410 -15.358 -32.887  1.00  0.00     0.021 A 
HETATM   21  C   UNL     1      -6.036 -14.874 -34.139  1.00  0.00     0.032 A 
ENDBRANCH  13  16
ENDBRANCH  10  12
BRANCH   9  22
HETATM   22  C   UNL     1      -8.078 -13.822 -39.910  1.00  0.00     0.064 A 
HETATM   23  N   UNL     1      -9.138 -14.677 -39.828  1.00  0.00    -0.263 NA
HETATM   24  C   UNL     1     -10.374 -14.153 -39.994  1.00  0.00     0.117 A 
HETATM   25  C   UNL     1     -10.619 -12.815 -40.250  1.00  0.00     0.019 A 
HETATM   26  C   UNL     1      -9.532 -11.955 -40.335  1.00  0.00     0.003 A 
HETATM   27  C   UNL     1      -8.247 -12.459 -40.161  1.00  0.00     0.030 A 
ENDBRANCH   9  22
TORSDOF 3
ENDMDL
MODEL 6
REMARK VINA RESULT:      -7.2      2.201      6.053
REMARK  3 active torsions:
REMARK  status: ('A' for Active; 'I' for Inactive)
REMARK    1  A    between atoms: C_9  and  C_10 
REMARK    2  A    between atoms: C_16  and  C_17 
REMARK       I    between atoms: C_17  and  N_18 
REMARK    3  A    between atoms: N_18  and  C_19 
ROOT
HETATM    1  C   UNL     1      -3.232   0.624 -32.203  1.00  0.00     0.070 C 
HETATM    2  C   UNL     1      -4.469  -0.091 -32.682  1.00  0.00     0.037 A 
HETATM    3  N   UNL     1      -4.286  -0.970 -33.744  1.00  0.00    -0.192 N 
HETATM    4  C   UNL     1      -5.243  -1.817 -34.170  1.00  0.00     0.725 A 
HETATM    5  N   UNL     1      -6.498  -1.742 -33.628  1.00  0.00    -0.082 N 
HETATM    6  N   UNL     1      -7.280  -2.757 -34.066  1.00  0.00    -0.149 NA
HETATM    7  C   UNL     1      -6.452  -3.346 -34.935  1.00  0.00     0.275 A 
HETATM    8  N   UNL     1      -5.195  -2.806 -35.025  1.00  0.00    -0.054 NA
HETATM    9  C   UNL     1      -6.893  -0.779 -32.600  1.00  0.00     0.221 A 
HETATM   10  C   UNL     1      -5.696   0.031 -32.122  1.00  0.00     0.064 A 
HETATM   11  H   UNL     1      -3.342  -1.091 -34.101  1.00  0.00     0.184 HD
ENDROOT
BRANCH  10  12
HETATM   12  C   UNL     1      -5.996   0.904 -30.962  1.00  0.00     0.256 C 
HETATM   13  N   UNL     1      -6.303   2.196 -31.319  1.00  0.00    -0.322 N 
HETATM   14  H   UNL     1      -6.376   2.388 -32.312  1.00  0.00     0.169 HD
HETATM   15  O   UNL     1      -5.989   0.421 -29.838  1.00  0.00    -0.267 OA
BRANCH  13  16
HETATM   16  C   UNL     1      -6.570   3.269 -30.444  1.00  0.00     0.052 A 
HETATM   17  C   UNL     1      -5.610   3.971 -29.720  1.00  0.00     0.145 A 
HETATM   18  N   UNL     1      -5.890   5.016 -28.897  1.00  0.00    -0.271 NA
HETATM   19  C   UNL     1      -7.184   5.381 -28.792  1.00  0.00     0.116 A 
HETATM   20  C   UNL     1      -8.212   4.750 -29.469  1.00  0.00     0.021 A 
HETATM   21  C   UNL     1      -7.898   3.677 -30.301  1.00  0.00     0.032 A 
ENDBRANCH  13  16
ENDBRANCH  10  12
BRANCH   9  22
HETATM   22  C   UNL     1      -8.014   0.100 -33.146  1.00  0.00     0.064 A 
HETATM   23  N   UNL     1      -7.701   1.047 -34.079  1.00  0.00    -0.263 NA
HETATM   24  C   UNL     1      -8.715   1.794 -34.570  1.00  0.00     0.117 A 
HETATM   25  C   UNL     1     -10.035   1.661 -34.178  1.00  0.00     0.019 A 
HETATM   26  C   UNL     1     -10.342   0.697 -33.225  1.00  0.00     0.003 A 
HETATM   27  C   UNL     1      -9.324  -0.095 -32.704  1.00  0.00     0.030 A 
ENDBRANCH   9  22
TORSDOF 3
ENDMDL
MODEL 7
REMARK VINA RESULT:      -7.1     14.693     16.637
REMARK  3 active torsions:
REMARK  status: ('A' for Active; 'I' for Inactive)
REMARK    1  A    between atoms: C_9  and  C_10 
REMARK    2  A    between atoms: C_16  and  C_17 
REMARK       I    between atoms: C_17  and  N_18 
REMARK    3  A    between atoms: N_18  and  C_19 
ROOT
HETATM    1  C   UNL     1      -4.365 -13.173 -35.929  1.00  0.00     0.070 C 
HETATM    2  C   UNL     1      -4.941 -13.069 -37.317  1.00  0.00     0.037 A 
HETATM    3  N   UNL     1      -6.329 -13.012 -37.394  1.00  0.00    -0.192 N 
HETATM    4  C   UNL     1      -6.990 -12.736 -38.535  1.00  0.00     0.725 A 
HETATM    5  N   UNL     1      -6.293 -12.624 -39.708  1.00  0.00    -0.082 N 
HETATM    6  N   UNL     1      -7.095 -12.203 -40.714  1.00  0.00    -0.149 NA
HETATM    7  C   UNL     1      -8.276 -12.170 -40.087  1.00  0.00     0.275 A 
HETATM    8  N   UNL     1      -8.255 -12.483 -38.753  1.00  0.00    -0.054 NA
HETATM    9  C   UNL     1      -4.844 -12.795 -39.822  1.00  0.00     0.221 A 
HETATM   10  C   UNL     1      -4.207 -12.979 -38.452  1.00  0.00     0.064 A 
HETATM   11  H   UNL     1      -6.851 -13.015 -36.522  1.00  0.00     0.184 HD
ENDROOT
BRANCH  10  12
HETATM   12  C   UNL     1      -2.725 -12.987 -38.484  1.00  0.00     0.256 C 
HETATM   13  N   UNL     1      -2.192 -14.235 -38.704  1.00  0.00    -0.322 N 
HETATM   14  H   UNL     1      -2.850 -14.981 -38.903  1.00  0.00     0.169 HD
HETATM   15  O   UNL     1      -2.122 -11.929 -38.360  1.00  0.00    -0.267 OA
BRANCH  13  16
HETATM   16  C   UNL     1      -0.824 -14.573 -38.725  1.00  0.00     0.052 A 
HETATM   17  C   UNL     1       0.027 -14.408 -39.814  1.00  0.00     0.145 A 
HETATM   18  N   UNL     1       1.349 -14.723 -39.804  1.00  0.00    -0.271 NA
HETATM   19  C   UNL     1       1.848 -15.223 -38.655  1.00  0.00     0.116 A 
HETATM   20  C   UNL     1       1.089 -15.426 -37.517  1.00  0.00     0.021 A 
HETATM   21  C   UNL     1      -0.266 -15.100 -37.557  1.00  0.00     0.032 A 
ENDBRANCH  13  16
ENDBRANCH  10  12
BRANCH   9  22
HETATM   22  C   UNL     1      -4.554 -13.960 -40.764  1.00  0.00     0.064 A 
HETATM   23  N   UNL     1      -3.606 -13.792 -41.731  1.00  0.00    -0.263 NA
HETATM   24  C   UNL     1      -3.345 -14.847 -42.535  1.00  0.00     0.117 A 
HETATM   25  C   UNL     1      -3.985 -16.070 -42.439  1.00  0.00     0.019 A 
HETATM   26  C   UNL     1      -4.952 -16.228 -41.454  1.00  0.00     0.003 A 
HETATM   27  C   UNL     1      -5.240 -15.165 -40.604  1.00  0.00     0.030 A 
ENDBRANCH   9  22
TORSDOF 3
ENDMDL
MODEL 8
REMARK VINA RESULT:      -7.0      2.926      6.460
REMARK  3 active torsions:
REMARK  status: ('A' for Active; 'I' for Inactive)
REMARK    1  A    between atoms: C_9  and  C_10 
REMARK    2  A    between atoms: C_16  and  C_17 
REMARK       I    between atoms: C_17  and  N_18 
REMARK    3  A    between atoms: N_18  and  C_19 
ROOT
HETATM    1  C   UNL     1      -9.126   5.281 -31.115  1.00  0.00     0.070 C 
HETATM    2  C   UNL     1      -9.426   4.172 -32.089  1.00  0.00     0.037 A 
HETATM    3  N   UNL     1     -10.712   3.646 -32.030  1.00  0.00    -0.192 N 
HETATM    4  C   UNL     1     -11.195   2.783 -32.946  1.00  0.00     0.725 A 
HETATM    5  N   UNL     1     -10.363   2.295 -33.917  1.00  0.00    -0.082 N 
HETATM    6  N   UNL     1     -11.049   1.566 -34.827  1.00  0.00    -0.149 NA
HETATM    7  C   UNL     1     -12.272   1.587 -34.285  1.00  0.00     0.275 A 
HETATM    8  N   UNL     1     -12.406   2.326 -33.138  1.00  0.00    -0.054 NA
HETATM    9  C   UNL     1      -8.946   2.641 -34.034  1.00  0.00     0.221 A 
HETATM   10  C   UNL     1      -8.559   3.710 -33.022  1.00  0.00     0.064 A 
HETATM   11  H   UNL     1     -11.361   4.057 -31.366  1.00  0.00     0.184 HD
ENDROOT
BRANCH  10  12
HETATM   12  C   UNL     1      -7.181   4.226 -33.203  1.00  0.00     0.256 C 
HETATM   13  N   UNL     1      -6.301   3.772 -32.249  1.00  0.00    -0.322 N 
HETATM   14  H   UNL     1      -6.656   3.083 -31.594  1.00  0.00     0.169 HD
HETATM   15  O   UNL     1      -6.937   4.946 -34.162  1.00  0.00    -0.267 OA
BRANCH  13  16
HETATM   16  C   UNL     1      -4.945   4.133 -32.116  1.00  0.00     0.052 A 
HETATM   17  C   UNL     1      -4.462   5.148 -31.295  1.00  0.00     0.145 A 
HETATM   18  N   UNL     1      -3.146   5.465 -31.169  1.00  0.00    -0.271 NA
HETATM   19  C   UNL     1      -2.270   4.736 -31.890  1.00  0.00     0.116 A 
HETATM   20  C   UNL     1      -2.647   3.707 -32.734  1.00  0.00     0.021 A 
HETATM   21  C   UNL     1      -4.003   3.407 -32.850  1.00  0.00     0.032 A 
ENDBRANCH  13  16
ENDBRANCH  10  12
BRANCH   9  22
HETATM   22  C   UNL     1      -8.111   1.371 -33.892  1.00  0.00     0.064 A 
HETATM   23  N   UNL     1      -7.875   0.886 -32.638  1.00  0.00    -0.263 NA
HETATM   24  C   UNL     1      -7.158  -0.256 -32.539  1.00  0.00     0.117 A 
HETATM   25  C   UNL     1      -6.648  -0.946 -33.624  1.00  0.00     0.019 A 
HETATM   26  C   UNL     1      -6.890  -0.441 -34.895  1.00  0.00     0.003 A 
HETATM   27  C   UNL     1      -7.632   0.728 -35.035  1.00  0.00     0.030 A 
ENDBRANCH   9  22
TORSDOF 3
ENDMDL
MODEL 9
REMARK VINA RESULT:      -6.9      4.971      8.567
REMARK  3 active torsions:
REMARK  status: ('A' for Active; 'I' for Inactive)
REMARK    1  A    between atoms: C_9  and  C_10 
REMARK    2  A    between atoms: C_16  and  C_17 
REMARK       I    between atoms: C_17  and  N_18 
REMARK    3  A    between atoms: N_18  and  C_19 
ROOT
HETATM    1  C   UNL     1      -0.824   6.839 -33.439  1.00  0.00     0.070 C 
HETATM    2  C   UNL     1      -2.101   6.121 -33.085  1.00  0.00     0.037 A 
HETATM    3  N   UNL     1      -3.022   5.981 -34.118  1.00  0.00    -0.192 N 
HETATM    4  C   UNL     1      -4.124   5.212 -34.020  1.00  0.00     0.725 A 
HETATM    5  N   UNL     1      -4.435   4.630 -32.820  1.00  0.00    -0.082 N 
HETATM    6  N   UNL     1      -5.483   3.784 -32.945  1.00  0.00    -0.149 NA
HETATM    7  C   UNL     1      -5.803   3.979 -34.229  1.00  0.00     0.275 A 
HETATM    8  N   UNL     1      -4.994   4.841 -34.924  1.00  0.00    -0.054 NA
HETATM    9  C   UNL     1      -3.645   4.792 -31.599  1.00  0.00     0.221 A 
HETATM   10  C   UNL     1      -2.369   5.576 -31.874  1.00  0.00     0.064 A 
HETATM   11  H   UNL     1      -2.765   6.341 -35.033  1.00  0.00     0.184 HD
ENDROOT
BRANCH  10  12
HETATM   12  C   UNL     1      -1.444   5.628 -30.717  1.00  0.00     0.256 C 
HETATM   13  N   UNL     1      -1.591   6.761 -29.952  1.00  0.00    -0.322 N 
HETATM   14  H   UNL     1      -2.354   7.381 -30.202  1.00  0.00     0.169 HD
HETATM   15  O   UNL     1      -0.688   4.686 -30.519  1.00  0.00    -0.267 OA
BRANCH  13  16
HETATM   16  C   UNL     1      -0.818   7.124 -28.831  1.00  0.00     0.052 A 
HETATM   17  C   UNL     1      -1.190   6.933 -27.504  1.00  0.00     0.145 A 
HETATM   18  N   UNL     1      -0.418   7.274 -26.439  1.00  0.00    -0.271 NA
HETATM   19  C   UNL     1       0.782   7.829 -26.707  1.00  0.00     0.116 A 
HETATM   20  C   UNL     1       1.246   8.061 -27.990  1.00  0.00     0.021 A 
HETATM   21  C   UNL     1       0.431   7.707 -29.064  1.00  0.00     0.032 A 
ENDBRANCH  13  16
ENDBRANCH  10  12
BRANCH   9  22
HETATM   22  C   UNL     1      -4.513   5.444 -30.527  1.00  0.00     0.064 A 
HETATM   23  N   UNL     1      -4.652   6.801 -30.542  1.00  0.00    -0.263 NA
HETATM   24  C   UNL     1      -5.450   7.354 -29.600  1.00  0.00     0.117 A 
HETATM   25  C   UNL     1      -6.117   6.629 -28.628  1.00  0.00     0.019 A 
HETATM   26  C   UNL     1      -5.964   5.248 -28.620  1.00  0.00     0.003 A 
HETATM   27  C   UNL     1      -5.157   4.645 -29.580  1.00  0.00     0.030 A 
ENDBRANCH   9  22
TORSDOF 3
ENDMDL
MODEL 10
REMARK VINA RESULT:      -6.9     15.155     16.759
REMARK  3 active torsions:
REMARK  status: ('A' for Active; 'I' for Inactive)
REMARK    1  A    between atoms: C_9  and  C_10 
REMARK    2  A    between atoms: C_16  and  C_17 
REMARK       I    between atoms: C_17  and  N_18 
REMARK    3  A    between atoms: N_18  and  C_19 
ROOT
HETATM    1  C   UNL     1      -4.885 -14.305 -43.134  1.00  0.00     0.070 C 
HETATM    2  C   UNL     1      -4.217 -14.083 -41.802  1.00  0.00     0.037 A 
HETATM    3  N   UNL     1      -2.897 -14.511 -41.708  1.00  0.00    -0.192 N 
HETATM    4  C   UNL     1      -2.105 -14.225 -40.656  1.00  0.00     0.725 A 
HETATM    5  N   UNL     1      -2.636 -13.590 -39.566  1.00  0.00    -0.082 N 
HETATM    6  N   UNL     1      -1.672 -13.256 -38.677  1.00  0.00    -0.149 NA
HETATM    7  C   UNL     1      -0.600 -13.801 -39.263  1.00  0.00     0.275 A 
HETATM    8  N   UNL     1      -0.821 -14.399 -40.477  1.00  0.00    -0.054 NA
HETATM    9  C   UNL     1      -4.041 -13.197 -39.448  1.00  0.00     0.221 A 
HETATM   10  C   UNL     1      -4.794 -13.464 -40.744  1.00  0.00     0.064 A 
HETATM   11  H   UNL     1      -2.469 -14.912 -42.538  1.00  0.00     0.184 HD
ENDROOT
BRANCH  10  12
HETATM   12  C   UNL     1      -6.177 -12.931 -40.746  1.00  0.00     0.256 C 
HETATM   13  N   UNL     1      -7.126 -13.880 -40.451  1.00  0.00    -0.322 N 
HETATM   14  H   UNL     1      -6.784 -14.797 -40.184  1.00  0.00     0.169 HD
HETATM   15  O   UNL     1      -6.353 -11.739 -40.960  1.00  0.00    -0.267 OA
BRANCH  13  16
HETATM   16  C   UNL     1      -8.524 -13.696 -40.439  1.00  0.00     0.052 A 
HETATM   17  C   UNL     1      -9.465 -14.680 -40.728  1.00  0.00     0.145 A 
HETATM   18  N   UNL     1     -10.809 -14.484 -40.691  1.00  0.00    -0.271 NA
HETATM   19  C   UNL     1     -11.237 -13.252 -40.346  1.00  0.00     0.116 A 
HETATM   20  C   UNL     1     -10.385 -12.206 -40.039  1.00  0.00     0.021 A 
HETATM   21  C   UNL     1      -9.010 -12.433 -40.092  1.00  0.00     0.032 A 
ENDBRANCH  13  16
ENDBRANCH  10  12
BRANCH   9  22
HETATM   22  C   UNL     1      -4.660 -13.915 -38.253  1.00  0.00     0.064 A 
HETATM   23  N   UNL     1      -4.995 -15.231 -38.389  1.00  0.00    -0.263 NA
HETATM   24  C   UNL     1      -5.515 -15.855 -37.307  1.00  0.00     0.117 A 
HETATM   25  C   UNL     1      -5.732 -15.238 -36.088  1.00  0.00     0.019 A 
HETATM   26  C   UNL     1      -5.392 -13.897 -35.963  1.00  0.00     0.003 A 
HETATM   27  C   UNL     1      -4.847 -13.226 -37.053  1.00  0.00     0.030 A 
ENDBRANCH   9  22
TORSDOF 3
ENDMDL
