MODEL 1
REMARK VINA RESULT:      -9.1      0.000      0.000
REMARK  5 active torsions:
REMARK  status: ('A' for Active; 'I' for Inactive)
REMARK    1  A    between atoms: C_2  and  C_3 
REMARK    2  A    between atoms: C_8  and  C_9 
REMARK       I    between atoms: C_9  and  N_10 
REMARK    3  A    between atoms: N_10  and  C_11 
REMARK    4  A    between atoms: C_11  and  C_12 
REMARK    5  A    between atoms: C_19  and  C_20 
ROOT
HETATM    1  C   UNL     1      -5.248   0.428 -32.216  1.00  0.00     0.118 C 
HETATM    2  N   UNL     1      -4.106   1.203 -32.709  1.00  0.00    -0.366 N 
HETATM    3  C   UNL     1      -4.007   2.499 -32.349  1.00  0.00     0.123 A 
HETATM    4  N   UNL     1      -5.133   3.252 -32.219  1.00  0.00    -0.240 N 
HETATM    5  N   UNL     1      -4.917   4.502 -31.782  1.00  0.00    -0.165 NA
HETATM    6  C   UNL     1      -3.566   4.580 -31.725  1.00  0.00     0.148 A 
HETATM    7  C   UNL     1      -2.960   3.342 -32.089  1.00  0.00     0.088 A 
HETATM    8  C   UNL     1      -6.454   2.732 -32.492  1.00  0.00     0.221 C 
HETATM    9  C   UNL     1      -6.549   1.252 -32.077  1.00  0.00     0.066 C 
HETATM   10  H   UNL     1      -3.247   0.652 -32.747  1.00  0.00     0.161 HD
ENDROOT
BRANCH   6  11
HETATM   11  C   UNL     1      -2.867   5.812 -31.324  1.00  0.00     0.272 C 
HETATM   12  N   UNL     1      -1.712   6.042 -32.037  1.00  0.00    -0.353 N 
HETATM   13  H   UNL     1      -1.403   5.266 -32.617  1.00  0.00     0.162 HD
HETATM   14  O   UNL     1      -3.269   6.549 -30.428  1.00  0.00    -0.266 OA
BRANCH  12  15
HETATM   15  C   UNL     1      -0.768   7.079 -31.676  1.00  0.00     0.155 C 
BRANCH  15  16
HETATM   16  C   UNL     1       0.296   6.575 -30.699  1.00  0.00     0.139 C 
HETATM   17  O   UNL     1      -0.120   6.804 -29.339  1.00  0.00    -0.384 OA
HETATM   18  C   UNL     1       0.474   5.787 -28.518  1.00  0.00     0.168 C 
HETATM   19  C   UNL     1       1.136   4.779 -29.440  1.00  0.00     0.029 C 
HETATM   20  C   UNL     1       0.519   5.077 -30.785  1.00  0.00     0.035 C 
ENDBRANCH  15  16
ENDBRANCH  12  15
ENDBRANCH   6  11
BRANCH   8  21
HETATM   21  C   UNL     1      -6.803   2.948 -33.947  1.00  0.00     0.409 C 
HETATM   22  F   UNL     1      -6.084   3.949 -34.505  1.00  0.00    -0.169 F 
HETATM   23  F   UNL     1      -6.646   1.854 -34.718  1.00  0.00    -0.169 F 
HETATM   24  F   UNL     1      -8.108   3.315 -34.056  1.00  0.00    -0.169 F 
ENDBRANCH   8  21
BRANCH   1  25
HETATM   25  C   UNL     1      -5.441  -0.821 -33.059  1.00  0.00    -0.035 A 
HETATM   26  C   UNL     1      -6.723  -1.153 -33.530  1.00  0.00     0.011 A 
HETATM   27  C   UNL     1      -6.925  -2.295 -34.311  1.00  0.00     0.024 A 
HETATM   28  C   UNL     1      -5.845  -3.113 -34.633  1.00  0.00     0.034 A 
HETATM   29  C   UNL     1      -4.567  -2.799 -34.182  1.00  0.00     0.024 A 
HETATM   30 CL   UNL     1      -6.096  -4.520 -35.590  1.00  0.00    -0.084 Cl
HETATM   31  C   UNL     1      -4.366  -1.659 -33.398  1.00  0.00     0.011 A 
ENDBRANCH   1  25
TORSDOF 5
ENDMDL
MODEL 2
REMARK VINA RESULT:      -8.9      1.490      1.895
REMARK  5 active torsions:
REMARK  status: ('A' for Active; 'I' for Inactive)
REMARK    1  A    between atoms: C_2  and  C_3 
REMARK    2  A    between atoms: C_8  and  C_9 
REMARK       I    between atoms: C_9  and  N_10 
REMARK    3  A    between atoms: N_10  and  C_11 
REMARK    4  A    between atoms: C_11  and  C_12 
REMARK    5  A    between atoms: C_19  and  C_20 
ROOT
HETATM    1  C   UNL     1      -4.689   0.001 -32.059  1.00  0.00     0.118 C 
HETATM    2  N   UNL     1      -4.578   1.244 -32.828  1.00  0.00    -0.366 N 
HETATM    3  C   UNL     1      -4.602   2.416 -32.162  1.00  0.00     0.123 A 
HETATM    4  N   UNL     1      -5.392   2.550 -31.061  1.00  0.00    -0.240 N 
HETATM    5  N   UNL     1      -5.274   3.732 -30.436  1.00  0.00    -0.165 NA
HETATM    6  C   UNL     1      -4.436   4.426 -31.242  1.00  0.00     0.148 A 
HETATM    7  C   UNL     1      -4.004   3.633 -32.346  1.00  0.00     0.088 A 
HETATM    8  C   UNL     1      -6.252   1.491 -30.585  1.00  0.00     0.221 C 
HETATM    9  C   UNL     1      -5.596   0.117 -30.812  1.00  0.00     0.066 C 
HETATM   10  H   UNL     1      -3.937   1.158 -33.619  1.00  0.00     0.161 HD
ENDROOT
BRANCH   6  11
HETATM   11  C   UNL     1      -4.050   5.819 -30.960  1.00  0.00     0.272 C 
HETATM   12  N   UNL     1      -3.462   6.450 -32.033  1.00  0.00    -0.353 N 
HETATM   13  H   UNL     1      -3.217   5.841 -32.810  1.00  0.00     0.162 HD
HETATM   14  O   UNL     1      -4.221   6.353 -29.869  1.00  0.00    -0.266 OA
BRANCH  12  15
HETATM   15  C   UNL     1      -2.825   7.746 -31.919  1.00  0.00     0.155 C 
BRANCH  15  16
HETATM   16  C   UNL     1      -1.335   7.630 -31.594  1.00  0.00     0.139 C 
HETATM   17  O   UNL     1      -1.125   7.672 -30.169  1.00  0.00    -0.384 OA
HETATM   18  C   UNL     1       0.058   6.913 -29.874  1.00  0.00     0.168 C 
HETATM   19  C   UNL     1       0.492   6.221 -31.154  1.00  0.00     0.029 C 
HETATM   20  C   UNL     1      -0.733   6.308 -32.032  1.00  0.00     0.035 C 
ENDBRANCH  15  16
ENDBRANCH  12  15
ENDBRANCH   6  11
BRANCH   8  21
HETATM   21  C   UNL     1      -7.612   1.598 -31.239  1.00  0.00     0.409 C 
HETATM   22  F   UNL     1      -8.431   2.452 -30.584  1.00  0.00    -0.169 F 
HETATM   23  F   UNL     1      -7.571   1.979 -32.531  1.00  0.00    -0.169 F 
HETATM   24  F   UNL     1      -8.229   0.386 -31.212  1.00  0.00    -0.169 F 
ENDBRANCH   8  21
BRANCH   1  25
HETATM   25  C   UNL     1      -5.095  -1.147 -32.967  1.00  0.00    -0.035 A 
HETATM   26  C   UNL     1      -6.410  -1.214 -33.460  1.00  0.00     0.011 A 
HETATM   27  C   UNL     1      -6.806  -2.258 -34.301  1.00  0.00     0.024 A 
HETATM   28  C   UNL     1      -5.889  -3.242 -34.662  1.00  0.00     0.034 A 
HETATM   29  C   UNL     1      -4.582  -3.191 -34.189  1.00  0.00     0.024 A 
HETATM   30 CL   UNL     1      -6.380  -4.529 -35.692  1.00  0.00    -0.084 Cl
HETATM   31  C   UNL     1      -4.187  -2.149 -33.346  1.00  0.00     0.011 A 
ENDBRANCH   1  25
TORSDOF 5
ENDMDL
MODEL 3
REMARK VINA RESULT:      -8.8      1.120      1.793
REMARK  5 active torsions:
REMARK  status: ('A' for Active; 'I' for Inactive)
REMARK    1  A    between atoms: C_2  and  C_3 
REMARK    2  A    between atoms: C_8  and  C_9 
REMARK       I    between atoms: C_9  and  N_10 
REMARK    3  A    between atoms: N_10  and  C_11 
REMARK    4  A    between atoms: C_11  and  C_12 
REMARK    5  A    between atoms: C_19  and  C_20 
ROOT
HETATM    1  C   UNL     1      -5.254   0.551 -32.174  1.00  0.00     0.118 C 
HETATM    2  N   UNL     1      -4.068   1.286 -32.620  1.00  0.00    -0.366 N 
HETATM    3  C   UNL     1      -3.936   2.577 -32.252  1.00  0.00     0.123 A 
HETATM    4  N   UNL     1      -5.040   3.369 -32.163  1.00  0.00    -0.240 N 
HETATM    5  N   UNL     1      -4.796   4.609 -31.714  1.00  0.00    -0.165 NA
HETATM    6  C   UNL     1      -3.446   4.640 -31.605  1.00  0.00     0.148 A 
HETATM    7  C   UNL     1      -2.870   3.381 -31.949  1.00  0.00     0.088 A 
HETATM    8  C   UNL     1      -6.366   2.897 -32.488  1.00  0.00     0.221 C 
HETATM    9  C   UNL     1      -6.530   1.420 -32.082  1.00  0.00     0.066 C 
HETATM   10  H   UNL     1      -3.227   0.704 -32.628  1.00  0.00     0.161 HD
ENDROOT
BRANCH   6  11
HETATM   11  C   UNL     1      -2.720   5.845 -31.173  1.00  0.00     0.272 C 
HETATM   12  N   UNL     1      -2.937   6.170 -29.853  1.00  0.00    -0.353 N 
HETATM   13  H   UNL     1      -3.685   5.652 -29.400  1.00  0.00     0.162 HD
HETATM   14  O   UNL     1      -2.008   6.504 -31.926  1.00  0.00    -0.266 OA
BRANCH  12  15
HETATM   15  C   UNL     1      -2.488   7.420 -29.276  1.00  0.00     0.155 C 
BRANCH  15  16
HETATM   16  C   UNL     1      -1.299   7.227 -28.334  1.00  0.00     0.139 C 
HETATM   17  O   UNL     1      -0.547   6.055 -28.705  1.00  0.00    -0.384 OA
HETATM   18  C   UNL     1       0.821   6.268 -28.323  1.00  0.00     0.168 C 
HETATM   19  C   UNL     1       0.951   7.709 -27.863  1.00  0.00     0.029 C 
HETATM   20  C   UNL     1      -0.296   8.364 -28.404  1.00  0.00     0.035 C 
ENDBRANCH  15  16
ENDBRANCH  12  15
ENDBRANCH   6  11
BRANCH   8  21
HETATM   21  C   UNL     1      -6.651   3.128 -33.955  1.00  0.00     0.409 C 
HETATM   22  F   UNL     1      -7.838   3.746 -34.155  1.00  0.00    -0.169 F 
HETATM   23  F   UNL     1      -5.705   3.844 -34.592  1.00  0.00    -0.169 F 
HETATM   24  F   UNL     1      -6.734   1.933 -34.599  1.00  0.00    -0.169 F 
ENDBRANCH   8  21
BRANCH   1  25
HETATM   25  C   UNL     1      -5.459  -0.689 -33.028  1.00  0.00    -0.035 A 
HETATM   26  C   UNL     1      -4.348  -1.461 -33.411  1.00  0.00     0.011 A 
HETATM   27  C   UNL     1      -4.511  -2.609 -34.193  1.00  0.00     0.024 A 
HETATM   28  C   UNL     1      -5.786  -3.000 -34.593  1.00  0.00     0.034 A 
HETATM   29  C   UNL     1      -6.899  -2.253 -34.218  1.00  0.00     0.024 A 
HETATM   30 CL   UNL     1      -5.984  -4.410 -35.558  1.00  0.00    -0.084 Cl
HETATM   31  C   UNL     1      -6.735  -1.103 -33.440  1.00  0.00     0.011 A 
ENDBRANCH   1  25
TORSDOF 5
ENDMDL
MODEL 4
REMARK VINA RESULT:      -8.7      4.243      8.622
REMARK  5 active torsions:
REMARK  status: ('A' for Active; 'I' for Inactive)
REMARK    1  A    between atoms: C_2  and  C_3 
REMARK    2  A    between atoms: C_8  and  C_9 
REMARK       I    between atoms: C_9  and  N_10 
REMARK    3  A    between atoms: N_10  and  C_11 
REMARK    4  A    between atoms: C_11  and  C_12 
REMARK    5  A    between atoms: C_19  and  C_20 
ROOT
HETATM    1  C   UNL     1      -1.899   4.529 -31.975  1.00  0.00     0.118 C 
HETATM    2  N   UNL     1      -2.762   3.646 -31.185  1.00  0.00    -0.366 N 
HETATM    3  C   UNL     1      -3.777   3.014 -31.808  1.00  0.00     0.123 A 
HETATM    4  N   UNL     1      -4.449   3.643 -32.811  1.00  0.00    -0.240 N 
HETATM    5  N   UNL     1      -5.385   2.888 -33.408  1.00  0.00    -0.165 NA
HETATM    6  C   UNL     1      -5.375   1.748 -32.677  1.00  0.00     0.148 A 
HETATM    7  C   UNL     1      -4.385   1.797 -31.653  1.00  0.00     0.088 A 
HETATM    8  C   UNL     1      -4.149   4.995 -33.222  1.00  0.00     0.221 C 
HETATM    9  C   UNL     1      -2.639   5.272 -33.111  1.00  0.00     0.066 C 
HETATM   10  H   UNL     1      -2.243   3.129 -30.472  1.00  0.00     0.161 HD
ENDROOT
BRANCH   6  11
HETATM   11  C   UNL     1      -6.291   0.629 -32.957  1.00  0.00     0.272 C 
HETATM   12  N   UNL     1      -5.891  -0.151 -34.018  1.00  0.00    -0.353 N 
HETATM   13  H   UNL     1      -5.128   0.232 -34.570  1.00  0.00     0.162 HD
HETATM   14  O   UNL     1      -7.317   0.427 -32.315  1.00  0.00    -0.266 OA
BRANCH  12  15
HETATM   15  C   UNL     1      -6.738  -1.176 -34.592  1.00  0.00     0.155 C 
BRANCH  15  16
HETATM   16  C   UNL     1      -5.940  -2.405 -35.030  1.00  0.00     0.139 C 
HETATM   17  O   UNL     1      -4.721  -2.513 -34.268  1.00  0.00    -0.384 OA
HETATM   18  C   UNL     1      -4.377  -3.904 -34.179  1.00  0.00     0.168 C 
HETATM   19  C   UNL     1      -5.534  -4.702 -34.753  1.00  0.00     0.029 C 
HETATM   20  C   UNL     1      -6.670  -3.710 -34.770  1.00  0.00     0.035 C 
ENDBRANCH  15  16
ENDBRANCH  12  15
ENDBRANCH   6  11
BRANCH   8  21
HETATM   21  C   UNL     1      -4.977   5.974 -32.419  1.00  0.00     0.409 C 
HETATM   22  F   UNL     1      -6.164   6.247 -33.010  1.00  0.00    -0.169 F 
HETATM   23  F   UNL     1      -5.231   5.574 -31.158  1.00  0.00    -0.169 F 
HETATM   24  F   UNL     1      -4.320   7.161 -32.325  1.00  0.00    -0.169 F 
ENDBRANCH   8  21
BRANCH   1  25
HETATM   25  C   UNL     1      -1.134   5.474 -31.064  1.00  0.00    -0.035 A 
HETATM   26  C   UNL     1      -0.129   4.969 -30.222  1.00  0.00     0.011 A 
HETATM   27  C   UNL     1       0.591   5.819 -29.377  1.00  0.00     0.024 A 
HETATM   28  C   UNL     1       0.317   7.185 -29.373  1.00  0.00     0.034 A 
HETATM   29  C   UNL     1      -0.669   7.706 -30.205  1.00  0.00     0.024 A 
HETATM   30 CL   UNL     1       1.201   8.229 -28.331  1.00  0.00    -0.084 Cl
HETATM   31  C   UNL     1      -1.391   6.854 -31.046  1.00  0.00     0.011 A 
ENDBRANCH   1  25
TORSDOF 5
ENDMDL
MODEL 5
REMARK VINA RESULT:      -8.5      4.950      8.132
REMARK  5 active torsions:
REMARK  status: ('A' for Active; 'I' for Inactive)
REMARK    1  A    between atoms: C_2  and  C_3 
REMARK    2  A    between atoms: C_8  and  C_9 
REMARK       I    between atoms: C_9  and  N_10 
REMARK    3  A    between atoms: N_10  and  C_11 
REMARK    4  A    between atoms: C_11  and  C_12 
REMARK    5  A    between atoms: C_19  and  C_20 
ROOT
HETATM    1  C   UNL     1      -6.269   0.220 -33.622  1.00  0.00     0.118 C 
HETATM    2  N   UNL     1      -7.518   0.044 -32.875  1.00  0.00    -0.366 N 
HETATM    3  C   UNL     1      -8.125   1.139 -32.374  1.00  0.00     0.123 A 
HETATM    4  N   UNL     1      -7.374   2.171 -31.901  1.00  0.00    -0.240 N 
HETATM    5  N   UNL     1      -8.085   3.236 -31.501  1.00  0.00    -0.165 NA
HETATM    6  C   UNL     1      -9.367   2.819 -31.632  1.00  0.00     0.148 A 
HETATM    7  C   UNL     1      -9.430   1.498 -32.166  1.00  0.00     0.088 A 
HETATM    8  C   UNL     1      -5.930   2.135 -31.874  1.00  0.00     0.221 C 
HETATM    9  C   UNL     1      -5.384   1.374 -33.096  1.00  0.00     0.066 C 
HETATM   10  H   UNL     1      -8.109  -0.691 -33.269  1.00  0.00     0.161 HD
ENDROOT
BRANCH   6  11
HETATM   11  C   UNL     1     -10.511   3.669 -31.262  1.00  0.00     0.272 C 
HETATM   12  N   UNL     1     -11.711   3.218 -31.763  1.00  0.00    -0.353 N 
HETATM   13  H   UNL     1     -11.638   2.472 -32.450  1.00  0.00     0.162 HD
HETATM   14  O   UNL     1     -10.397   4.689 -30.588  1.00  0.00    -0.266 OA
BRANCH  12  15
HETATM   15  C   UNL     1     -12.927   4.002 -31.694  1.00  0.00     0.155 C 
BRANCH  15  16
HETATM   16  C   UNL     1     -14.040   3.418 -32.565  1.00  0.00     0.139 C 
HETATM   17  O   UNL     1     -13.512   2.415 -33.455  1.00  0.00    -0.384 OA
HETATM   18  C   UNL     1     -14.554   1.463 -33.718  1.00  0.00     0.168 C 
HETATM   19  C   UNL     1     -15.720   1.794 -32.804  1.00  0.00     0.029 C 
HETATM   20  C   UNL     1     -15.104   2.694 -31.761  1.00  0.00     0.035 C 
ENDBRANCH  15  16
ENDBRANCH  12  15
ENDBRANCH   6  11
BRANCH   8  21
HETATM   21  C   UNL     1      -5.453   1.546 -30.565  1.00  0.00     0.409 C 
HETATM   22  F   UNL     1      -5.496   2.442 -29.553  1.00  0.00    -0.169 F 
HETATM   23  F   UNL     1      -6.137   0.453 -30.174  1.00  0.00    -0.169 F 
HETATM   24  F   UNL     1      -4.151   1.168 -30.680  1.00  0.00    -0.169 F 
ENDBRANCH   8  21
BRANCH   1  25
HETATM   25  C   UNL     1      -5.515  -1.097 -33.707  1.00  0.00    -0.035 A 
HETATM   26  C   UNL     1      -4.445  -1.345 -32.830  1.00  0.00     0.011 A 
HETATM   27  C   UNL     1      -3.739  -2.550 -32.885  1.00  0.00     0.024 A 
HETATM   28  C   UNL     1      -4.101  -3.522 -33.815  1.00  0.00     0.034 A 
HETATM   29  C   UNL     1      -5.162  -3.299 -34.688  1.00  0.00     0.024 A 
HETATM   30 CL   UNL     1      -3.229  -5.003 -33.885  1.00  0.00    -0.084 Cl
HETATM   31  C   UNL     1      -5.865  -2.092 -34.633  1.00  0.00     0.011 A 
ENDBRANCH   1  25
TORSDOF 5
ENDMDL
MODEL 6
REMARK VINA RESULT:      -8.5      5.651      8.261
REMARK  5 active torsions:
REMARK  status: ('A' for Active; 'I' for Inactive)
REMARK    1  A    between atoms: C_2  and  C_3 
REMARK    2  A    between atoms: C_8  and  C_9 
REMARK       I    between atoms: C_9  and  N_10 
REMARK    3  A    between atoms: N_10  and  C_11 
REMARK    4  A    between atoms: C_11  and  C_12 
REMARK    5  A    between atoms: C_19  and  C_20 
ROOT
HETATM    1  C   UNL     1      -6.873   0.009 -34.431  1.00  0.00     0.118 C 
HETATM    2  N   UNL     1      -8.234  -0.304 -33.987  1.00  0.00    -0.366 N 
HETATM    3  C   UNL     1      -9.077   0.717 -33.729  1.00  0.00     0.123 A 
HETATM    4  N   UNL     1      -8.597   1.864 -33.176  1.00  0.00    -0.240 N 
HETATM    5  N   UNL     1      -9.511   2.837 -33.037  1.00  0.00    -0.165 NA
HETATM    6  C   UNL     1     -10.660   2.240 -33.433  1.00  0.00     0.148 A 
HETATM    7  C   UNL     1     -10.427   0.900 -33.863  1.00  0.00     0.088 A 
HETATM    8  C   UNL     1      -7.210   2.031 -32.807  1.00  0.00     0.221 C 
HETATM    9  C   UNL     1      -6.293   1.298 -33.804  1.00  0.00     0.066 C 
HETATM   10  H   UNL     1      -8.616  -1.132 -34.450  1.00  0.00     0.161 HD
ENDROOT
BRANCH   6  11
HETATM   11  C   UNL     1     -11.956   2.938 -33.409  1.00  0.00     0.272 C 
HETATM   12  N   UNL     1     -12.929   2.258 -32.712  1.00  0.00    -0.353 N 
HETATM   13  H   UNL     1     -12.688   1.305 -32.454  1.00  0.00     0.162 HD
HETATM   14  O   UNL     1     -12.150   4.011 -33.973  1.00  0.00    -0.266 OA
BRANCH  12  15
HETATM   15  C   UNL     1     -14.321   2.658 -32.730  1.00  0.00     0.155 C 
BRANCH  15  16
HETATM   16  C   UNL     1     -14.670   3.587 -31.567  1.00  0.00     0.139 C 
HETATM   17  O   UNL     1     -13.538   3.745 -30.690  1.00  0.00    -0.384 OA
HETATM   18  C   UNL     1     -13.626   5.042 -30.081  1.00  0.00     0.168 C 
HETATM   19  C   UNL     1     -14.765   5.789 -30.753  1.00  0.00     0.029 C 
HETATM   20  C   UNL     1     -15.006   4.998 -32.015  1.00  0.00     0.035 C 
ENDBRANCH  15  16
ENDBRANCH  12  15
ENDBRANCH   6  11
BRANCH   8  21
HETATM   21  C   UNL     1      -6.996   1.574 -31.381  1.00  0.00     0.409 C 
HETATM   22  F   UNL     1      -7.772   2.251 -30.504  1.00  0.00    -0.169 F 
HETATM   23  F   UNL     1      -7.212   0.258 -31.188  1.00  0.00    -0.169 F 
HETATM   24  F   UNL     1      -5.709   1.814 -31.011  1.00  0.00    -0.169 F 
ENDBRANCH   8  21
BRANCH   1  25
HETATM   25  C   UNL     1      -5.964  -1.192 -34.234  1.00  0.00    -0.035 A 
HETATM   26  C   UNL     1      -6.258  -2.402 -34.886  1.00  0.00     0.011 A 
HETATM   27  C   UNL     1      -5.435  -3.520 -34.724  1.00  0.00     0.024 A 
HETATM   28  C   UNL     1      -4.305  -3.436 -33.914  1.00  0.00     0.034 A 
HETATM   29  C   UNL     1      -3.992  -2.246 -33.266  1.00  0.00     0.024 A 
HETATM   30 CL   UNL     1      -3.295  -4.814 -33.713  1.00  0.00    -0.084 Cl
HETATM   31  C   UNL     1      -4.818  -1.129 -33.425  1.00  0.00     0.011 A 
ENDBRANCH   1  25
TORSDOF 5
ENDMDL
MODEL 7
REMARK VINA RESULT:      -8.2      1.830      2.412
REMARK  5 active torsions:
REMARK  status: ('A' for Active; 'I' for Inactive)
REMARK    1  A    between atoms: C_2  and  C_3 
REMARK    2  A    between atoms: C_8  and  C_9 
REMARK       I    between atoms: C_9  and  N_10 
REMARK    3  A    between atoms: N_10  and  C_11 
REMARK    4  A    between atoms: C_11  and  C_12 
REMARK    5  A    between atoms: C_19  and  C_20 
ROOT
HETATM    1  C   UNL     1      -3.677  -0.277 -31.590  1.00  0.00     0.118 C 
HETATM    2  N   UNL     1      -3.410   0.853 -32.484  1.00  0.00    -0.366 N 
HETATM    3  C   UNL     1      -3.582   2.103 -32.008  1.00  0.00     0.123 A 
HETATM    4  N   UNL     1      -4.590   2.358 -31.129  1.00  0.00    -0.240 N 
HETATM    5  N   UNL     1      -4.615   3.617 -30.666  1.00  0.00    -0.165 NA
HETATM    6  C   UNL     1      -3.627   4.224 -31.365  1.00  0.00     0.148 A 
HETATM    7  C   UNL     1      -2.965   3.305 -32.231  1.00  0.00     0.088 A 
HETATM    8  C   UNL     1      -5.527   1.344 -30.703  1.00  0.00     0.221 C 
HETATM    9  C   UNL     1      -4.830  -0.024 -30.591  1.00  0.00     0.066 C 
HETATM   10  H   UNL     1      -2.614   0.684 -33.102  1.00  0.00     0.161 HD
ENDROOT
BRANCH   6  11
HETATM   11  C   UNL     1      -3.317   5.655 -31.205  1.00  0.00     0.272 C 
HETATM   12  N   UNL     1      -2.770   5.961 -29.980  1.00  0.00    -0.353 N 
HETATM   13  H   UNL     1      -2.805   5.212 -29.293  1.00  0.00     0.162 HD
HETATM   14  O   UNL     1      -3.544   6.491 -32.075  1.00  0.00    -0.266 OA
BRANCH  12  15
HETATM   15  C   UNL     1      -2.577   7.325 -29.533  1.00  0.00     0.155 C 
BRANCH  15  16
HETATM   16  C   UNL     1      -1.481   7.435 -28.472  1.00  0.00     0.139 C 
HETATM   17  O   UNL     1      -0.557   6.335 -28.585  1.00  0.00    -0.384 OA
HETATM   18  C   UNL     1       0.726   6.785 -28.123  1.00  0.00     0.168 C 
HETATM   19  C   UNL     1       0.631   8.282 -27.888  1.00  0.00     0.029 C 
HETATM   20  C   UNL     1      -0.621   8.675 -28.634  1.00  0.00     0.035 C 
ENDBRANCH  15  16
ENDBRANCH  12  15
ENDBRANCH   6  11
BRANCH   8  21
HETATM   21  C   UNL     1      -6.715   1.314 -31.638  1.00  0.00     0.409 C 
HETATM   22  F   UNL     1      -6.351   1.435 -32.935  1.00  0.00    -0.169 F 
HETATM   23  F   UNL     1      -7.472   0.205 -31.528  1.00  0.00    -0.169 F 
HETATM   24  F   UNL     1      -7.532   2.369 -31.375  1.00  0.00    -0.169 F 
ENDBRANCH   8  21
BRANCH   1  25
HETATM   25  C   UNL     1      -3.873  -1.551 -32.393  1.00  0.00    -0.035 A 
HETATM   26  C   UNL     1      -3.212  -2.729 -32.004  1.00  0.00     0.011 A 
HETATM   27  C   UNL     1      -3.380  -3.915 -32.724  1.00  0.00     0.024 A 
HETATM   28  C   UNL     1      -4.216  -3.936 -33.838  1.00  0.00     0.034 A 
HETATM   29  C   UNL     1      -4.885  -2.783 -34.236  1.00  0.00     0.024 A 
HETATM   30 CL   UNL     1      -4.419  -5.395 -34.726  1.00  0.00    -0.084 Cl
HETATM   31  C   UNL     1      -4.714  -1.596 -33.517  1.00  0.00     0.011 A 
ENDBRANCH   1  25
TORSDOF 5
ENDMDL
MODEL 8
REMARK VINA RESULT:      -8.2      2.196      2.752
REMARK  5 active torsions:
REMARK  status: ('A' for Active; 'I' for Inactive)
REMARK    1  A    between atoms: C_2  and  C_3 
REMARK    2  A    between atoms: C_8  and  C_9 
REMARK       I    between atoms: C_9  and  N_10 
REMARK    3  A    between atoms: N_10  and  C_11 
REMARK    4  A    between atoms: C_11  and  C_12 
REMARK    5  A    between atoms: C_19  and  C_20 
ROOT
HETATM    1  C   UNL     1      -4.674   0.098 -32.069  1.00  0.00     0.118 C 
HETATM    2  N   UNL     1      -4.575   1.349 -32.826  1.00  0.00    -0.366 N 
HETATM    3  C   UNL     1      -4.565   2.513 -32.146  1.00  0.00     0.123 A 
HETATM    4  N   UNL     1      -5.318   2.642 -31.019  1.00  0.00    -0.240 N 
HETATM    5  N   UNL     1      -5.168   3.815 -30.385  1.00  0.00    -0.165 NA
HETATM    6  C   UNL     1      -4.348   4.511 -31.209  1.00  0.00     0.148 A 
HETATM    7  C   UNL     1      -3.960   3.727 -32.335  1.00  0.00     0.088 A 
HETATM    8  C   UNL     1      -6.174   1.587 -30.529  1.00  0.00     0.221 C 
HETATM    9  C   UNL     1      -5.540   0.209 -30.792  1.00  0.00     0.066 C 
HETATM   10  H   UNL     1      -3.959   1.266 -33.638  1.00  0.00     0.161 HD
ENDROOT
BRANCH   6  11
HETATM   11  C   UNL     1      -3.938   5.895 -30.923  1.00  0.00     0.272 C 
HETATM   12  N   UNL     1      -3.028   5.994 -29.895  1.00  0.00    -0.353 N 
HETATM   13  H   UNL     1      -2.887   5.140 -29.362  1.00  0.00     0.162 HD
HETATM   14  O   UNL     1      -4.382   6.864 -31.532  1.00  0.00    -0.266 OA
BRANCH  12  15
HETATM   15  C   UNL     1      -2.645   7.264 -29.315  1.00  0.00     0.155 C 
BRANCH  15  16
HETATM   16  C   UNL     1      -2.201   7.123 -27.858  1.00  0.00     0.139 C 
HETATM   17  O   UNL     1      -1.363   8.231 -27.476  1.00  0.00    -0.384 OA
HETATM   18  C   UNL     1      -1.533   8.450 -26.068  1.00  0.00     0.168 C 
HETATM   19  C   UNL     1      -2.666   7.556 -25.596  1.00  0.00     0.029 C 
HETATM   20  C   UNL     1      -3.359   7.164 -26.878  1.00  0.00     0.035 C 
ENDBRANCH  15  16
ENDBRANCH  12  15
ENDBRANCH   6  11
BRANCH   8  21
HETATM   21  C   UNL     1      -7.552   1.715 -31.138  1.00  0.00     0.409 C 
HETATM   22  F   UNL     1      -7.518   2.270 -32.372  1.00  0.00    -0.169 F 
HETATM   23  F   UNL     1      -8.222   0.550 -31.232  1.00  0.00    -0.169 F 
HETATM   24  F   UNL     1      -8.316   2.541 -30.374  1.00  0.00    -0.169 F 
ENDBRANCH   8  21
BRANCH   1  25
HETATM   25  C   UNL     1      -5.121  -1.035 -32.977  1.00  0.00    -0.035 A 
HETATM   26  C   UNL     1      -4.207  -2.039 -33.338  1.00  0.00     0.011 A 
HETATM   27  C   UNL     1      -4.595  -3.095 -34.169  1.00  0.00     0.024 A 
HETATM   28  C   UNL     1      -5.904  -3.159 -34.640  1.00  0.00     0.034 A 
HETATM   29  C   UNL     1      -6.826  -2.178 -34.289  1.00  0.00     0.024 A 
HETATM   30 CL   UNL     1      -6.379  -4.456 -35.666  1.00  0.00    -0.084 Cl
HETATM   31  C   UNL     1      -6.436  -1.122 -33.461  1.00  0.00     0.011 A 
ENDBRANCH   1  25
TORSDOF 5
ENDMDL
MODEL 9
REMARK VINA RESULT:      -8.1      5.392      7.922
REMARK  5 active torsions:
REMARK  status: ('A' for Active; 'I' for Inactive)
REMARK    1  A    between atoms: C_2  and  C_3 
REMARK    2  A    between atoms: C_8  and  C_9 
REMARK       I    between atoms: C_9  and  N_10 
REMARK    3  A    between atoms: N_10  and  C_11 
REMARK    4  A    between atoms: C_11  and  C_12 
REMARK    5  A    between atoms: C_19  and  C_20 
ROOT
HETATM    1  C   UNL     1      -7.451  -0.490 -34.883  1.00  0.00     0.118 C 
HETATM    2  N   UNL     1      -8.525  -0.506 -33.885  1.00  0.00    -0.366 N 
HETATM    3  C   UNL     1      -9.299   0.592 -33.757  1.00  0.00     0.123 A 
HETATM    4  N   UNL     1      -8.748   1.827 -33.914  1.00  0.00    -0.240 N 
HETATM    5  N   UNL     1      -9.628   2.838 -33.841  1.00  0.00    -0.165 NA
HETATM    6  C   UNL     1     -10.788   2.217 -33.521  1.00  0.00     0.148 A 
HETATM    7  C   UNL     1     -10.615   0.803 -33.445  1.00  0.00     0.088 A 
HETATM    8  C   UNL     1      -7.342   2.026 -34.177  1.00  0.00     0.221 C 
HETATM    9  C   UNL     1      -6.793   0.897 -35.070  1.00  0.00     0.066 C 
HETATM   10  H   UNL     1      -8.978  -1.419 -33.813  1.00  0.00     0.161 HD
ENDROOT
BRANCH   6  11
HETATM   11  C   UNL     1     -12.039   2.959 -33.297  1.00  0.00     0.272 C 
HETATM   12  N   UNL     1     -12.130   4.113 -34.041  1.00  0.00    -0.353 N 
HETATM   13  H   UNL     1     -11.272   4.392 -34.510  1.00  0.00     0.162 HD
HETATM   14  O   UNL     1     -12.905   2.589 -32.509  1.00  0.00    -0.266 OA
BRANCH  12  15
HETATM   15  C   UNL     1     -13.175   5.094 -33.831  1.00  0.00     0.155 C 
BRANCH  15  16
HETATM   16  C   UNL     1     -12.831   6.447 -34.455  1.00  0.00     0.139 C 
HETATM   17  O   UNL     1     -11.421   6.527 -34.740  1.00  0.00    -0.384 OA
HETATM   18  C   UNL     1     -11.245   7.400 -35.866  1.00  0.00     0.168 C 
HETATM   19  C   UNL     1     -12.623   7.727 -36.414  1.00  0.00     0.029 C 
HETATM   20  C   UNL     1     -13.506   6.670 -35.796  1.00  0.00     0.035 C 
ENDBRANCH  15  16
ENDBRANCH  12  15
ENDBRANCH   6  11
BRANCH   8  21
HETATM   21  C   UNL     1      -6.585   2.152 -32.874  1.00  0.00     0.409 C 
HETATM   22  F   UNL     1      -7.019   1.274 -31.942  1.00  0.00    -0.169 F 
HETATM   23  F   UNL     1      -5.253   1.995 -32.995  1.00  0.00    -0.169 F 
HETATM   24  F   UNL     1      -6.784   3.391 -32.348  1.00  0.00    -0.169 F 
ENDBRANCH   8  21
BRANCH   1  25
HETATM   25  C   UNL     1      -6.435  -1.578 -34.581  1.00  0.00    -0.035 A 
HETATM   26  C   UNL     1      -5.255  -1.257 -33.889  1.00  0.00     0.011 A 
HETATM   27  C   UNL     1      -4.306  -2.241 -33.596  1.00  0.00     0.024 A 
HETATM   28  C   UNL     1      -4.533  -3.559 -33.987  1.00  0.00     0.034 A 
HETATM   29  C   UNL     1      -5.698  -3.899 -34.667  1.00  0.00     0.024 A 
HETATM   30 CL   UNL     1      -3.364  -4.769 -33.629  1.00  0.00    -0.084 Cl
HETATM   31  C   UNL     1      -6.644  -2.913 -34.962  1.00  0.00     0.011 A 
ENDBRANCH   1  25
TORSDOF 5
ENDMDL
MODEL 10
REMARK VINA RESULT:      -8.0      2.169      2.666
REMARK  5 active torsions:
REMARK  status: ('A' for Active; 'I' for Inactive)
REMARK    1  A    between atoms: C_2  and  C_3 
REMARK    2  A    between atoms: C_8  and  C_9 
REMARK       I    between atoms: C_9  and  N_10 
REMARK    3  A    between atoms: N_10  and  C_11 
REMARK    4  A    between atoms: C_11  and  C_12 
REMARK    5  A    between atoms: C_19  and  C_20 
ROOT
HETATM    1  C   UNL     1      -4.913   0.062 -32.111  1.00  0.00     0.118 C 
HETATM    2  N   UNL     1      -4.871   1.305 -32.887  1.00  0.00    -0.366 N 
HETATM    3  C   UNL     1      -4.966   2.477 -32.228  1.00  0.00     0.123 A 
HETATM    4  N   UNL     1      -5.768   2.572 -31.132  1.00  0.00    -0.240 N 
HETATM    5  N   UNL     1      -5.722   3.762 -30.514  1.00  0.00    -0.165 NA
HETATM    6  C   UNL     1      -4.922   4.499 -31.320  1.00  0.00     0.148 A 
HETATM    7  C   UNL     1      -4.439   3.726 -32.417  1.00  0.00     0.088 A 
HETATM    8  C   UNL     1      -6.568   1.468 -30.654  1.00  0.00     0.221 C 
HETATM    9  C   UNL     1      -5.832   0.133 -30.869  1.00  0.00     0.066 C 
HETATM   10  H   UNL     1      -4.221   1.252 -33.675  1.00  0.00     0.161 HD
ENDROOT
BRANCH   6  11
HETATM   11  C   UNL     1      -4.618   5.913 -31.045  1.00  0.00     0.272 C 
HETATM   12  N   UNL     1      -4.577   6.211 -29.701  1.00  0.00    -0.353 N 
HETATM   13  H   UNL     1      -4.922   5.477 -29.087  1.00  0.00     0.162 HD
HETATM   14  O   UNL     1      -4.439   6.744 -31.930  1.00  0.00    -0.266 OA
BRANCH  12  15
HETATM   15  C   UNL     1      -4.497   7.570 -29.208  1.00  0.00     0.155 C 
BRANCH  15  16
HETATM   16  C   UNL     1      -3.327   7.766 -28.243  1.00  0.00     0.139 C 
HETATM   17  O   UNL     1      -3.587   7.100 -26.992  1.00  0.00    -0.384 OA
HETATM   18  C   UNL     1      -2.326   6.711 -26.426  1.00  0.00     0.168 C 
HETATM   19  C   UNL     1      -1.252   6.986 -27.464  1.00  0.00     0.029 C 
HETATM   20  C   UNL     1      -2.035   7.147 -28.744  1.00  0.00     0.035 C 
ENDBRANCH  15  16
ENDBRANCH  12  15
ENDBRANCH   6  11
BRANCH   8  21
HETATM   21  C   UNL     1      -7.928   1.492 -31.315  1.00  0.00     0.409 C 
HETATM   22  F   UNL     1      -8.526   0.278 -31.302  1.00  0.00    -0.169 F 
HETATM   23  F   UNL     1      -8.787   2.377 -30.773  1.00  0.00    -0.169 F 
HETATM   24  F   UNL     1      -7.794   1.832 -32.625  1.00  0.00    -0.169 F 
ENDBRANCH   8  21
BRANCH   1  25
HETATM   25  C   UNL     1      -5.247  -1.113 -33.014  1.00  0.00    -0.035 A 
HETATM   26  C   UNL     1      -6.555  -1.262 -33.508  1.00  0.00     0.011 A 
HETATM   27  C   UNL     1      -6.886  -2.333 -34.344  1.00  0.00     0.024 A 
HETATM   28  C   UNL     1      -5.911  -3.261 -34.699  1.00  0.00     0.034 A 
HETATM   29  C   UNL     1      -4.609  -3.128 -34.226  1.00  0.00     0.024 A 
HETATM   30 CL   UNL     1      -6.321  -4.580 -35.725  1.00  0.00    -0.084 Cl
HETATM   31  C   UNL     1      -4.280  -2.059 -33.388  1.00  0.00     0.011 A 
ENDBRANCH   1  25
TORSDOF 5
ENDMDL
