MODEL 1
REMARK VINA RESULT:      -7.8      0.000      0.000
REMARK  5 active torsions:
REMARK  status: ('A' for Active; 'I' for Inactive)
REMARK    1  A    between atoms: C_2  and  O_3 
REMARK    2  A    between atoms: O_3  and  C_4 
REMARK    3  A    between atoms: C_4  and  C_5 
REMARK    4  A    between atoms: C_6  and  C_7 
REMARK    5  A    between atoms: C_22  and  N_23 
ROOT
HETATM    1  C   UNL     1      -5.050   3.388 -31.597  1.00  0.00     0.075 A 
HETATM    2  C   UNL     1      -6.015   2.367 -31.729  1.00  0.00     0.011 A 
HETATM    3  C   UNL     1      -7.332   2.666 -31.315  1.00  0.00     0.074 A 
HETATM    4  C   UNL     1      -7.613   3.932 -30.798  1.00  0.00     0.096 A 
HETATM    5  N   UNL     1      -6.671   4.901 -30.678  1.00  0.00    -0.250 NA
HETATM    6  C   UNL     1      -5.403   4.630 -31.069  1.00  0.00     0.048 A 
HETATM    7  C   UNL     1      -4.411   5.744 -30.898  1.00  0.00     0.071 C 
HETATM    8  C   UNL     1      -8.470   1.711 -31.394  1.00  0.00     0.260 A 
HETATM    9  O   UNL     1      -8.380   0.589 -31.872  1.00  0.00    -0.267 OA
HETATM   10  N   UNL     1      -9.678   2.143 -30.899  1.00  0.00    -0.312 N 
HETATM   11  C   UNL     1      -9.959   3.380 -30.386  1.00  0.00     0.102 A 
HETATM   12  C   UNL     1      -8.962   4.290 -30.336  1.00  0.00     0.098 A 
HETATM   13  C   UNL     1      -9.217   5.697 -29.820  1.00  0.00     0.025 C 
HETATM   14  N   UNL     1      -9.428   6.864 -29.392  1.00  0.00    -0.096 N 
HETATM   15  H   UNL     1     -10.436   1.480 -31.000  1.00  0.00     0.170 HD
ENDROOT
BRANCH  11  16
HETATM   16  N   UNL     1     -11.252   3.597 -29.979  1.00  0.00    -0.287 NA
HETATM   17  H   UNL     1     -11.845   2.773 -30.038  1.00  0.00     0.125 HD
HETATM   18  H   UNL     1     -11.364   4.076 -29.086  1.00  0.00     0.125 HD
ENDBRANCH  11  16
BRANCH   2  19
HETATM   19  C   UNL     1      -5.627   1.057 -32.279  1.00  0.00    -0.024 A 
HETATM   20  C   UNL     1      -5.834   0.758 -33.635  1.00  0.00     0.014 A 
HETATM   21  C   UNL     1      -5.473  -0.488 -34.156  1.00  0.00     0.024 A 
HETATM   22  C   UNL     1      -4.911  -1.449 -33.321  1.00  0.00     0.034 A 
HETATM   23 CL   UNL     1      -4.469  -2.985 -33.960  1.00  0.00    -0.084 Cl
HETATM   24  C   UNL     1      -4.707  -1.178 -31.970  1.00  0.00     0.024 A 
HETATM   25  C   UNL     1      -5.063   0.070 -31.452  1.00  0.00     0.014 A 
ENDBRANCH   2  19
BRANCH   1  26
HETATM   26  C   UNL     1      -3.644   3.147 -31.955  1.00  0.00     0.296 C 
HETATM   27  O   UNL     1      -2.828   2.666 -31.192  1.00  0.00    -0.259 OA
BRANCH  26  28
HETATM   28  O   UNL     1      -3.457   3.593 -33.217  1.00  0.00    -0.318 OA
BRANCH  28  29
HETATM   29  C   UNL     1      -2.248   4.331 -33.458  1.00  0.00     0.174 C 
HETATM   30  C   UNL     1      -2.403   5.115 -34.746  1.00  0.00     0.034 C 
ENDBRANCH  28  29
ENDBRANCH  26  28
ENDBRANCH   1  26
TORSDOF 5
ENDMDL
MODEL 2
REMARK VINA RESULT:      -7.8      4.128      7.052
REMARK  5 active torsions:
REMARK  status: ('A' for Active; 'I' for Inactive)
REMARK    1  A    between atoms: C_2  and  O_3 
REMARK    2  A    between atoms: O_3  and  C_4 
REMARK    3  A    between atoms: C_4  and  C_5 
REMARK    4  A    between atoms: C_6  and  C_7 
REMARK    5  A    between atoms: C_22  and  N_23 
ROOT
HETATM    1  C   UNL     1      -6.028   1.576 -33.685  1.00  0.00     0.075 A 
HETATM    2  C   UNL     1      -5.012   1.597 -32.707  1.00  0.00     0.011 A 
HETATM    3  C   UNL     1      -4.340   0.382 -32.448  1.00  0.00     0.074 A 
HETATM    4  C   UNL     1      -4.709  -0.765 -33.154  1.00  0.00     0.096 A 
HETATM    5  N   UNL     1      -5.690  -0.766 -34.090  1.00  0.00    -0.250 NA
HETATM    6  C   UNL     1      -6.345   0.391 -34.349  1.00  0.00     0.048 A 
HETATM    7  C   UNL     1      -7.425   0.314 -35.389  1.00  0.00     0.071 C 
HETATM    8  C   UNL     1      -3.239   0.230 -31.459  1.00  0.00     0.260 A 
HETATM    9  O   UNL     1      -2.779   1.159 -30.810  1.00  0.00    -0.267 OA
HETATM   10  N   UNL     1      -2.727  -1.035 -31.290  1.00  0.00    -0.312 N 
HETATM   11  C   UNL     1      -3.087  -2.163 -31.974  1.00  0.00     0.102 A 
HETATM   12  C   UNL     1      -4.054  -2.059 -32.910  1.00  0.00     0.098 A 
HETATM   13  C   UNL     1      -4.471  -3.264 -33.737  1.00  0.00     0.025 C 
HETATM   14  N   UNL     1      -4.817  -4.263 -34.424  1.00  0.00    -0.096 N 
HETATM   15  H   UNL     1      -1.957  -1.094 -30.634  1.00  0.00     0.170 HD
ENDROOT
BRANCH  11  16
HETATM   16  N   UNL     1      -2.413  -3.316 -31.655  1.00  0.00    -0.287 NA
HETATM   17  H   UNL     1      -2.989  -4.153 -31.693  1.00  0.00     0.125 HD
HETATM   18  H   UNL     1      -1.519  -3.454 -32.126  1.00  0.00     0.125 HD
ENDBRANCH  11  16
BRANCH   2  19
HETATM   19  C   UNL     1      -4.694   2.853 -32.007  1.00  0.00    -0.024 A 
HETATM   20  C   UNL     1      -5.390   3.222 -30.844  1.00  0.00     0.014 A 
HETATM   21  C   UNL     1      -5.095   4.418 -30.183  1.00  0.00     0.024 A 
HETATM   22  C   UNL     1      -4.107   5.260 -30.687  1.00  0.00     0.034 A 
HETATM   23 CL   UNL     1      -3.745   6.734 -29.876  1.00  0.00    -0.084 Cl
HETATM   24  C   UNL     1      -3.412   4.919 -31.844  1.00  0.00     0.024 A 
HETATM   25  C   UNL     1      -3.704   3.720 -32.501  1.00  0.00     0.014 A 
ENDBRANCH   2  19
BRANCH   1  26
HETATM   26  C   UNL     1      -6.814   2.782 -33.982  1.00  0.00     0.296 C 
HETATM   27  O   UNL     1      -6.418   3.688 -34.692  1.00  0.00    -0.259 OA
BRANCH  26  28
HETATM   28  O   UNL     1      -7.979   2.694 -33.301  1.00  0.00    -0.318 OA
BRANCH  28  29
HETATM   29  C   UNL     1      -9.116   3.335 -33.901  1.00  0.00     0.174 C 
HETATM   30  C   UNL     1     -10.232   2.317 -34.041  1.00  0.00     0.034 C 
ENDBRANCH  28  29
ENDBRANCH  26  28
ENDBRANCH   1  26
TORSDOF 5
ENDMDL
MODEL 3
REMARK VINA RESULT:      -7.6      3.538      5.767
REMARK  5 active torsions:
REMARK  status: ('A' for Active; 'I' for Inactive)
REMARK    1  A    between atoms: C_2  and  O_3 
REMARK    2  A    between atoms: O_3  and  C_4 
REMARK    3  A    between atoms: C_4  and  C_5 
REMARK    4  A    between atoms: C_6  and  C_7 
REMARK    5  A    between atoms: C_22  and  N_23 
ROOT
HETATM    1  C   UNL     1      -5.053   1.115 -32.133  1.00  0.00     0.075 A 
HETATM    2  C   UNL     1      -5.773   2.147 -32.770  1.00  0.00     0.011 A 
HETATM    3  C   UNL     1      -5.099   3.370 -32.982  1.00  0.00     0.074 A 
HETATM    4  C   UNL     1      -3.776   3.502 -32.555  1.00  0.00     0.096 A 
HETATM    5  N   UNL     1      -3.099   2.498 -31.944  1.00  0.00    -0.250 NA
HETATM    6  C   UNL     1      -3.732   1.320 -31.731  1.00  0.00     0.048 A 
HETATM    7  C   UNL     1      -2.927   0.258 -31.040  1.00  0.00     0.071 C 
HETATM    8  C   UNL     1      -5.706   4.555 -33.647  1.00  0.00     0.260 A 
HETATM    9  O   UNL     1      -6.836   4.563 -34.116  1.00  0.00    -0.267 OA
HETATM   10  N   UNL     1      -4.929   5.687 -33.727  1.00  0.00    -0.312 N 
HETATM   11  C   UNL     1      -3.635   5.824 -33.307  1.00  0.00     0.102 A 
HETATM   12  C   UNL     1      -3.034   4.758 -32.736  1.00  0.00     0.098 A 
HETATM   13  C   UNL     1      -1.584   4.830 -32.287  1.00  0.00     0.025 C 
HETATM   14  N   UNL     1      -0.381   4.888 -31.915  1.00  0.00    -0.096 N 
HETATM   15  H   UNL     1      -5.363   6.461 -34.215  1.00  0.00     0.170 HD
ENDROOT
BRANCH  11  16
HETATM   16  N   UNL     1      -3.047   7.046 -33.520  1.00  0.00    -0.287 NA
HETATM   17  H   UNL     1      -3.559   7.826 -33.115  1.00  0.00     0.125 HD
HETATM   18  H   UNL     1      -2.050   7.104 -33.313  1.00  0.00     0.125 HD
ENDBRANCH  11  16
BRANCH   2  19
HETATM   19  C   UNL     1      -7.169   1.921 -33.180  1.00  0.00    -0.024 A 
HETATM   20  C   UNL     1      -8.232   2.248 -32.321  1.00  0.00     0.014 A 
HETATM   21  C   UNL     1      -9.557   2.026 -32.707  1.00  0.00     0.024 A 
HETATM   22  C   UNL     1      -9.830   1.464 -33.951  1.00  0.00     0.034 A 
HETATM   23 CL   UNL     1     -11.461   1.188 -34.425  1.00  0.00    -0.084 Cl
HETATM   24  C   UNL     1      -8.792   1.123 -34.813  1.00  0.00     0.024 A 
HETATM   25  C   UNL     1      -7.467   1.351 -34.429  1.00  0.00     0.014 A 
ENDBRANCH   2  19
BRANCH   1  26
HETATM   26  C   UNL     1      -5.692  -0.172 -31.825  1.00  0.00     0.296 C 
HETATM   27  O   UNL     1      -6.357  -0.372 -30.826  1.00  0.00    -0.259 OA
BRANCH  26  28
HETATM   28  O   UNL     1      -5.361  -1.043 -32.805  1.00  0.00    -0.318 OA
BRANCH  28  29
HETATM   29  C   UNL     1      -6.454  -1.716 -33.452  1.00  0.00     0.174 C 
HETATM   30  C   UNL     1      -6.024  -2.110 -34.851  1.00  0.00     0.034 C 
ENDBRANCH  28  29
ENDBRANCH  26  28
ENDBRANCH   1  26
TORSDOF 5
ENDMDL
MODEL 4
REMARK VINA RESULT:      -7.6      4.166      6.489
REMARK  5 active torsions:
REMARK  status: ('A' for Active; 'I' for Inactive)
REMARK    1  A    between atoms: C_2  and  O_3 
REMARK    2  A    between atoms: O_3  and  C_4 
REMARK    3  A    between atoms: C_4  and  C_5 
REMARK    4  A    between atoms: C_6  and  C_7 
REMARK    5  A    between atoms: C_22  and  N_23 
ROOT
HETATM    1  C   UNL     1      -4.436   0.427 -32.184  1.00  0.00     0.075 A 
HETATM    2  C   UNL     1      -5.627   0.286 -32.927  1.00  0.00     0.011 A 
HETATM    3  C   UNL     1      -5.839  -0.948 -33.580  1.00  0.00     0.074 A 
HETATM    4  C   UNL     1      -4.876  -1.952 -33.470  1.00  0.00     0.096 A 
HETATM    5  N   UNL     1      -3.735  -1.798 -32.753  1.00  0.00    -0.250 NA
HETATM    6  C   UNL     1      -3.516  -0.620 -32.121  1.00  0.00     0.048 A 
HETATM    7  C   UNL     1      -2.229  -0.517 -31.355  1.00  0.00     0.071 C 
HETATM    8  C   UNL     1      -7.044  -1.266 -34.394  1.00  0.00     0.260 A 
HETATM    9  O   UNL     1      -7.989  -0.502 -34.532  1.00  0.00    -0.267 OA
HETATM   10  N   UNL     1      -7.070  -2.497 -35.008  1.00  0.00    -0.312 N 
HETATM   11  C   UNL     1      -6.127  -3.482 -34.908  1.00  0.00     0.102 A 
HETATM   12  C   UNL     1      -5.038  -3.248 -34.145  1.00  0.00     0.098 A 
HETATM   13  C   UNL     1      -3.974  -4.317 -33.956  1.00  0.00     0.025 C 
HETATM   14  N   UNL     1      -3.092  -5.204 -33.799  1.00  0.00    -0.096 N 
HETATM   15  H   UNL     1      -7.919  -2.691 -35.525  1.00  0.00     0.170 HD
ENDROOT
BRANCH  11  16
HETATM   16  N   UNL     1      -6.382  -4.647 -35.589  1.00  0.00    -0.287 NA
HETATM   17  H   UNL     1      -7.370  -4.882 -35.646  1.00  0.00     0.125 HD
HETATM   18  H   UNL     1      -5.921  -4.746 -36.493  1.00  0.00     0.125 HD
ENDBRANCH  11  16
BRANCH   2  19
HETATM   19  C   UNL     1      -6.585   1.403 -32.993  1.00  0.00    -0.024 A 
HETATM   20  C   UNL     1      -6.450   2.407 -33.966  1.00  0.00     0.014 A 
HETATM   21  C   UNL     1      -7.354   3.472 -34.024  1.00  0.00     0.024 A 
HETATM   22  C   UNL     1      -8.395   3.546 -33.103  1.00  0.00     0.034 A 
HETATM   23 CL   UNL     1      -9.507   4.858 -33.173  1.00  0.00    -0.084 Cl
HETATM   24  C   UNL     1      -8.541   2.567 -32.124  1.00  0.00     0.024 A 
HETATM   25  C   UNL     1      -7.640   1.500 -32.070  1.00  0.00     0.014 A 
ENDBRANCH   2  19
BRANCH   1  26
HETATM   26  C   UNL     1      -4.109   1.694 -31.515  1.00  0.00     0.296 C 
HETATM   27  O   UNL     1      -4.543   2.011 -30.424  1.00  0.00    -0.259 OA
BRANCH  26  28
HETATM   28  O   UNL     1      -3.310   2.404 -32.343  1.00  0.00    -0.318 OA
BRANCH  28  29
HETATM   29  C   UNL     1      -2.922   3.710 -31.886  1.00  0.00     0.174 C 
HETATM   30  C   UNL     1      -2.173   4.414 -33.000  1.00  0.00     0.034 C 
ENDBRANCH  28  29
ENDBRANCH  26  28
ENDBRANCH   1  26
TORSDOF 5
ENDMDL
MODEL 5
REMARK VINA RESULT:      -7.2      1.965      4.878
REMARK  5 active torsions:
REMARK  status: ('A' for Active; 'I' for Inactive)
REMARK    1  A    between atoms: C_2  and  O_3 
REMARK    2  A    between atoms: O_3  and  C_4 
REMARK    3  A    between atoms: C_4  and  C_5 
REMARK    4  A    between atoms: C_6  and  C_7 
REMARK    5  A    between atoms: C_22  and  N_23 
ROOT
HETATM    1  C   UNL     1      -7.742   2.203 -31.684  1.00  0.00     0.075 A 
HETATM    2  C   UNL     1      -6.461   1.824 -32.138  1.00  0.00     0.011 A 
HETATM    3  C   UNL     1      -5.385   2.684 -31.828  1.00  0.00     0.074 A 
HETATM    4  C   UNL     1      -5.632   3.852 -31.106  1.00  0.00     0.096 A 
HETATM    5  N   UNL     1      -6.871   4.202 -30.678  1.00  0.00    -0.250 NA
HETATM    6  C   UNL     1      -7.914   3.388 -30.968  1.00  0.00     0.048 A 
HETATM    7  C   UNL     1      -9.257   3.842 -30.473  1.00  0.00     0.071 C 
HETATM    8  C   UNL     1      -3.972   2.430 -32.220  1.00  0.00     0.260 A 
HETATM    9  O   UNL     1      -3.603   1.423 -32.808  1.00  0.00    -0.267 OA
HETATM   10  N   UNL     1      -3.052   3.395 -31.885  1.00  0.00    -0.312 N 
HETATM   11  C   UNL     1      -3.289   4.544 -31.182  1.00  0.00     0.102 A 
HETATM   12  C   UNL     1      -4.551   4.792 -30.772  1.00  0.00     0.098 A 
HETATM   13  C   UNL     1      -4.875   6.028 -29.949  1.00  0.00     0.025 C 
HETATM   14  N   UNL     1      -5.144   7.052 -29.266  1.00  0.00    -0.096 N 
HETATM   15  H   UNL     1      -2.097   3.173 -32.138  1.00  0.00     0.170 HD
ENDROOT
BRANCH  11  16
HETATM   16  N   UNL     1      -2.203   5.349 -30.938  1.00  0.00    -0.287 NA
HETATM   17  H   UNL     1      -1.406   4.855 -30.544  1.00  0.00     0.125 HD
HETATM   18  H   UNL     1      -1.924   5.965 -31.700  1.00  0.00     0.125 HD
ENDBRANCH  11  16
BRANCH   2  19
HETATM   19  C   UNL     1      -6.294   0.575 -32.901  1.00  0.00    -0.024 A 
HETATM   20  C   UNL     1      -6.553   0.537 -34.281  1.00  0.00     0.014 A 
HETATM   21  C   UNL     1      -6.403  -0.650 -35.004  1.00  0.00     0.024 A 
HETATM   22  C   UNL     1      -6.003  -1.812 -34.350  1.00  0.00     0.034 A 
HETATM   23 CL   UNL     1      -5.821  -3.274 -35.239  1.00  0.00    -0.084 Cl
HETATM   24  C   UNL     1      -5.751  -1.799 -32.980  1.00  0.00     0.024 A 
HETATM   25  C   UNL     1      -5.896  -0.611 -32.259  1.00  0.00     0.014 A 
ENDBRANCH   2  19
BRANCH   1  26
HETATM   26  C   UNL     1      -8.927   1.395 -32.005  1.00  0.00     0.296 C 
HETATM   27  O   UNL     1      -9.243   0.390 -31.395  1.00  0.00    -0.259 OA
BRANCH  26  28
HETATM   28  O   UNL     1      -9.524   1.947 -33.085  1.00  0.00    -0.318 OA
BRANCH  28  29
HETATM   29  C   UNL     1     -10.191   1.040 -33.977  1.00  0.00     0.174 C 
HETATM   30  C   UNL     1     -11.688   1.176 -33.781  1.00  0.00     0.034 C 
ENDBRANCH  28  29
ENDBRANCH  26  28
ENDBRANCH   1  26
TORSDOF 5
ENDMDL
MODEL 6
REMARK VINA RESULT:      -7.2      4.085      6.421
REMARK  5 active torsions:
REMARK  status: ('A' for Active; 'I' for Inactive)
REMARK    1  A    between atoms: C_2  and  O_3 
REMARK    2  A    between atoms: O_3  and  C_4 
REMARK    3  A    between atoms: C_4  and  C_5 
REMARK    4  A    between atoms: C_6  and  C_7 
REMARK    5  A    between atoms: C_22  and  N_23 
ROOT
HETATM    1  C   UNL     1      -7.423   1.742 -31.525  1.00  0.00     0.075 A 
HETATM    2  C   UNL     1      -7.847   1.222 -32.766  1.00  0.00     0.011 A 
HETATM    3  C   UNL     1      -7.073   0.183 -33.329  1.00  0.00     0.074 A 
HETATM    4  C   UNL     1      -5.941  -0.269 -32.648  1.00  0.00     0.096 A 
HETATM    5  N   UNL     1      -5.548   0.244 -31.455  1.00  0.00    -0.250 NA
HETATM    6  C   UNL     1      -6.279   1.242 -30.903  1.00  0.00     0.048 A 
HETATM    7  C   UNL     1      -5.780   1.769 -29.588  1.00  0.00     0.071 C 
HETATM    8  C   UNL     1      -7.383  -0.483 -34.622  1.00  0.00     0.260 A 
HETATM    9  O   UNL     1      -8.369  -0.225 -35.297  1.00  0.00    -0.267 OA
HETATM   10  N   UNL     1      -6.496  -1.442 -35.055  1.00  0.00    -0.312 N 
HETATM   11  C   UNL     1      -5.383  -1.886 -34.395  1.00  0.00     0.102 A 
HETATM   12  C   UNL     1      -5.090  -1.334 -33.198  1.00  0.00     0.098 A 
HETATM   13  C   UNL     1      -3.893  -1.813 -32.392  1.00  0.00     0.025 C 
HETATM   14  N   UNL     1      -2.901  -2.210 -31.723  1.00  0.00    -0.096 N 
HETATM   15  H   UNL     1      -6.757  -1.897 -35.921  1.00  0.00     0.170 HD
ENDROOT
BRANCH  11  16
HETATM   16  N   UNL     1      -4.661  -2.879 -35.009  1.00  0.00    -0.287 NA
HETATM   17  H   UNL     1      -5.192  -3.729 -35.179  1.00  0.00     0.125 HD
HETATM   18  H   UNL     1      -4.128  -2.599 -35.832  1.00  0.00     0.125 HD
ENDBRANCH  11  16
BRANCH   2  19
HETATM   19  C   UNL     1      -9.051   1.766 -33.416  1.00  0.00    -0.024 A 
HETATM   20  C   UNL     1      -8.978   2.924 -34.207  1.00  0.00     0.014 A 
HETATM   21  C   UNL     1     -10.123   3.446 -34.818  1.00  0.00     0.024 A 
HETATM   22  C   UNL     1     -11.351   2.818 -34.634  1.00  0.00     0.034 A 
HETATM   23 CL   UNL     1     -12.761   3.462 -35.383  1.00  0.00    -0.084 Cl
HETATM   24  C   UNL     1     -11.448   1.675 -33.844  1.00  0.00     0.024 A 
HETATM   25  C   UNL     1     -10.303   1.151 -33.239  1.00  0.00     0.014 A 
ENDBRANCH   2  19
BRANCH   1  26
HETATM   26  C   UNL     1      -8.139   2.859 -30.891  1.00  0.00     0.296 C 
HETATM   27  O   UNL     1      -9.159   2.724 -30.242  1.00  0.00    -0.259 OA
BRANCH  26  28
HETATM   28  O   UNL     1      -7.485   4.000 -31.206  1.00  0.00    -0.318 OA
BRANCH  28  29
HETATM   29  C   UNL     1      -8.288   5.188 -31.299  1.00  0.00     0.174 C 
HETATM   30  C   UNL     1      -7.826   5.997 -32.494  1.00  0.00     0.034 C 
ENDBRANCH  28  29
ENDBRANCH  26  28
ENDBRANCH   1  26
TORSDOF 5
ENDMDL
MODEL 7
REMARK VINA RESULT:      -7.1      2.569      3.111
REMARK  5 active torsions:
REMARK  status: ('A' for Active; 'I' for Inactive)
REMARK    1  A    between atoms: C_2  and  O_3 
REMARK    2  A    between atoms: O_3  and  C_4 
REMARK    3  A    between atoms: C_4  and  C_5 
REMARK    4  A    between atoms: C_6  and  C_7 
REMARK    5  A    between atoms: C_22  and  N_23 
ROOT
HETATM    1  C   UNL     1      -7.570   3.749 -33.177  1.00  0.00     0.075 A 
HETATM    2  C   UNL     1      -8.362   2.589 -33.316  1.00  0.00     0.011 A 
HETATM    3  C   UNL     1      -9.755   2.733 -33.130  1.00  0.00     0.074 A 
HETATM    4  C   UNL     1     -10.275   3.990 -32.818  1.00  0.00     0.096 A 
HETATM    5  N   UNL     1      -9.498   5.094 -32.688  1.00  0.00    -0.250 NA
HETATM    6  C   UNL     1      -8.160   4.973 -32.861  1.00  0.00     0.048 A 
HETATM    7  C   UNL     1      -7.361   6.233 -32.691  1.00  0.00     0.071 C 
HETATM    8  C   UNL     1     -10.732   1.618 -33.250  1.00  0.00     0.260 A 
HETATM    9  O   UNL     1     -10.424   0.478 -33.568  1.00  0.00    -0.267 OA
HETATM   10  N   UNL     1     -12.049   1.916 -32.986  1.00  0.00    -0.312 N 
HETATM   11  C   UNL     1     -12.564   3.144 -32.674  1.00  0.00     0.102 A 
HETATM   12  C   UNL     1     -11.715   4.190 -32.597  1.00  0.00     0.098 A 
HETATM   13  C   UNL     1     -12.228   5.590 -32.299  1.00  0.00     0.025 C 
HETATM   14  N   UNL     1     -12.653   6.751 -32.053  1.00  0.00    -0.096 N 
HETATM   15  H   UNL     1     -12.689   1.141 -33.110  1.00  0.00     0.170 HD
ENDROOT
BRANCH  11  16
HETATM   16  N   UNL     1     -13.922   3.209 -32.481  1.00  0.00    -0.287 NA
HETATM   17  H   UNL     1     -14.412   3.755 -33.185  1.00  0.00     0.125 HD
HETATM   18  H   UNL     1     -14.390   2.321 -32.304  1.00  0.00     0.125 HD
ENDBRANCH  11  16
BRANCH   2  19
HETATM   19  C   UNL     1      -7.725   1.302 -33.640  1.00  0.00    -0.024 A 
HETATM   20  C   UNL     1      -7.531   0.913 -34.975  1.00  0.00     0.014 A 
HETATM   21  C   UNL     1      -6.935  -0.313 -35.284  1.00  0.00     0.024 A 
HETATM   22  C   UNL     1      -6.536  -1.165 -34.258  1.00  0.00     0.034 A 
HETATM   23 CL   UNL     1      -5.804  -2.676 -34.637  1.00  0.00    -0.084 Cl
HETATM   24  C   UNL     1      -6.729  -0.805 -32.927  1.00  0.00     0.024 A 
HETATM   25  C   UNL     1      -7.320   0.424 -32.619  1.00  0.00     0.014 A 
ENDBRANCH   2  19
BRANCH   1  26
HETATM   26  C   UNL     1      -6.107   3.683 -33.302  1.00  0.00     0.296 C 
HETATM   27  O   UNL     1      -5.512   3.835 -34.352  1.00  0.00    -0.259 OA
BRANCH  26  28
HETATM   28  O   UNL     1      -5.601   3.388 -32.083  1.00  0.00    -0.318 OA
BRANCH  28  29
HETATM   29  C   UNL     1      -4.180   3.193 -32.014  1.00  0.00     0.174 C 
HETATM   30  C   UNL     1      -3.879   1.720 -32.211  1.00  0.00     0.034 C 
ENDBRANCH  28  29
ENDBRANCH  26  28
ENDBRANCH   1  26
TORSDOF 5
ENDMDL
MODEL 8
REMARK VINA RESULT:      -7.1      2.389      2.836
REMARK  5 active torsions:
REMARK  status: ('A' for Active; 'I' for Inactive)
REMARK    1  A    between atoms: C_2  and  O_3 
REMARK    2  A    between atoms: O_3  and  C_4 
REMARK    3  A    between atoms: C_4  and  C_5 
REMARK    4  A    between atoms: C_6  and  C_7 
REMARK    5  A    between atoms: C_22  and  N_23 
ROOT
HETATM    1  C   UNL     1      -7.198   3.554 -32.735  1.00  0.00     0.075 A 
HETATM    2  C   UNL     1      -7.648   2.219 -32.799  1.00  0.00     0.011 A 
HETATM    3  C   UNL     1      -9.036   2.012 -32.955  1.00  0.00     0.074 A 
HETATM    4  C   UNL     1      -9.885   3.117 -33.031  1.00  0.00     0.096 A 
HETATM    5  N   UNL     1      -9.435   4.395 -32.967  1.00  0.00    -0.250 NA
HETATM    6  C   UNL     1      -8.106   4.610 -32.816  1.00  0.00     0.048 A 
HETATM    7  C   UNL     1      -7.679   6.048 -32.741  1.00  0.00     0.071 C 
HETATM    8  C   UNL     1      -9.676   0.672 -33.050  1.00  0.00     0.260 A 
HETATM    9  O   UNL     1      -9.050  -0.379 -33.050  1.00  0.00    -0.267 OA
HETATM   10  N   UNL     1     -11.047   0.644 -33.146  1.00  0.00    -0.312 N 
HETATM   11  C   UNL     1     -11.885   1.723 -33.216  1.00  0.00     0.102 A 
HETATM   12  C   UNL     1     -11.340   2.958 -33.175  1.00  0.00     0.098 A 
HETATM   13  C   UNL     1     -12.211   4.198 -33.293  1.00  0.00     0.025 C 
HETATM   14  N   UNL     1     -12.932   5.227 -33.391  1.00  0.00    -0.096 N 
HETATM   15  H   UNL     1     -11.444  -0.282 -33.243  1.00  0.00     0.170 HD
ENDROOT
BRANCH  11  16
HETATM   16  N   UNL     1     -13.226   1.452 -33.341  1.00  0.00    -0.287 NA
HETATM   17  H   UNL     1     -13.511   0.580 -32.903  1.00  0.00     0.125 HD
HETATM   18  H   UNL     1     -13.859   2.215 -33.105  1.00  0.00     0.125 HD
ENDBRANCH  11  16
BRANCH   2  19
HETATM   19  C   UNL     1      -6.679   1.114 -32.702  1.00  0.00    -0.024 A 
HETATM   20  C   UNL     1      -6.088   0.575 -33.857  1.00  0.00     0.014 A 
HETATM   21  C   UNL     1      -5.174  -0.480 -33.766  1.00  0.00     0.024 A 
HETATM   22  C   UNL     1      -4.853  -1.011 -32.521  1.00  0.00     0.034 A 
HETATM   23 CL   UNL     1      -3.731  -2.311 -32.409  1.00  0.00    -0.084 Cl
HETATM   24  C   UNL     1      -5.436  -0.499 -31.364  1.00  0.00     0.024 A 
HETATM   25  C   UNL     1      -6.345   0.559 -31.455  1.00  0.00     0.014 A 
ENDBRANCH   2  19
BRANCH   1  26
HETATM   26  C   UNL     1      -5.776   3.862 -32.522  1.00  0.00     0.296 C 
HETATM   27  O   UNL     1      -5.267   3.965 -31.422  1.00  0.00    -0.259 OA
BRANCH  26  28
HETATM   28  O   UNL     1      -5.205   4.041 -33.734  1.00  0.00    -0.318 OA
BRANCH  28  29
HETATM   29  C   UNL     1      -4.078   4.930 -33.781  1.00  0.00     0.174 C 
HETATM   30  C   UNL     1      -3.754   5.231 -35.231  1.00  0.00     0.034 C 
ENDBRANCH  28  29
ENDBRANCH  26  28
ENDBRANCH   1  26
TORSDOF 5
ENDMDL
MODEL 9
REMARK VINA RESULT:      -7.0      2.647      4.957
REMARK  5 active torsions:
REMARK  status: ('A' for Active; 'I' for Inactive)
REMARK    1  A    between atoms: C_2  and  O_3 
REMARK    2  A    between atoms: O_3  and  C_4 
REMARK    3  A    between atoms: C_4  and  C_5 
REMARK    4  A    between atoms: C_6  and  C_7 
REMARK    5  A    between atoms: C_22  and  N_23 
ROOT
HETATM    1  C   UNL     1      -9.412   3.500 -32.277  1.00  0.00     0.075 A 
HETATM    2  C   UNL     1      -8.188   2.889 -31.931  1.00  0.00     0.011 A 
HETATM    3  C   UNL     1      -7.465   3.455 -30.857  1.00  0.00     0.074 A 
HETATM    4  C   UNL     1      -7.981   4.575 -30.203  1.00  0.00     0.096 A 
HETATM    5  N   UNL     1      -9.160   5.149 -30.550  1.00  0.00    -0.250 NA
HETATM    6  C   UNL     1      -9.864   4.620 -31.579  1.00  0.00     0.048 A 
HETATM    7  C   UNL     1     -11.153   5.313 -31.916  1.00  0.00     0.071 C 
HETATM    8  C   UNL     1      -6.166   2.931 -30.357  1.00  0.00     0.260 A 
HETATM    9  O   UNL     1      -5.624   1.928 -30.800  1.00  0.00    -0.267 OA
HETATM   10  N   UNL     1      -5.566   3.631 -29.336  1.00  0.00    -0.312 N 
HETATM   11  C   UNL     1      -6.064   4.731 -28.694  1.00  0.00     0.102 A 
HETATM   12  C   UNL     1      -7.261   5.213 -29.092  1.00  0.00     0.098 A 
HETATM   13  C   UNL     1      -7.891   6.406 -28.392  1.00  0.00     0.025 C 
HETATM   14  N   UNL     1      -8.415   7.395 -27.811  1.00  0.00    -0.096 N 
HETATM   15  H   UNL     1      -4.701   3.226 -28.999  1.00  0.00     0.170 HD
ENDROOT
BRANCH  11  16
HETATM   16  N   UNL     1      -5.299   5.247 -27.677  1.00  0.00    -0.287 NA
HETATM   17  H   UNL     1      -5.232   6.262 -27.686  1.00  0.00     0.125 HD
HETATM   18  H   UNL     1      -5.502   4.893 -26.743  1.00  0.00     0.125 HD
ENDBRANCH  11  16
BRANCH   2  19
HETATM   19  C   UNL     1      -7.717   1.713 -32.682  1.00  0.00    -0.024 A 
HETATM   20  C   UNL     1      -8.035   0.414 -32.254  1.00  0.00     0.014 A 
HETATM   21  C   UNL     1      -7.581  -0.703 -32.962  1.00  0.00     0.024 A 
HETATM   22  C   UNL     1      -6.797  -0.529 -34.099  1.00  0.00     0.034 A 
HETATM   23 CL   UNL     1      -6.235  -1.903 -34.970  1.00  0.00    -0.084 Cl
HETATM   24  C   UNL     1      -6.461   0.751 -34.535  1.00  0.00     0.024 A 
HETATM   25  C   UNL     1      -6.920   1.867 -33.829  1.00  0.00     0.014 A 
ENDBRANCH   2  19
BRANCH   1  26
HETATM   26  C   UNL     1     -10.204   3.010 -33.414  1.00  0.00     0.296 C 
HETATM   27  O   UNL     1     -10.050   3.394 -34.558  1.00  0.00    -0.259 OA
BRANCH  26  28
HETATM   28  O   UNL     1     -11.115   2.132 -32.936  1.00  0.00    -0.318 OA
BRANCH  28  29
HETATM   29  C   UNL     1     -11.333   0.951 -33.723  1.00  0.00     0.174 C 
HETATM   30  C   UNL     1     -12.814   0.626 -33.715  1.00  0.00     0.034 C 
ENDBRANCH  28  29
ENDBRANCH  26  28
ENDBRANCH   1  26
TORSDOF 5
ENDMDL
MODEL 10
REMARK VINA RESULT:      -6.9      3.937      5.821
REMARK  5 active torsions:
REMARK  status: ('A' for Active; 'I' for Inactive)
REMARK    1  A    between atoms: C_2  and  O_3 
REMARK    2  A    between atoms: O_3  and  C_4 
REMARK    3  A    between atoms: C_4  and  C_5 
REMARK    4  A    between atoms: C_6  and  C_7 
REMARK    5  A    between atoms: C_22  and  N_23 
ROOT
HETATM    1  C   UNL     1      -8.413   1.729 -32.843  1.00  0.00     0.075 A 
HETATM    2  C   UNL     1      -8.386   3.042 -33.358  1.00  0.00     0.011 A 
HETATM    3  C   UNL     1      -9.573   3.528 -33.950  1.00  0.00     0.074 A 
HETATM    4  C   UNL     1     -10.696   2.700 -34.003  1.00  0.00     0.096 A 
HETATM    5  N   UNL     1     -10.703   1.440 -33.502  1.00  0.00    -0.250 NA
HETATM    6  C   UNL     1      -9.573   0.959 -32.933  1.00  0.00     0.048 A 
HETATM    7  C   UNL     1      -9.649  -0.447 -32.411  1.00  0.00     0.071 C 
HETATM    8  C   UNL     1      -9.720   4.889 -34.531  1.00  0.00     0.260 A 
HETATM    9  O   UNL     1      -8.837   5.735 -34.508  1.00  0.00    -0.267 OA
HETATM   10  N   UNL     1     -10.928   5.187 -35.117  1.00  0.00    -0.312 N 
HETATM   11  C   UNL     1     -12.031   4.379 -35.177  1.00  0.00     0.102 A 
HETATM   12  C   UNL     1     -11.951   3.150 -34.623  1.00  0.00     0.098 A 
HETATM   13  C   UNL     1     -13.153   2.220 -34.616  1.00  0.00     0.025 C 
HETATM   14  N   UNL     1     -14.150   1.448 -34.609  1.00  0.00    -0.096 N 
HETATM   15  H   UNL     1     -11.003   6.132 -35.472  1.00  0.00     0.170 HD
ENDROOT
BRANCH  11  16
HETATM   16  N   UNL     1     -13.143   4.903 -35.788  1.00  0.00    -0.287 NA
HETATM   17  H   UNL     1     -13.134   4.817 -36.802  1.00  0.00     0.125 HD
HETATM   18  H   UNL     1     -14.041   4.623 -35.396  1.00  0.00     0.125 HD
ENDBRANCH  11  16
BRANCH   2  19
HETATM   19  C   UNL     1      -7.153   3.841 -33.265  1.00  0.00    -0.024 A 
HETATM   20  C   UNL     1      -6.196   3.807 -34.293  1.00  0.00     0.014 A 
HETATM   21  C   UNL     1      -5.021   4.559 -34.202  1.00  0.00     0.024 A 
HETATM   22  C   UNL     1      -4.788   5.342 -33.075  1.00  0.00     0.034 A 
HETATM   23 CL   UNL     1      -3.340   6.266 -32.960  1.00  0.00    -0.084 Cl
HETATM   24  C   UNL     1      -5.718   5.382 -32.039  1.00  0.00     0.024 A 
HETATM   25  C   UNL     1      -6.895   4.634 -32.134  1.00  0.00     0.014 A 
ENDBRANCH   2  19
BRANCH   1  26
HETATM   26  C   UNL     1      -7.208   1.124 -32.257  1.00  0.00     0.296 C 
HETATM   27  O   UNL     1      -6.932   1.182 -31.073  1.00  0.00    -0.259 OA
BRANCH  26  28
HETATM   28  O   UNL     1      -6.496   0.565 -33.261  1.00  0.00    -0.318 OA
BRANCH  28  29
HETATM   29  C   UNL     1      -6.068  -0.791 -33.059  1.00  0.00     0.174 C 
HETATM   30  C   UNL     1      -6.634  -1.653 -34.170  1.00  0.00     0.034 C 
ENDBRANCH  28  29
ENDBRANCH  26  28
ENDBRANCH   1  26
TORSDOF 5
ENDMDL
