MODEL 1
REMARK VINA RESULT:      -9.2      0.000      0.000
REMARK  8 active torsions:
REMARK  status: ('A' for Active; 'I' for Inactive)
REMARK    1  A    between atoms: N_2  and  C_5 
REMARK    2  A    between atoms: C_5  and  C_6 
REMARK    3  A    between atoms: C_6  and  S_7 
REMARK    4  A    between atoms: S_7  and  C_8 
REMARK    5  A    between atoms: C_10  and  C_24 
REMARK    6  A    between atoms: C_15  and  C_18 
REMARK    7  A    between atoms: C_30  and  C_34 
REMARK       I    between atoms: C_34  and  N_36 
REMARK    8  A    between atoms: N_36  and  C_37 
ROOT
HETATM    1  C   UNL     1      -5.300   2.136 -32.898  1.00  0.00     0.108 A 
HETATM    2  N   UNL     1      -5.755   3.401 -32.812  1.00  0.00    -0.225 NA
HETATM    3  C   UNL     1      -6.957   3.655 -33.342  1.00  0.00     0.134 A 
HETATM    4  N   UNL     1      -7.745   2.713 -33.882  1.00  0.00    -0.232 NA
HETATM    5  C   UNL     1      -7.276   1.464 -33.975  1.00  0.00     0.072 A 
HETATM    6  C   UNL     1      -8.067   0.504 -34.587  1.00  0.00     0.033 A 
HETATM    7  C   UNL     1      -7.637  -0.816 -34.757  1.00  0.00     0.014 A 
HETATM    8  C   UNL     1      -6.379  -1.208 -34.300  1.00  0.00    -0.022 A 
HETATM    9  C   UNL     1      -5.578  -0.253 -33.664  1.00  0.00     0.029 A 
HETATM   10  C   UNL     1      -6.016   1.093 -33.499  1.00  0.00     0.029 A 
ENDROOT
BRANCH   3  11
HETATM   11  C   UNL     1      -7.477   5.078 -33.358  1.00  0.00     0.086 C 
HETATM   12  C   UNL     1      -8.647   5.330 -32.402  1.00  0.00     0.188 C 
HETATM   13  O   UNL     1      -8.332   5.229 -31.002  1.00  0.00    -0.350 OA
HETATM   14  C   UNL     1      -7.106   5.710 -30.630  1.00  0.00     0.075 A 
HETATM   15  C   UNL     1      -6.855   5.748 -29.257  1.00  0.00     0.038 A 
HETATM   16  C   UNL     1      -6.114   6.098 -31.535  1.00  0.00    -0.023 A 
HETATM   17  C   UNL     1      -5.613   6.171 -28.776  1.00  0.00     0.020 A 
HETATM   18  C   UNL     1      -4.617   6.567 -29.675  1.00  0.00     0.032 A 
HETATM   19  C   UNL     1      -4.871   6.529 -31.051  1.00  0.00     0.027 A 
HETATM   20  C   UNL     1      -6.372   6.078 -33.016  1.00  0.00     0.056 C 
BRANCH  18  21
HETATM   21  C   UNL     1      -3.262   6.979 -29.220  1.00  0.00     0.252 C 
HETATM   22  O   UNL     1      -3.152   7.850 -28.364  1.00  0.00    -0.268 OA
HETATM   23  N   UNL     1      -2.197   6.316 -29.797  1.00  0.00    -0.352 N 
HETATM   24  H   UNL     1      -2.369   5.485 -30.348  1.00  0.00     0.163 HD
BRANCH  23  25
HETATM   25  C   UNL     1      -0.846   6.599 -29.424  1.00  0.00     0.084 A 
HETATM   26  C   UNL     1       0.240   5.585 -29.654  1.00  0.00     0.027 A 
HETATM   27  C   UNL     1       0.199   6.838 -30.477  1.00  0.00     0.027 A 
ENDBRANCH  23  25
ENDBRANCH  18  21
ENDBRANCH   3  11
BRANCH   1  28
HETATM   28  S   UNL     1      -3.637   1.906 -32.255  1.00  0.00    -0.108 SA
BRANCH  28  29
HETATM   29  C   UNL     1      -3.121   3.651 -32.044  1.00  0.00     0.108 C 
BRANCH  29  30
HETATM   30  C   UNL     1      -2.328   4.118 -33.268  1.00  0.00     0.244 C 
BRANCH  30  31
HETATM   31  N   UNL     1      -2.856   5.438 -33.813  1.00  0.00    -0.078 N 
HETATM   32  C   UNL     1      -1.808   6.514 -33.904  1.00  0.00     0.269 C 
HETATM   33  H   UNL     1      -3.555   5.764 -33.126  1.00  0.00     0.279 HD
HETATM   34  C   UNL     1      -3.579   5.256 -35.117  1.00  0.00     0.269 C 
ENDBRANCH  30  31
ENDBRANCH  29  30
ENDBRANCH  28  29
ENDBRANCH   1  28
BRANCH   8  35
HETATM   35  C   UNL     1      -5.898  -2.566 -34.477  1.00  0.00     0.010 A 
HETATM   36  C   UNL     1      -6.569  -3.738 -34.896  1.00  0.00     0.152 A 
HETATM   37  N   UNL     1      -5.780  -4.815 -34.894  1.00  0.00    -0.187 NA
HETATM   38  N   UNL     1      -4.594  -4.337 -34.486  1.00  0.00    -0.289 N 
HETATM   39  H   UNL     1      -3.814  -4.982 -34.407  1.00  0.00     0.188 HD
HETATM   40  C   UNL     1      -4.615  -2.997 -34.216  1.00  0.00     0.123 A 
ENDBRANCH   8  35
TORSDOF 8
ENDMDL
MODEL 2
REMARK VINA RESULT:      -9.0      2.569      5.375
REMARK  8 active torsions:
REMARK  status: ('A' for Active; 'I' for Inactive)
REMARK    1  A    between atoms: N_2  and  C_5 
REMARK    2  A    between atoms: C_5  and  C_6 
REMARK    3  A    between atoms: C_6  and  S_7 
REMARK    4  A    between atoms: S_7  and  C_8 
REMARK    5  A    between atoms: C_10  and  C_24 
REMARK    6  A    between atoms: C_15  and  C_18 
REMARK    7  A    between atoms: C_30  and  C_34 
REMARK       I    between atoms: C_34  and  N_36 
REMARK    8  A    between atoms: N_36  and  C_37 
ROOT
HETATM    1  C   UNL     1      -3.616   2.677 -32.196  1.00  0.00     0.108 A 
HETATM    2  N   UNL     1      -2.470   3.353 -32.405  1.00  0.00    -0.225 NA
HETATM    3  C   UNL     1      -2.544   4.463 -33.150  1.00  0.00     0.134 A 
HETATM    4  N   UNL     1      -3.694   4.960 -33.630  1.00  0.00    -0.232 NA
HETATM    5  C   UNL     1      -4.821   4.272 -33.427  1.00  0.00     0.072 A 
HETATM    6  C   UNL     1      -6.000   4.757 -33.975  1.00  0.00     0.033 A 
HETATM    7  C   UNL     1      -7.216   4.079 -33.841  1.00  0.00     0.014 A 
HETATM    8  C   UNL     1      -7.275   2.878 -33.134  1.00  0.00    -0.022 A 
HETATM    9  C   UNL     1      -6.097   2.388 -32.562  1.00  0.00     0.029 A 
HETATM   10  C   UNL     1      -4.858   3.076 -32.707  1.00  0.00     0.029 A 
ENDROOT
BRANCH   3  11
HETATM   11  C   UNL     1      -1.272   5.211 -33.496  1.00  0.00     0.086 C 
HETATM   12  C   UNL     1      -1.505   6.542 -34.218  1.00  0.00     0.188 C 
HETATM   13  O   UNL     1      -2.152   7.561 -33.438  1.00  0.00    -0.350 OA
HETATM   14  C   UNL     1      -1.794   7.620 -32.118  1.00  0.00     0.075 A 
HETATM   15  C   UNL     1      -2.308   8.697 -31.393  1.00  0.00     0.038 A 
HETATM   16  C   UNL     1      -1.011   6.654 -31.479  1.00  0.00    -0.023 A 
HETATM   17  C   UNL     1      -2.047   8.819 -30.025  1.00  0.00     0.020 A 
HETATM   18  C   UNL     1      -1.258   7.859 -29.380  1.00  0.00     0.032 A 
HETATM   19  C   UNL     1      -0.743   6.781 -30.110  1.00  0.00     0.027 A 
HETATM   20  C   UNL     1      -0.438   5.497 -32.248  1.00  0.00     0.056 C 
BRANCH  18  21
HETATM   21  C   UNL     1      -0.990   7.913 -27.918  1.00  0.00     0.252 C 
HETATM   22  O   UNL     1      -1.926   8.037 -27.136  1.00  0.00    -0.268 OA
HETATM   23  N   UNL     1       0.333   7.796 -27.536  1.00  0.00    -0.352 N 
HETATM   24  H   UNL     1       1.022   7.506 -28.217  1.00  0.00     0.163 HD
BRANCH  23  25
HETATM   25  C   UNL     1       0.719   7.802 -26.160  1.00  0.00     0.084 A 
HETATM   26  C   UNL     1       2.111   8.204 -25.757  1.00  0.00     0.027 A 
HETATM   27  C   UNL     1       0.952   9.102 -25.443  1.00  0.00     0.027 A 
ENDBRANCH  23  25
ENDBRANCH  18  21
ENDBRANCH   3  11
BRANCH   1  28
HETATM   28  S   UNL     1      -3.410   1.146 -31.276  1.00  0.00    -0.108 SA
BRANCH  28  29
HETATM   29  C   UNL     1      -3.225  -0.046 -32.654  1.00  0.00     0.108 C 
BRANCH  29  30
HETATM   30  C   UNL     1      -4.247  -1.178 -32.513  1.00  0.00     0.244 C 
BRANCH  30  31
HETATM   31  N   UNL     1      -4.816  -1.598 -33.861  1.00  0.00    -0.078 N 
HETATM   32  C   UNL     1      -4.497  -3.021 -34.231  1.00  0.00     0.269 C 
HETATM   33  H   UNL     1      -4.347  -0.999 -34.560  1.00  0.00     0.279 HD
HETATM   34  C   UNL     1      -6.287  -1.315 -33.961  1.00  0.00     0.269 C 
ENDBRANCH  30  31
ENDBRANCH  29  30
ENDBRANCH  28  29
ENDBRANCH   1  28
BRANCH   8  35
HETATM   35  C   UNL     1      -8.519   2.143 -32.994  1.00  0.00     0.010 A 
HETATM   36  C   UNL     1      -9.757   2.281 -33.663  1.00  0.00     0.152 A 
HETATM   37  N   UNL     1     -10.685   1.431 -33.218  1.00  0.00    -0.187 NA
HETATM   38  N   UNL     1     -10.042   0.732 -32.268  1.00  0.00    -0.289 N 
HETATM   39  H   UNL     1     -10.552   0.005 -31.775  1.00  0.00     0.188 HD
HETATM   40  C   UNL     1      -8.746   1.126 -32.091  1.00  0.00     0.123 A 
ENDBRANCH   8  35
TORSDOF 8
ENDMDL
MODEL 3
REMARK VINA RESULT:      -8.7     17.674     20.508
REMARK  8 active torsions:
REMARK  status: ('A' for Active; 'I' for Inactive)
REMARK    1  A    between atoms: N_2  and  C_5 
REMARK    2  A    between atoms: C_5  and  C_6 
REMARK    3  A    between atoms: C_6  and  S_7 
REMARK    4  A    between atoms: S_7  and  C_8 
REMARK    5  A    between atoms: C_10  and  C_24 
REMARK    6  A    between atoms: C_15  and  C_18 
REMARK    7  A    between atoms: C_30  and  C_34 
REMARK       I    between atoms: C_34  and  N_36 
REMARK    8  A    between atoms: N_36  and  C_37 
ROOT
HETATM    1  C   UNL     1      -5.551 -13.209 -37.038  1.00  0.00     0.108 A 
HETATM    2  N   UNL     1      -4.219 -13.195 -36.837  1.00  0.00    -0.225 NA
HETATM    3  C   UNL     1      -3.447 -12.871 -37.882  1.00  0.00     0.134 A 
HETATM    4  N   UNL     1      -3.932 -12.499 -39.076  1.00  0.00    -0.232 NA
HETATM    5  C   UNL     1      -5.255 -12.531 -39.267  1.00  0.00     0.072 A 
HETATM    6  C   UNL     1      -5.751 -12.203 -40.520  1.00  0.00     0.033 A 
HETATM    7  C   UNL     1      -7.118 -12.246 -40.813  1.00  0.00     0.014 A 
HETATM    8  C   UNL     1      -8.034 -12.620 -39.831  1.00  0.00    -0.022 A 
HETATM    9  C   UNL     1      -7.548 -12.936 -38.557  1.00  0.00     0.029 A 
HETATM   10  C   UNL     1      -6.154 -12.899 -38.264  1.00  0.00     0.029 A 
ENDROOT
BRANCH   3  11
HETATM   11  C   UNL     1      -1.940 -12.932 -37.740  1.00  0.00     0.086 C 
HETATM   12  C   UNL     1      -1.452 -13.845 -36.611  1.00  0.00     0.188 C 
HETATM   13  O   UNL     1      -1.711 -15.247 -36.797  1.00  0.00    -0.350 OA
HETATM   14  C   UNL     1      -1.582 -15.713 -38.078  1.00  0.00     0.075 A 
HETATM   15  C   UNL     1      -1.688 -17.096 -38.239  1.00  0.00     0.038 A 
HETATM   16  C   UNL     1      -1.410 -14.888 -39.193  1.00  0.00    -0.023 A 
HETATM   17  C   UNL     1      -1.625 -17.667 -39.513  1.00  0.00     0.020 A 
HETATM   18  C   UNL     1      -1.446 -16.849 -40.634  1.00  0.00     0.032 A 
HETATM   19  C   UNL     1      -1.339 -15.462 -40.469  1.00  0.00     0.027 A 
HETATM   20  C   UNL     1      -1.278 -13.399 -39.036  1.00  0.00     0.056 C 
BRANCH  18  21
HETATM   21  C   UNL     1      -1.421 -17.398 -42.016  1.00  0.00     0.252 C 
HETATM   22  O   UNL     1      -0.749 -18.394 -42.257  1.00  0.00    -0.268 OA
HETATM   23  N   UNL     1      -2.197 -16.738 -42.949  1.00  0.00    -0.352 N 
HETATM   24  H   UNL     1      -2.867 -16.048 -42.638  1.00  0.00     0.163 HD
BRANCH  23  25
HETATM   25  C   UNL     1      -2.282 -17.185 -44.304  1.00  0.00     0.084 A 
HETATM   26  C   UNL     1      -3.609 -17.551 -44.908  1.00  0.00     0.027 A 
HETATM   27  C   UNL     1      -2.901 -16.307 -45.355  1.00  0.00     0.027 A 
ENDBRANCH  23  25
ENDBRANCH  18  21
ENDBRANCH   3  11
BRANCH   1  28
HETATM   28  S   UNL     1      -6.504 -13.755 -35.615  1.00  0.00    -0.108 SA
BRANCH  28  29
HETATM   29  C   UNL     1      -5.195 -13.789 -34.334  1.00  0.00     0.108 C 
BRANCH  29  30
HETATM   30  C   UNL     1      -4.958 -15.226 -33.862  1.00  0.00     0.244 C 
BRANCH  30  31
HETATM   31  N   UNL     1      -3.929 -15.944 -34.725  1.00  0.00    -0.078 N 
HETATM   32  C   UNL     1      -2.824 -16.587 -33.934  1.00  0.00     0.269 C 
HETATM   33  H   UNL     1      -3.490 -15.209 -35.303  1.00  0.00     0.279 HD
HETATM   34  C   UNL     1      -4.573 -16.915 -35.671  1.00  0.00     0.269 C 
ENDBRANCH  30  31
ENDBRANCH  29  30
ENDBRANCH  28  29
ENDBRANCH   1  28
BRANCH   8  35
HETATM   35  C   UNL     1      -9.457 -12.691 -40.109  1.00  0.00     0.010 A 
HETATM   36  C   UNL     1     -10.326 -13.802 -40.211  1.00  0.00     0.152 A 
HETATM   37  N   UNL     1     -11.576 -13.455 -40.524  1.00  0.00    -0.187 NA
HETATM   38  N   UNL     1     -11.519 -12.116 -40.612  1.00  0.00    -0.289 N 
HETATM   39  H   UNL     1     -12.369 -11.610 -40.842  1.00  0.00     0.188 HD
HETATM   40  C   UNL     1     -10.271 -11.612 -40.380  1.00  0.00     0.123 A 
ENDBRANCH   8  35
TORSDOF 8
ENDMDL
MODEL 4
REMARK VINA RESULT:      -8.4      2.709      8.223
REMARK  8 active torsions:
REMARK  status: ('A' for Active; 'I' for Inactive)
REMARK    1  A    between atoms: N_2  and  C_5 
REMARK    2  A    between atoms: C_5  and  C_6 
REMARK    3  A    between atoms: C_6  and  S_7 
REMARK    4  A    between atoms: S_7  and  C_8 
REMARK    5  A    between atoms: C_10  and  C_24 
REMARK    6  A    between atoms: C_15  and  C_18 
REMARK    7  A    between atoms: C_30  and  C_34 
REMARK       I    between atoms: C_34  and  N_36 
REMARK    8  A    between atoms: N_36  and  C_37 
ROOT
HETATM    1  C   UNL     1      -5.669   3.695 -31.339  1.00  0.00     0.108 A 
HETATM    2  N   UNL     1      -6.600   2.725 -31.413  1.00  0.00    -0.225 NA
HETATM    3  C   UNL     1      -7.882   3.110 -31.430  1.00  0.00     0.134 A 
HETATM    4  N   UNL     1      -8.272   4.394 -31.446  1.00  0.00    -0.232 NA
HETATM    5  C   UNL     1      -7.338   5.346 -31.357  1.00  0.00     0.072 A 
HETATM    6  C   UNL     1      -7.747   6.671 -31.314  1.00  0.00     0.033 A 
HETATM    7  C   UNL     1      -6.836   7.725 -31.185  1.00  0.00     0.014 A 
HETATM    8  C   UNL     1      -5.469   7.465 -31.102  1.00  0.00    -0.022 A 
HETATM    9  C   UNL     1      -5.043   6.134 -31.162  1.00  0.00     0.029 A 
HETATM   10  C   UNL     1      -5.973   5.062 -31.286  1.00  0.00     0.029 A 
ENDROOT
BRANCH   3  11
HETATM   11  C   UNL     1      -8.974   2.059 -31.416  1.00  0.00     0.086 C 
HETATM   12  C   UNL     1      -9.941   2.144 -32.602  1.00  0.00     0.188 C 
HETATM   13  O   UNL     1      -9.367   1.847 -33.887  1.00  0.00    -0.350 OA
HETATM   14  C   UNL     1      -8.438   0.841 -33.907  1.00  0.00     0.075 A 
HETATM   15  C   UNL     1      -7.988   0.451 -35.170  1.00  0.00     0.038 A 
HETATM   16  C   UNL     1      -7.903   0.251 -32.759  1.00  0.00    -0.023 A 
HETATM   17  C   UNL     1      -7.000  -0.529 -35.298  1.00  0.00     0.020 A 
HETATM   18  C   UNL     1      -6.464  -1.129 -34.154  1.00  0.00     0.032 A 
HETATM   19  C   UNL     1      -6.918  -0.737 -32.889  1.00  0.00     0.027 A 
HETATM   20  C   UNL     1      -8.387   0.648 -31.393  1.00  0.00     0.056 C 
BRANCH  18  21
HETATM   21  C   UNL     1      -5.377  -2.141 -34.229  1.00  0.00     0.252 C 
HETATM   22  O   UNL     1      -5.288  -2.859 -35.220  1.00  0.00    -0.268 OA
HETATM   23  N   UNL     1      -4.509  -2.186 -33.156  1.00  0.00    -0.352 N 
HETATM   24  H   UNL     1      -4.528  -1.442 -32.471  1.00  0.00     0.163 HD
BRANCH  23  25
HETATM   25  C   UNL     1      -3.405  -3.094 -33.121  1.00  0.00     0.084 A 
HETATM   26  C   UNL     1      -3.021  -3.784 -31.842  1.00  0.00     0.027 A 
HETATM   27  C   UNL     1      -3.640  -4.569 -32.960  1.00  0.00     0.027 A 
ENDBRANCH  23  25
ENDBRANCH  18  21
ENDBRANCH   3  11
BRANCH   1  28
HETATM   28  S   UNL     1      -3.981   3.087 -31.216  1.00  0.00    -0.108 SA
BRANCH  28  29
HETATM   29  C   UNL     1      -3.437   3.270 -32.955  1.00  0.00     0.108 C 
BRANCH  29  30
HETATM   30  C   UNL     1      -2.422   4.410 -33.072  1.00  0.00     0.244 C 
BRANCH  30  31
HETATM   31  N   UNL     1      -2.652   5.246 -34.324  1.00  0.00    -0.078 N 
HETATM   32  C   UNL     1      -4.057   5.161 -34.855  1.00  0.00     0.269 C 
HETATM   33  H   UNL     1      -2.037   4.838 -35.048  1.00  0.00     0.279 HD
HETATM   34  C   UNL     1      -2.215   6.670 -34.135  1.00  0.00     0.269 C 
ENDBRANCH  30  31
ENDBRANCH  29  30
ENDBRANCH  28  29
ENDBRANCH   1  28
BRANCH   8  35
HETATM   35  C   UNL     1      -4.502   8.537 -30.950  1.00  0.00     0.010 A 
HETATM   36  C   UNL     1      -4.675   9.940 -30.905  1.00  0.00     0.152 A 
HETATM   37  N   UNL     1      -3.521  10.601 -30.793  1.00  0.00    -0.187 NA
HETATM   38  N   UNL     1      -2.601   9.624 -30.752  1.00  0.00    -0.289 N 
HETATM   39  H   UNL     1      -1.623   9.884 -30.663  1.00  0.00     0.188 HD
HETATM   40  C   UNL     1      -3.137   8.371 -30.851  1.00  0.00     0.123 A 
ENDBRANCH   8  35
TORSDOF 8
ENDMDL
MODEL 5
REMARK VINA RESULT:      -8.4      3.525      6.887
REMARK  8 active torsions:
REMARK  status: ('A' for Active; 'I' for Inactive)
REMARK    1  A    between atoms: N_2  and  C_5 
REMARK    2  A    between atoms: C_5  and  C_6 
REMARK    3  A    between atoms: C_6  and  S_7 
REMARK    4  A    between atoms: S_7  and  C_8 
REMARK    5  A    between atoms: C_10  and  C_24 
REMARK    6  A    between atoms: C_15  and  C_18 
REMARK    7  A    between atoms: C_30  and  C_34 
REMARK       I    between atoms: C_34  and  N_36 
REMARK    8  A    between atoms: N_36  and  C_37 
ROOT
HETATM    1  C   UNL     1      -5.418   1.683 -32.475  1.00  0.00     0.108 A 
HETATM    2  N   UNL     1      -5.959   2.886 -32.202  1.00  0.00    -0.225 NA
HETATM    3  C   UNL     1      -7.245   3.065 -32.525  1.00  0.00     0.134 A 
HETATM    4  N   UNL     1      -8.024   2.098 -33.035  1.00  0.00    -0.232 NA
HETATM    5  C   UNL     1      -7.471   0.914 -33.315  1.00  0.00     0.072 A 
HETATM    6  C   UNL     1      -8.264  -0.065 -33.897  1.00  0.00     0.033 A 
HETATM    7  C   UNL     1      -7.755  -1.318 -34.254  1.00  0.00     0.014 A 
HETATM    8  C   UNL     1      -6.414  -1.622 -34.023  1.00  0.00    -0.022 A 
HETATM    9  C   UNL     1      -5.609  -0.650 -33.420  1.00  0.00     0.029 A 
HETATM   10  C   UNL     1      -6.128   0.628 -33.065  1.00  0.00     0.029 A 
ENDROOT
BRANCH   3  11
HETATM   11  C   UNL     1      -7.878   4.427 -32.328  1.00  0.00     0.086 C 
HETATM   12  C   UNL     1      -7.924   5.287 -33.596  1.00  0.00     0.188 C 
HETATM   13  O   UNL     1      -8.780   4.797 -34.642  1.00  0.00    -0.350 OA
HETATM   14  C   UNL     1      -9.953   4.223 -34.233  1.00  0.00     0.075 A 
HETATM   15  C   UNL     1     -10.851   3.879 -35.246  1.00  0.00     0.038 A 
HETATM   16  C   UNL     1     -10.254   3.928 -32.901  1.00  0.00    -0.023 A 
HETATM   17  C   UNL     1     -12.054   3.237 -34.939  1.00  0.00     0.020 A 
HETATM   18  C   UNL     1     -12.365   2.945 -33.607  1.00  0.00     0.032 A 
HETATM   19  C   UNL     1     -11.464   3.292 -32.593  1.00  0.00     0.027 A 
HETATM   20  C   UNL     1      -9.306   4.304 -31.797  1.00  0.00     0.056 C 
BRANCH  18  21
HETATM   21  C   UNL     1     -13.607   2.221 -33.228  1.00  0.00     0.252 C 
HETATM   22  O   UNL     1     -13.718   1.029 -33.496  1.00  0.00    -0.268 OA
HETATM   23  N   UNL     1     -14.567   2.960 -32.564  1.00  0.00    -0.352 N 
HETATM   24  H   UNL     1     -14.329   3.878 -32.211  1.00  0.00     0.163 HD
BRANCH  23  25
HETATM   25  C   UNL     1     -15.792   2.374 -32.120  1.00  0.00     0.084 A 
HETATM   26  C   UNL     1     -16.909   3.235 -31.599  1.00  0.00     0.027 A 
HETATM   27  C   UNL     1     -17.050   2.544 -32.923  1.00  0.00     0.027 A 
ENDBRANCH  23  25
ENDBRANCH  18  21
ENDBRANCH   3  11
BRANCH   1  28
HETATM   28  S   UNL     1      -3.663   1.563 -32.104  1.00  0.00    -0.108 SA
BRANCH  28  29
HETATM   29  C   UNL     1      -3.307   3.297 -31.632  1.00  0.00     0.108 C 
BRANCH  29  30
HETATM   30  C   UNL     1      -2.777   4.074 -32.840  1.00  0.00     0.244 C 
BRANCH  30  31
HETATM   31  N   UNL     1      -3.758   5.143 -33.299  1.00  0.00    -0.078 N 
HETATM   32  C   UNL     1      -3.398   6.529 -32.837  1.00  0.00     0.269 C 
HETATM   33  H   UNL     1      -4.658   4.907 -32.850  1.00  0.00     0.279 HD
HETATM   34  C   UNL     1      -3.985   5.094 -34.783  1.00  0.00     0.269 C 
ENDBRANCH  30  31
ENDBRANCH  29  30
ENDBRANCH  28  29
ENDBRANCH   1  28
BRANCH   8  35
HETATM   35  C   UNL     1      -5.854  -2.907 -34.399  1.00  0.00     0.010 A 
HETATM   36  C   UNL     1      -6.462  -4.055 -34.957  1.00  0.00     0.152 A 
HETATM   37  N   UNL     1      -5.607  -5.066 -35.125  1.00  0.00    -0.187 NA
HETATM   38  N   UNL     1      -4.440  -4.567 -34.687  1.00  0.00    -0.289 N 
HETATM   39  H   UNL     1      -3.618  -5.162 -34.718  1.00  0.00     0.188 HD
HETATM   40  C   UNL     1      -4.537  -3.281 -34.235  1.00  0.00     0.123 A 
ENDBRANCH   8  35
TORSDOF 8
ENDMDL
MODEL 6
REMARK VINA RESULT:      -8.0      4.174      7.963
REMARK  8 active torsions:
REMARK  status: ('A' for Active; 'I' for Inactive)
REMARK    1  A    between atoms: N_2  and  C_5 
REMARK    2  A    between atoms: C_5  and  C_6 
REMARK    3  A    between atoms: C_6  and  S_7 
REMARK    4  A    between atoms: S_7  and  C_8 
REMARK    5  A    between atoms: C_10  and  C_24 
REMARK    6  A    between atoms: C_15  and  C_18 
REMARK    7  A    between atoms: C_30  and  C_34 
REMARK       I    between atoms: C_34  and  N_36 
REMARK    8  A    between atoms: N_36  and  C_37 
ROOT
HETATM    1  C   UNL     1     -10.039   4.678 -32.023  1.00  0.00     0.108 A 
HETATM    2  N   UNL     1      -8.717   4.924 -31.939  1.00  0.00    -0.225 NA
HETATM    3  C   UNL     1      -7.897   4.072 -32.567  1.00  0.00     0.134 A 
HETATM    4  N   UNL     1      -8.325   3.045 -33.317  1.00  0.00    -0.232 NA
HETATM    5  C   UNL     1      -9.638   2.804 -33.379  1.00  0.00     0.072 A 
HETATM    6  C   UNL     1     -10.075   1.706 -34.107  1.00  0.00     0.033 A 
HETATM    7  C   UNL     1     -11.428   1.363 -34.192  1.00  0.00     0.014 A 
HETATM    8  C   UNL     1     -12.390   2.133 -33.541  1.00  0.00    -0.022 A 
HETATM    9  C   UNL     1     -11.964   3.253 -32.819  1.00  0.00     0.029 A 
HETATM   10  C   UNL     1     -10.585   3.596 -32.727  1.00  0.00     0.029 A 
ENDROOT
BRANCH   3  11
HETATM   11  C   UNL     1      -6.398   4.245 -32.428  1.00  0.00     0.086 C 
HETATM   12  C   UNL     1      -5.877   4.084 -30.996  1.00  0.00     0.188 C 
HETATM   13  O   UNL     1      -5.997   2.762 -30.443  1.00  0.00    -0.350 OA
HETATM   14  C   UNL     1      -5.770   1.728 -31.311  1.00  0.00     0.075 A 
HETATM   15  C   UNL     1      -5.740   0.452 -30.747  1.00  0.00     0.038 A 
HETATM   16  C   UNL     1      -5.626   1.888 -32.692  1.00  0.00    -0.023 A 
HETATM   17  C   UNL     1      -5.570  -0.676 -31.555  1.00  0.00     0.020 A 
HETATM   18  C   UNL     1      -5.419  -0.524 -32.938  1.00  0.00     0.032 A 
HETATM   19  C   UNL     1      -5.448   0.758 -33.501  1.00  0.00     0.027 A 
HETATM   20  C   UNL     1      -5.640   3.256 -33.314  1.00  0.00     0.056 C 
BRANCH  18  21
HETATM   21  C   UNL     1      -5.284  -1.691 -33.849  1.00  0.00     0.252 C 
HETATM   22  O   UNL     1      -6.053  -1.810 -34.796  1.00  0.00    -0.268 OA
HETATM   23  N   UNL     1      -4.257  -2.571 -33.565  1.00  0.00    -0.352 N 
HETATM   24  H   UNL     1      -3.551  -2.308 -32.891  1.00  0.00     0.163 HD
BRANCH  23  25
HETATM   25  C   UNL     1      -4.003  -3.715 -34.383  1.00  0.00     0.084 A 
HETATM   26  C   UNL     1      -3.408  -4.963 -33.791  1.00  0.00     0.027 A 
HETATM   27  C   UNL     1      -4.840  -4.954 -34.237  1.00  0.00     0.027 A 
ENDBRANCH  23  25
ENDBRANCH  18  21
ENDBRANCH   3  11
BRANCH   1  28
HETATM   28  S   UNL     1     -11.059   5.808 -31.067  1.00  0.00    -0.108 SA
BRANCH  28  29
HETATM   29  C   UNL     1     -11.655   6.919 -32.396  1.00  0.00     0.108 C 
BRANCH  29  30
HETATM   30  C   UNL     1     -10.483   7.709 -32.987  1.00  0.00     0.244 C 
BRANCH  30  31
HETATM   31  N   UNL     1     -10.760   8.146 -34.419  1.00  0.00    -0.078 N 
HETATM   32  C   UNL     1     -10.940   6.997 -35.374  1.00  0.00     0.269 C 
HETATM   33  H   UNL     1      -9.914   8.654 -34.723  1.00  0.00     0.279 HD
HETATM   34  C   UNL     1     -11.903   9.117 -34.497  1.00  0.00     0.269 C 
ENDBRANCH  30  31
ENDBRANCH  29  30
ENDBRANCH  28  29
ENDBRANCH   1  28
BRANCH   8  35
HETATM   35  C   UNL     1     -13.800   1.792 -33.598  1.00  0.00     0.010 A 
HETATM   36  C   UNL     1     -14.502   0.895 -34.436  1.00  0.00     0.152 A 
HETATM   37  N   UNL     1     -15.816   0.888 -34.203  1.00  0.00    -0.187 NA
HETATM   38  N   UNL     1     -15.963   1.772 -33.202  1.00  0.00    -0.289 N 
HETATM   39  H   UNL     1     -16.897   1.940 -32.839  1.00  0.00     0.188 HD
HETATM   40  C   UNL     1     -14.787   2.345 -32.810  1.00  0.00     0.123 A 
ENDBRANCH   8  35
TORSDOF 8
ENDMDL
MODEL 7
REMARK VINA RESULT:      -8.0      3.468      9.790
REMARK  8 active torsions:
REMARK  status: ('A' for Active; 'I' for Inactive)
REMARK    1  A    between atoms: N_2  and  C_5 
REMARK    2  A    between atoms: C_5  and  C_6 
REMARK    3  A    between atoms: C_6  and  S_7 
REMARK    4  A    between atoms: S_7  and  C_8 
REMARK    5  A    between atoms: C_10  and  C_24 
REMARK    6  A    between atoms: C_15  and  C_18 
REMARK    7  A    between atoms: C_30  and  C_34 
REMARK       I    between atoms: C_34  and  N_36 
REMARK    8  A    between atoms: N_36  and  C_37 
ROOT
HETATM    1  C   UNL     1      -3.107   8.135 -30.465  1.00  0.00     0.108 A 
HETATM    2  N   UNL     1      -3.419   7.582 -31.653  1.00  0.00    -0.225 NA
HETATM    3  C   UNL     1      -2.455   6.900 -32.281  1.00  0.00     0.134 A 
HETATM    4  N   UNL     1      -1.236   6.686 -31.761  1.00  0.00    -0.232 NA
HETATM    5  C   UNL     1      -0.934   7.253 -30.589  1.00  0.00     0.072 A 
HETATM    6  C   UNL     1       0.345   7.080 -30.081  1.00  0.00     0.033 A 
HETATM    7  C   UNL     1       0.753   7.669 -28.880  1.00  0.00     0.014 A 
HETATM    8  C   UNL     1      -0.135   8.453 -28.145  1.00  0.00    -0.022 A 
HETATM    9  C   UNL     1      -1.434   8.620 -28.637  1.00  0.00     0.029 A 
HETATM   10  C   UNL     1      -1.845   8.026 -29.865  1.00  0.00     0.029 A 
ENDROOT
BRANCH   3  11
HETATM   11  C   UNL     1      -2.721   6.337 -33.663  1.00  0.00     0.086 C 
HETATM   12  C   UNL     1      -1.780   5.198 -34.069  1.00  0.00     0.188 C 
HETATM   13  O   UNL     1      -1.918   3.985 -33.309  1.00  0.00    -0.350 OA
HETATM   14  C   UNL     1      -3.196   3.645 -32.954  1.00  0.00     0.075 A 
HETATM   15  C   UNL     1      -3.349   2.398 -32.346  1.00  0.00     0.038 A 
HETATM   16  C   UNL     1      -4.300   4.485 -33.120  1.00  0.00    -0.023 A 
HETATM   17  C   UNL     1      -4.605   1.979 -31.896  1.00  0.00     0.020 A 
HETATM   18  C   UNL     1      -5.717   2.811 -32.064  1.00  0.00     0.032 A 
HETATM   19  C   UNL     1      -5.560   4.061 -32.676  1.00  0.00     0.027 A 
HETATM   20  C   UNL     1      -4.156   5.824 -33.787  1.00  0.00     0.056 C 
BRANCH  18  21
HETATM   21  C   UNL     1      -7.065   2.437 -31.562  1.00  0.00     0.252 C 
HETATM   22  O   UNL     1      -7.418   2.807 -30.447  1.00  0.00    -0.268 OA
HETATM   23  N   UNL     1      -7.852   1.695 -32.421  1.00  0.00    -0.352 N 
HETATM   24  H   UNL     1      -7.571   1.592 -33.387  1.00  0.00     0.163 HD
BRANCH  23  25
HETATM   25  C   UNL     1      -9.179   1.298 -32.068  1.00  0.00     0.084 A 
HETATM   26  C   UNL     1     -10.277   1.297 -33.095  1.00  0.00     0.027 A 
HETATM   27  C   UNL     1      -9.741  -0.002 -32.570  1.00  0.00     0.027 A 
ENDBRANCH  23  25
ENDBRANCH  18  21
ENDBRANCH   3  11
BRANCH   1  28
HETATM   28  S   UNL     1      -4.426   9.119 -29.741  1.00  0.00    -0.108 SA
BRANCH  28  29
HETATM   29  C   UNL     1      -5.272   7.845 -28.732  1.00  0.00     0.108 C 
BRANCH  29  30
HETATM   30  C   UNL     1      -5.026   8.103 -27.243  1.00  0.00     0.244 C 
BRANCH  30  31
HETATM   31  N   UNL     1      -4.638   6.829 -26.505  1.00  0.00    -0.078 N 
HETATM   32  C   UNL     1      -5.241   5.584 -27.096  1.00  0.00     0.269 C 
HETATM   33  H   UNL     1      -5.034   6.927 -25.556  1.00  0.00     0.279 HD
HETATM   34  C   UNL     1      -3.151   6.705 -26.346  1.00  0.00     0.269 C 
ENDBRANCH  30  31
ENDBRANCH  29  30
ENDBRANCH  28  29
ENDBRANCH   1  28
BRANCH   8  35
HETATM   35  C   UNL     1       0.265   9.091 -26.904  1.00  0.00     0.010 A 
HETATM   36  C   UNL     1       1.128   8.651 -25.874  1.00  0.00     0.152 A 
HETATM   37  N   UNL     1       1.211   9.518 -24.862  1.00  0.00    -0.187 NA
HETATM   38  N   UNL     1       0.411  10.526 -25.244  1.00  0.00    -0.289 N 
HETATM   39  H   UNL     1       0.311  11.325 -24.625  1.00  0.00     0.188 HD
HETATM   40  C   UNL     1      -0.186  10.314 -26.455  1.00  0.00     0.123 A 
ENDBRANCH   8  35
TORSDOF 8
ENDMDL
MODEL 8
REMARK VINA RESULT:      -7.9      2.409      4.532
REMARK  8 active torsions:
REMARK  status: ('A' for Active; 'I' for Inactive)
REMARK    1  A    between atoms: N_2  and  C_5 
REMARK    2  A    between atoms: C_5  and  C_6 
REMARK    3  A    between atoms: C_6  and  S_7 
REMARK    4  A    between atoms: S_7  and  C_8 
REMARK    5  A    between atoms: C_10  and  C_24 
REMARK    6  A    between atoms: C_15  and  C_18 
REMARK    7  A    between atoms: C_30  and  C_34 
REMARK       I    between atoms: C_34  and  N_36 
REMARK    8  A    between atoms: N_36  and  C_37 
ROOT
HETATM    1  C   UNL     1      -8.209   1.550 -32.646  1.00  0.00     0.108 A 
HETATM    2  N   UNL     1      -8.704   2.798 -32.535  1.00  0.00    -0.225 NA
HETATM    3  C   UNL     1      -7.820   3.796 -32.412  1.00  0.00     0.134 A 
HETATM    4  N   UNL     1      -6.491   3.621 -32.463  1.00  0.00    -0.232 NA
HETATM    5  C   UNL     1      -6.013   2.376 -32.559  1.00  0.00     0.072 A 
HETATM    6  C   UNL     1      -4.638   2.193 -32.552  1.00  0.00     0.033 A 
HETATM    7  C   UNL     1      -4.058   0.921 -32.612  1.00  0.00     0.014 A 
HETATM    8  C   UNL     1      -4.863  -0.215 -32.688  1.00  0.00    -0.022 A 
HETATM    9  C   UNL     1      -6.251  -0.042 -32.714  1.00  0.00     0.029 A 
HETATM   10  C   UNL     1      -6.840   1.254 -32.645  1.00  0.00     0.029 A 
ENDROOT
BRANCH   3  11
HETATM   11  C   UNL     1      -8.320   5.208 -32.188  1.00  0.00     0.086 C 
HETATM   12  C   UNL     1      -9.208   5.371 -30.950  1.00  0.00     0.188 C 
HETATM   13  O   UNL     1      -8.549   5.170 -29.688  1.00  0.00    -0.350 OA
HETATM   14  C   UNL     1      -7.266   5.640 -29.604  1.00  0.00     0.075 A 
HETATM   15  C   UNL     1      -6.675   5.580 -28.340  1.00  0.00     0.038 A 
HETATM   16  C   UNL     1      -6.534   6.109 -30.698  1.00  0.00    -0.023 A 
HETATM   17  C   UNL     1      -5.349   5.984 -28.158  1.00  0.00     0.020 A 
HETATM   18  C   UNL     1      -4.612   6.460 -29.248  1.00  0.00     0.032 A 
HETATM   19  C   UNL     1      -5.208   6.521 -30.514  1.00  0.00     0.027 A 
HETATM   20  C   UNL     1      -7.160   6.195 -32.062  1.00  0.00     0.056 C 
BRANCH  18  21
HETATM   21  C   UNL     1      -3.185   6.857 -29.121  1.00  0.00     0.252 C 
HETATM   22  O   UNL     1      -2.868   7.720 -28.309  1.00  0.00    -0.268 OA
HETATM   23  N   UNL     1      -2.291   6.191 -29.937  1.00  0.00    -0.352 N 
HETATM   24  H   UNL     1      -2.596   5.366 -30.437  1.00  0.00     0.163 HD
BRANCH  23  25
HETATM   25  C   UNL     1      -0.888   6.459 -29.889  1.00  0.00     0.084 A 
HETATM   26  C   UNL     1       0.105   5.427 -30.347  1.00  0.00     0.027 A 
HETATM   27  C   UNL     1      -0.112   6.670 -31.158  1.00  0.00     0.027 A 
ENDBRANCH  23  25
ENDBRANCH  18  21
ENDBRANCH   3  11
BRANCH   1  28
HETATM   28  S   UNL     1      -9.464   0.264 -32.701  1.00  0.00    -0.108 SA
BRANCH  28  29
HETATM   29  C   UNL     1     -10.786   1.131 -33.626  1.00  0.00     0.108 C 
BRANCH  29  30
HETATM   30  C   UNL     1     -12.087   0.326 -33.566  1.00  0.00     0.244 C 
BRANCH  30  31
HETATM   31  N   UNL     1     -13.280   1.204 -33.217  1.00  0.00    -0.078 N 
HETATM   32  C   UNL     1     -13.016   2.675 -33.389  1.00  0.00     0.269 C 
HETATM   33  H   UNL     1     -13.454   1.051 -32.211  1.00  0.00     0.279 HD
HETATM   34  C   UNL     1     -14.522   0.776 -33.944  1.00  0.00     0.269 C 
ENDBRANCH  30  31
ENDBRANCH  29  30
ENDBRANCH  28  29
ENDBRANCH   1  28
BRANCH   8  35
HETATM   35  C   UNL     1      -4.291  -1.547 -32.734  1.00  0.00     0.010 A 
HETATM   36  C   UNL     1      -3.407  -2.206 -31.849  1.00  0.00     0.152 A 
HETATM   37  N   UNL     1      -3.074  -3.431 -32.263  1.00  0.00    -0.187 NA
HETATM   38  N   UNL     1      -3.755  -3.570 -33.412  1.00  0.00    -0.289 N 
HETATM   39  H   UNL     1      -3.665  -4.442 -33.924  1.00  0.00     0.188 HD
HETATM   40  C   UNL     1      -4.492  -2.467 -33.742  1.00  0.00     0.123 A 
ENDBRANCH   8  35
TORSDOF 8
ENDMDL
MODEL 9
REMARK VINA RESULT:      -7.9      4.258      8.050
REMARK  8 active torsions:
REMARK  status: ('A' for Active; 'I' for Inactive)
REMARK    1  A    between atoms: N_2  and  C_5 
REMARK    2  A    between atoms: C_5  and  C_6 
REMARK    3  A    between atoms: C_6  and  S_7 
REMARK    4  A    between atoms: S_7  and  C_8 
REMARK    5  A    between atoms: C_10  and  C_24 
REMARK    6  A    between atoms: C_15  and  C_18 
REMARK    7  A    between atoms: C_30  and  C_34 
REMARK       I    between atoms: C_34  and  N_36 
REMARK    8  A    between atoms: N_36  and  C_37 
ROOT
HETATM    1  C   UNL     1     -10.045   4.815 -32.089  1.00  0.00     0.108 A 
HETATM    2  N   UNL     1      -8.720   5.042 -31.996  1.00  0.00    -0.225 NA
HETATM    3  C   UNL     1      -7.905   4.132 -32.542  1.00  0.00     0.134 A 
HETATM    4  N   UNL     1      -8.339   3.061 -33.224  1.00  0.00    -0.232 NA
HETATM    5  C   UNL     1      -9.655   2.840 -33.297  1.00  0.00     0.072 A 
HETATM    6  C   UNL     1     -10.099   1.700 -33.952  1.00  0.00     0.033 A 
HETATM    7  C   UNL     1     -11.456   1.376 -34.041  1.00  0.00     0.014 A 
HETATM    8  C   UNL     1     -12.416   2.210 -33.468  1.00  0.00    -0.022 A 
HETATM    9  C   UNL     1     -11.982   3.372 -32.820  1.00  0.00     0.029 A 
HETATM   10  C   UNL     1     -10.598   3.695 -32.724  1.00  0.00     0.029 A 
ENDROOT
BRANCH   3  11
HETATM   11  C   UNL     1      -6.406   4.287 -32.385  1.00  0.00     0.086 C 
HETATM   12  C   UNL     1      -5.904   4.108 -30.948  1.00  0.00     0.188 C 
HETATM   13  O   UNL     1      -6.045   2.783 -30.407  1.00  0.00    -0.350 OA
HETATM   14  C   UNL     1      -5.819   1.754 -31.282  1.00  0.00     0.075 A 
HETATM   15  C   UNL     1      -5.810   0.473 -30.728  1.00  0.00     0.038 A 
HETATM   16  C   UNL     1      -5.658   1.924 -32.660  1.00  0.00    -0.023 A 
HETATM   17  C   UNL     1      -5.643  -0.650 -31.544  1.00  0.00     0.020 A 
HETATM   18  C   UNL     1      -5.474  -0.488 -32.923  1.00  0.00     0.032 A 
HETATM   19  C   UNL     1      -5.482   0.799 -33.476  1.00  0.00     0.027 A 
HETATM   20  C   UNL     1      -5.649   3.297 -33.270  1.00  0.00     0.056 C 
BRANCH  18  21
HETATM   21  C   UNL     1      -5.341  -1.649 -33.843  1.00  0.00     0.252 C 
HETATM   22  O   UNL     1      -6.096  -1.748 -34.804  1.00  0.00    -0.268 OA
HETATM   23  N   UNL     1      -4.333  -2.547 -33.550  1.00  0.00    -0.352 N 
HETATM   24  H   UNL     1      -3.634  -2.301 -32.861  1.00  0.00     0.163 HD
BRANCH  23  25
HETATM   25  C   UNL     1      -4.082  -3.688 -34.374  1.00  0.00     0.084 A 
HETATM   26  C   UNL     1      -3.429  -4.916 -33.803  1.00  0.00     0.027 A 
HETATM   27  C   UNL     1      -4.879  -4.948 -34.188  1.00  0.00     0.027 A 
ENDBRANCH  23  25
ENDBRANCH  18  21
ENDBRANCH   3  11
BRANCH   1  28
HETATM   28  S   UNL     1     -11.061   6.031 -31.240  1.00  0.00    -0.108 SA
BRANCH  28  29
HETATM   29  C   UNL     1      -9.771   6.972 -30.344  1.00  0.00     0.108 C 
BRANCH  29  30
HETATM   30  C   UNL     1     -10.420   7.985 -29.397  1.00  0.00     0.244 C 
BRANCH  30  31
HETATM   31  N   UNL     1      -9.434   8.498 -28.355  1.00  0.00    -0.078 N 
HETATM   32  C   UNL     1      -9.214   9.985 -28.416  1.00  0.00     0.269 C 
HETATM   33  H   UNL     1      -8.530   8.056 -28.586  1.00  0.00     0.279 HD
HETATM   34  C   UNL     1      -9.798   8.047 -26.970  1.00  0.00     0.269 C 
ENDBRANCH  30  31
ENDBRANCH  29  30
ENDBRANCH  28  29
ENDBRANCH   1  28
BRANCH   8  35
HETATM   35  C   UNL     1     -13.831   1.891 -33.529  1.00  0.00     0.010 A 
HETATM   36  C   UNL     1     -14.894   2.227 -32.659  1.00  0.00     0.152 A 
HETATM   37  N   UNL     1     -16.062   1.706 -33.043  1.00  0.00    -0.187 NA
HETATM   38  N   UNL     1     -15.756   1.043 -34.170  1.00  0.00    -0.289 N 
HETATM   39  H   UNL     1     -16.500   0.555 -34.660  1.00  0.00     0.188 HD
HETATM   40  C   UNL     1     -14.432   1.117 -34.499  1.00  0.00     0.123 A 
ENDBRANCH   8  35
TORSDOF 8
ENDMDL
MODEL 10
REMARK VINA RESULT:      -7.9      3.093      5.442
REMARK  8 active torsions:
REMARK  status: ('A' for Active; 'I' for Inactive)
REMARK    1  A    between atoms: N_2  and  C_5 
REMARK    2  A    between atoms: C_5  and  C_6 
REMARK    3  A    between atoms: C_6  and  S_7 
REMARK    4  A    between atoms: S_7  and  C_8 
REMARK    5  A    between atoms: C_10  and  C_24 
REMARK    6  A    between atoms: C_15  and  C_18 
REMARK    7  A    between atoms: C_30  and  C_34 
REMARK       I    between atoms: C_34  and  N_36 
REMARK    8  A    between atoms: N_36  and  C_37 
ROOT
HETATM    1  C   UNL     1      -4.810   5.385 -32.753  1.00  0.00     0.108 A 
HETATM    2  N   UNL     1      -3.615   5.989 -32.892  1.00  0.00    -0.225 NA
HETATM    3  C   UNL     1      -2.533   5.201 -32.929  1.00  0.00     0.134 A 
HETATM    4  N   UNL     1      -2.590   3.861 -32.905  1.00  0.00    -0.232 NA
HETATM    5  C   UNL     1      -3.782   3.274 -32.752  1.00  0.00     0.072 A 
HETATM    6  C   UNL     1      -3.832   1.891 -32.668  1.00  0.00     0.033 A 
HETATM    7  C   UNL     1      -5.033   1.201 -32.472  1.00  0.00     0.014 A 
HETATM    8  C   UNL     1      -6.234   1.902 -32.361  1.00  0.00    -0.022 A 
HETATM    9  C   UNL     1      -6.198   3.296 -32.463  1.00  0.00     0.029 A 
HETATM   10  C   UNL     1      -4.973   3.996 -32.654  1.00  0.00     0.029 A 
ENDROOT
BRANCH   3  11
HETATM   11  C   UNL     1      -1.156   5.831 -32.988  1.00  0.00     0.086 C 
HETATM   12  C   UNL     1      -1.143   7.260 -33.539  1.00  0.00     0.188 C 
HETATM   13  O   UNL     1      -1.798   8.243 -32.719  1.00  0.00    -0.350 OA
HETATM   14  C   UNL     1      -1.641   8.093 -31.368  1.00  0.00     0.075 A 
HETATM   15  C   UNL     1      -2.150   9.123 -30.576  1.00  0.00     0.038 A 
HETATM   16  C   UNL     1      -1.064   6.968 -30.771  1.00  0.00    -0.023 A 
HETATM   17  C   UNL     1      -2.090   9.041 -29.182  1.00  0.00     0.020 A 
HETATM   18  C   UNL     1      -1.508   7.922 -28.576  1.00  0.00     0.032 A 
HETATM   19  C   UNL     1      -0.997   6.890 -29.373  1.00  0.00     0.027 A 
HETATM   20  C   UNL     1      -0.498   5.857 -31.609  1.00  0.00     0.056 C 
BRANCH  18  21
HETATM   21  C   UNL     1      -1.462   7.760 -27.099  1.00  0.00     0.252 C 
HETATM   22  O   UNL     1      -1.175   6.668 -26.619  1.00  0.00    -0.268 OA
HETATM   23  N   UNL     1      -1.734   8.889 -26.352  1.00  0.00    -0.352 N 
HETATM   24  H   UNL     1      -1.773   9.790 -26.811  1.00  0.00     0.163 HD
BRANCH  23  25
HETATM   25  C   UNL     1      -1.692   8.872 -24.923  1.00  0.00     0.084 A 
HETATM   26  C   UNL     1      -2.323   9.980 -24.125  1.00  0.00     0.027 A 
HETATM   27  C   UNL     1      -2.942   8.614 -24.130  1.00  0.00     0.027 A 
ENDBRANCH  23  25
ENDBRANCH  18  21
ENDBRANCH   3  11
BRANCH   1  28
HETATM   28  S   UNL     1      -6.196   6.521 -32.608  1.00  0.00    -0.108 SA
BRANCH  28  29
HETATM   29  C   UNL     1      -5.583   7.620 -31.277  1.00  0.00     0.108 C 
BRANCH  29  30
HETATM   30  C   UNL     1      -6.479   7.502 -30.041  1.00  0.00     0.244 C 
BRANCH  30  31
HETATM   31  N   UNL     1      -5.861   6.604 -28.979  1.00  0.00    -0.078 N 
HETATM   32  C   UNL     1      -5.205   7.362 -27.857  1.00  0.00     0.269 C 
HETATM   33  H   UNL     1      -5.111   6.080 -29.459  1.00  0.00     0.279 HD
HETATM   34  C   UNL     1      -6.840   5.588 -28.465  1.00  0.00     0.269 C 
ENDBRANCH  30  31
ENDBRANCH  29  30
ENDBRANCH  28  29
ENDBRANCH   1  28
BRANCH   8  35
HETATM   35  C   UNL     1      -7.493   1.215 -32.140  1.00  0.00     0.010 A 
HETATM   36  C   UNL     1      -8.227   0.337 -32.971  1.00  0.00     0.152 A 
HETATM   37  N   UNL     1      -9.375  -0.061 -32.418  1.00  0.00    -0.187 NA
HETATM   38  N   UNL     1      -9.378   0.550 -31.223  1.00  0.00    -0.289 N 
HETATM   39  H   UNL     1     -10.167   0.394 -30.603  1.00  0.00     0.188 HD
HETATM   40  C   UNL     1      -8.277   1.331 -31.012  1.00  0.00     0.123 A 
ENDBRANCH   8  35
TORSDOF 8
ENDMDL
