MODEL 1
REMARK VINA RESULT:      -9.2      0.000      0.000
REMARK  4 active torsions:
REMARK  status: ('A' for Active; 'I' for Inactive)
REMARK    1  A    between atoms: C_5  and  C_6 
REMARK    2  A    between atoms: C_16  and  C_17 
REMARK       I    between atoms: C_17  and  N_18 
REMARK    3  A    between atoms: N_18  and  C_19 
REMARK    4  A    between atoms: C_20  and  O_21 
ROOT
HETATM    1  C   UNL     1      -5.993   3.790 -32.010  1.00  0.00     0.202 C 
HETATM    2  N   UNL     1      -6.096   4.792 -30.940  1.00  0.00    -0.083 N 
HETATM    3  C   UNL     1      -5.852   4.523 -29.626  1.00  0.00     0.726 A 
HETATM    4  N   UNL     1      -5.945   5.626 -28.927  1.00  0.00    -0.046 NA
HETATM    5  C   UNL     1      -6.296   6.559 -29.877  1.00  0.00     0.162 A 
HETATM    6  C   UNL     1      -6.486   7.984 -29.541  1.00  0.00     0.096 C 
HETATM    7  N   UNL     1      -6.443   6.085 -31.125  1.00  0.00    -0.141 NA
HETATM    8  N   UNL     1      -5.606   3.255 -29.259  1.00  0.00    -0.192 N 
HETATM    9  C   UNL     1      -5.806   2.169 -30.111  1.00  0.00     0.037 C 
HETATM   10  C   UNL     1      -5.714   0.819 -29.435  1.00  0.00     0.070 C 
HETATM   11  C   UNL     1      -6.046   2.369 -31.440  1.00  0.00     0.062 C 
HETATM   12  H   UNL     1      -5.527   3.056 -28.266  1.00  0.00     0.184 HD
ENDROOT
BRANCH  11  13
HETATM   13  C   UNL     1      -6.415   1.215 -32.335  1.00  0.00     0.256 C 
HETATM   14  N   UNL     1      -5.384   0.451 -32.837  1.00  0.00    -0.321 N 
HETATM   15  H   UNL     1      -4.416   0.727 -32.722  1.00  0.00     0.169 HD
HETATM   16  O   UNL     1      -7.592   1.036 -32.642  1.00  0.00    -0.267 OA
BRANCH  14  17
HETATM   17  C   UNL     1      -5.517  -0.719 -33.632  1.00  0.00     0.068 A 
HETATM   18  C   UNL     1      -4.495  -1.685 -33.547  1.00  0.00     0.095 A 
HETATM   19  C   UNL     1      -4.595  -2.876 -34.278  1.00  0.00     0.039 A 
HETATM   20  C   UNL     1      -5.694  -3.100 -35.109  1.00  0.00     0.003 A 
HETATM   21  C   UNL     1      -6.698  -2.142 -35.207  1.00  0.00     0.002 A 
HETATM   22  C   UNL     1      -6.611  -0.959 -34.471  1.00  0.00     0.032 A 
BRANCH  18  23
HETATM   23  O   UNL     1      -3.437  -1.377 -32.722  1.00  0.00    -0.354 OA
HETATM   24  C   UNL     1      -3.013  -2.430 -31.860  1.00  0.00     0.210 C 
ENDBRANCH  18  23
ENDBRANCH  14  17
ENDBRANCH  11  13
BRANCH   1  25
HETATM   25  C   UNL     1      -4.730   4.096 -32.826  1.00  0.00    -0.028 A 
HETATM   26  C   UNL     1      -3.438   3.802 -32.356  1.00  0.00     0.010 A 
HETATM   27  C   UNL     1      -2.305   4.201 -33.071  1.00  0.00     0.007 A 
HETATM   28  C   UNL     1      -2.431   4.911 -34.268  1.00  0.00    -0.062 A 
HETATM   29  C   UNL     1      -1.210   5.424 -34.973  1.00  0.00     0.048 C 
HETATM   30  C   UNL     1      -3.710   5.211 -34.744  1.00  0.00     0.007 A 
HETATM   31  C   UNL     1      -4.844   4.799 -34.039  1.00  0.00     0.010 A 
ENDBRANCH   1  25
TORSDOF 4
ENDMDL
MODEL 2
REMARK VINA RESULT:      -9.0      4.112      6.436
REMARK  4 active torsions:
REMARK  status: ('A' for Active; 'I' for Inactive)
REMARK    1  A    between atoms: C_5  and  C_6 
REMARK    2  A    between atoms: C_16  and  C_17 
REMARK       I    between atoms: C_17  and  N_18 
REMARK    3  A    between atoms: N_18  and  C_19 
REMARK    4  A    between atoms: C_20  and  O_21 
ROOT
HETATM    1  C   UNL     1      -7.267   2.470 -33.775  1.00  0.00     0.202 C 
HETATM    2  N   UNL     1      -6.242   3.522 -33.724  1.00  0.00    -0.083 N 
HETATM    3  C   UNL     1      -5.886   4.176 -32.583  1.00  0.00     0.726 A 
HETATM    4  N   UNL     1      -4.897   4.995 -32.835  1.00  0.00    -0.046 NA
HETATM    5  C   UNL     1      -4.704   4.830 -34.189  1.00  0.00     0.162 A 
HETATM    6  C   UNL     1      -3.645   5.552 -34.922  1.00  0.00     0.096 C 
HETATM    7  N   UNL     1      -5.537   3.965 -34.789  1.00  0.00    -0.141 NA
HETATM    8  N   UNL     1      -6.574   3.934 -31.455  1.00  0.00    -0.192 N 
HETATM    9  C   UNL     1      -7.771   3.218 -31.439  1.00  0.00     0.037 C 
HETATM   10  C   UNL     1      -8.513   3.270 -30.122  1.00  0.00     0.070 C 
HETATM   11  C   UNL     1      -8.181   2.532 -32.547  1.00  0.00     0.062 C 
HETATM   12  H   UNL     1      -6.365   4.503 -30.640  1.00  0.00     0.184 HD
ENDROOT
BRANCH  11  13
HETATM   13  C   UNL     1      -9.541   1.886 -32.590  1.00  0.00     0.256 C 
HETATM   14  N   UNL     1     -10.550   2.582 -33.218  1.00  0.00    -0.321 N 
HETATM   15  H   UNL     1     -10.423   3.540 -33.521  1.00  0.00     0.169 HD
HETATM   16  O   UNL     1      -9.723   0.815 -32.015  1.00  0.00    -0.267 OA
BRANCH  14  17
HETATM   17  C   UNL     1     -11.877   2.123 -33.434  1.00  0.00     0.068 A 
HETATM   18  C   UNL     1     -12.913   2.763 -32.724  1.00  0.00     0.095 A 
HETATM   19  C   UNL     1     -14.244   2.378 -32.930  1.00  0.00     0.039 A 
HETATM   20  C   UNL     1     -14.548   1.346 -33.819  1.00  0.00     0.003 A 
HETATM   21  C   UNL     1     -13.527   0.702 -34.511  1.00  0.00     0.002 A 
HETATM   22  C   UNL     1     -12.199   1.090 -34.321  1.00  0.00     0.032 A 
BRANCH  18  23
HETATM   23  O   UNL     1     -12.526   3.755 -31.851  1.00  0.00    -0.354 OA
HETATM   24  C   UNL     1     -13.479   4.080 -30.842  1.00  0.00     0.210 C 
ENDBRANCH  18  23
ENDBRANCH  14  17
ENDBRANCH  11  13
BRANCH   1  25
HETATM   25  C   UNL     1      -6.556   1.124 -33.966  1.00  0.00    -0.028 A 
HETATM   26  C   UNL     1      -6.984   0.170 -34.906  1.00  0.00     0.010 A 
HETATM   27  C   UNL     1      -6.388  -1.092 -34.971  1.00  0.00     0.007 A 
HETATM   28  C   UNL     1      -5.355  -1.440 -34.095  1.00  0.00    -0.062 A 
HETATM   29  C   UNL     1      -4.793  -2.830 -34.105  1.00  0.00     0.048 C 
HETATM   30  C   UNL     1      -4.923  -0.500 -33.155  1.00  0.00     0.007 A 
HETATM   31  C   UNL     1      -5.507   0.768 -33.098  1.00  0.00     0.010 A 
ENDBRANCH   1  25
TORSDOF 4
ENDMDL
MODEL 3
REMARK VINA RESULT:      -9.0      2.695      4.340
REMARK  4 active torsions:
REMARK  status: ('A' for Active; 'I' for Inactive)
REMARK    1  A    between atoms: C_5  and  C_6 
REMARK    2  A    between atoms: C_16  and  C_17 
REMARK       I    between atoms: C_17  and  N_18 
REMARK    3  A    between atoms: N_18  and  C_19 
REMARK    4  A    between atoms: C_20  and  O_21 
ROOT
HETATM    1  C   UNL     1      -7.965   1.979 -31.576  1.00  0.00     0.202 C 
HETATM    2  N   UNL     1      -7.872   3.313 -30.969  1.00  0.00    -0.083 N 
HETATM    3  C   UNL     1      -6.816   4.155 -31.151  1.00  0.00     0.726 A 
HETATM    4  N   UNL     1      -7.054   5.295 -30.554  1.00  0.00    -0.046 NA
HETATM    5  C   UNL     1      -8.285   5.083 -29.973  1.00  0.00     0.162 A 
HETATM    6  C   UNL     1      -8.978   6.133 -29.202  1.00  0.00     0.096 C 
HETATM    7  N   UNL     1      -8.810   3.861 -30.164  1.00  0.00    -0.141 NA
HETATM    8  N   UNL     1      -5.746   3.715 -31.832  1.00  0.00    -0.192 N 
HETATM    9  C   UNL     1      -5.565   2.374 -32.172  1.00  0.00     0.037 C 
HETATM   10  C   UNL     1      -4.190   2.046 -32.710  1.00  0.00     0.070 C 
HETATM   11  C   UNL     1      -6.587   1.480 -32.023  1.00  0.00     0.062 C 
HETATM   12  H   UNL     1      -4.928   4.316 -31.871  1.00  0.00     0.184 HD
ENDROOT
BRANCH  11  13
HETATM   13  C   UNL     1      -6.355   0.007 -32.240  1.00  0.00     0.256 C 
HETATM   14  N   UNL     1      -6.293  -0.435 -33.543  1.00  0.00    -0.321 N 
HETATM   15  H   UNL     1      -6.524   0.171 -34.320  1.00  0.00     0.169 HD
HETATM   16  O   UNL     1      -6.301  -0.748 -31.272  1.00  0.00    -0.267 OA
BRANCH  14  17
HETATM   17  C   UNL     1      -6.009  -1.763 -33.964  1.00  0.00     0.068 A 
HETATM   18  C   UNL     1      -4.679  -2.214 -33.847  1.00  0.00     0.095 A 
HETATM   19  C   UNL     1      -4.351  -3.526 -34.210  1.00  0.00     0.039 A 
HETATM   20  C   UNL     1      -5.333  -4.385 -34.708  1.00  0.00     0.003 A 
HETATM   21  C   UNL     1      -6.644  -3.938 -34.838  1.00  0.00     0.002 A 
HETATM   22  C   UNL     1      -6.981  -2.635 -34.467  1.00  0.00     0.032 A 
BRANCH  18  23
HETATM   23  O   UNL     1      -3.769  -1.299 -33.368  1.00  0.00    -0.354 OA
HETATM   24  C   UNL     1      -3.074  -1.696 -32.188  1.00  0.00     0.210 C 
ENDBRANCH  18  23
ENDBRANCH  14  17
ENDBRANCH  11  13
BRANCH   1  25
HETATM   25  C   UNL     1      -9.008   2.041 -32.700  1.00  0.00    -0.028 A 
HETATM   26  C   UNL     1      -9.114   3.138 -33.573  1.00  0.00     0.010 A 
HETATM   27  C   UNL     1     -10.149   3.216 -34.508  1.00  0.00     0.007 A 
HETATM   28  C   UNL     1     -11.112   2.205 -34.592  1.00  0.00    -0.062 A 
HETATM   29  C   UNL     1     -12.275   2.348 -35.527  1.00  0.00     0.048 C 
HETATM   30  C   UNL     1     -11.017   1.110 -33.729  1.00  0.00     0.007 A 
HETATM   31  C   UNL     1      -9.974   1.023 -32.803  1.00  0.00     0.010 A 
ENDBRANCH   1  25
TORSDOF 4
ENDMDL
MODEL 4
REMARK VINA RESULT:      -8.8      3.860      6.525
REMARK  4 active torsions:
REMARK  status: ('A' for Active; 'I' for Inactive)
REMARK    1  A    between atoms: C_5  and  C_6 
REMARK    2  A    between atoms: C_16  and  C_17 
REMARK       I    between atoms: C_17  and  N_18 
REMARK    3  A    between atoms: N_18  and  C_19 
REMARK    4  A    between atoms: C_20  and  O_21 
ROOT
HETATM    1  C   UNL     1      -7.129   3.138 -33.410  1.00  0.00     0.202 C 
HETATM    2  N   UNL     1      -5.889   3.920 -33.512  1.00  0.00    -0.083 N 
HETATM    3  C   UNL     1      -5.157   4.320 -32.435  1.00  0.00     0.726 A 
HETATM    4  N   UNL     1      -4.071   4.926 -32.842  1.00  0.00    -0.046 NA
HETATM    5  C   UNL     1      -4.207   4.906 -34.212  1.00  0.00     0.162 A 
HETATM    6  C   UNL     1      -3.178   5.468 -35.109  1.00  0.00     0.096 C 
HETATM    7  N   UNL     1      -5.333   4.335 -34.672  1.00  0.00    -0.141 NA
HETATM    8  N   UNL     1      -5.636   4.086 -31.202  1.00  0.00    -0.192 N 
HETATM    9  C   UNL     1      -6.942   3.657 -30.968  1.00  0.00     0.037 C 
HETATM   10  C   UNL     1      -7.361   3.694 -29.515  1.00  0.00     0.070 C 
HETATM   11  C   UNL     1      -7.727   3.234 -32.002  1.00  0.00     0.062 C 
HETATM   12  H   UNL     1      -5.130   4.479 -30.414  1.00  0.00     0.184 HD
ENDROOT
BRANCH  11  13
HETATM   13  C   UNL     1      -9.183   2.916 -31.782  1.00  0.00     0.256 C 
HETATM   14  N   UNL     1     -10.089   3.930 -32.000  1.00  0.00    -0.321 N 
HETATM   15  H   UNL     1      -9.788   4.882 -32.171  1.00  0.00     0.169 HD
HETATM   16  O   UNL     1      -9.505   1.810 -31.355  1.00  0.00    -0.267 OA
BRANCH  14  17
HETATM   17  C   UNL     1     -11.504   3.821 -31.923  1.00  0.00     0.068 A 
HETATM   18  C   UNL     1     -12.182   3.322 -33.053  1.00  0.00     0.095 A 
HETATM   19  C   UNL     1     -13.572   3.156 -33.017  1.00  0.00     0.039 A 
HETATM   20  C   UNL     1     -14.293   3.503 -31.874  1.00  0.00     0.003 A 
HETATM   21  C   UNL     1     -13.629   4.009 -30.761  1.00  0.00     0.002 A 
HETATM   22  C   UNL     1     -12.242   4.166 -30.785  1.00  0.00     0.032 A 
BRANCH  18  23
HETATM   23  O   UNL     1     -11.400   3.025 -34.146  1.00  0.00    -0.354 OA
HETATM   24  C   UNL     1     -11.408   1.656 -34.544  1.00  0.00     0.210 C 
ENDBRANCH  18  23
ENDBRANCH  14  17
ENDBRANCH  11  13
BRANCH   1  25
HETATM   25  C   UNL     1      -6.825   1.705 -33.870  1.00  0.00    -0.028 A 
HETATM   26  C   UNL     1      -7.606   1.039 -34.831  1.00  0.00     0.010 A 
HETATM   27  C   UNL     1      -7.374  -0.304 -35.140  1.00  0.00     0.007 A 
HETATM   28  C   UNL     1      -6.363  -1.021 -34.491  1.00  0.00    -0.062 A 
HETATM   29  C   UNL     1      -6.190  -2.487 -34.755  1.00  0.00     0.048 C 
HETATM   30  C   UNL     1      -5.582  -0.369 -33.533  1.00  0.00     0.007 A 
HETATM   31  C   UNL     1      -5.802   0.978 -33.234  1.00  0.00     0.010 A 
ENDBRANCH   1  25
TORSDOF 4
ENDMDL
MODEL 5
REMARK VINA RESULT:      -8.8      3.313      6.777
REMARK  4 active torsions:
REMARK  status: ('A' for Active; 'I' for Inactive)
REMARK    1  A    between atoms: C_5  and  C_6 
REMARK    2  A    between atoms: C_16  and  C_17 
REMARK       I    between atoms: C_17  and  N_18 
REMARK    3  A    between atoms: N_18  and  C_19 
REMARK    4  A    between atoms: C_20  and  O_21 
ROOT
HETATM    1  C   UNL     1      -8.596   1.516 -32.660  1.00  0.00     0.202 C 
HETATM    2  N   UNL     1      -9.965   1.300 -33.148  1.00  0.00    -0.083 N 
HETATM    3  C   UNL     1     -10.596   2.132 -34.024  1.00  0.00     0.726 A 
HETATM    4  N   UNL     1     -11.768   1.639 -34.332  1.00  0.00    -0.046 NA
HETATM    5  C   UNL     1     -11.826   0.494 -33.568  1.00  0.00     0.162 A 
HETATM    6  C   UNL     1     -12.985  -0.420 -33.616  1.00  0.00     0.096 C 
HETATM    7  N   UNL     1     -10.757   0.265 -32.789  1.00  0.00    -0.141 NA
HETATM    8  N   UNL     1      -9.986   3.272 -34.389  1.00  0.00    -0.192 N 
HETATM    9  C   UNL     1      -8.844   3.756 -33.751  1.00  0.00     0.037 C 
HETATM   10  C   UNL     1      -8.462   5.167 -34.141  1.00  0.00     0.070 C 
HETATM   11  C   UNL     1      -8.160   2.970 -32.869  1.00  0.00     0.062 C 
HETATM   12  H   UNL     1     -10.511   3.928 -34.961  1.00  0.00     0.184 HD
ENDROOT
BRANCH  11  13
HETATM   13  C   UNL     1      -7.020   3.536 -32.062  1.00  0.00     0.256 C 
HETATM   14  N   UNL     1      -5.850   3.815 -32.734  1.00  0.00    -0.321 N 
HETATM   15  H   UNL     1      -5.712   3.532 -33.696  1.00  0.00     0.169 HD
HETATM   16  O   UNL     1      -7.141   3.661 -30.846  1.00  0.00    -0.267 OA
BRANCH  14  17
HETATM   17  C   UNL     1      -4.689   4.419 -32.180  1.00  0.00     0.068 A 
HETATM   18  C   UNL     1      -3.538   3.617 -32.045  1.00  0.00     0.095 A 
HETATM   19  C   UNL     1      -2.354   4.172 -31.544  1.00  0.00     0.039 A 
HETATM   20  C   UNL     1      -2.315   5.512 -31.155  1.00  0.00     0.003 A 
HETATM   21  C   UNL     1      -3.453   6.303 -31.273  1.00  0.00     0.002 A 
HETATM   22  C   UNL     1      -4.633   5.760 -31.785  1.00  0.00     0.032 A 
BRANCH  18  23
HETATM   23  O   UNL     1      -3.667   2.302 -32.431  1.00  0.00    -0.354 OA
HETATM   24  C   UNL     1      -3.484   1.344 -31.391  1.00  0.00     0.210 C 
ENDBRANCH  18  23
ENDBRANCH  14  17
ENDBRANCH  11  13
BRANCH   1  25
HETATM   25  C   UNL     1      -7.684   0.481 -33.334  1.00  0.00    -0.028 A 
HETATM   26  C   UNL     1      -7.828   0.113 -34.683  1.00  0.00     0.010 A 
HETATM   27  C   UNL     1      -7.060  -0.917 -35.232  1.00  0.00     0.007 A 
HETATM   28  C   UNL     1      -6.134  -1.612 -34.448  1.00  0.00    -0.062 A 
HETATM   29  C   UNL     1      -5.390  -2.782 -35.020  1.00  0.00     0.048 C 
HETATM   30  C   UNL     1      -5.983  -1.255 -33.106  1.00  0.00     0.007 A 
HETATM   31  C   UNL     1      -6.739  -0.215 -32.558  1.00  0.00     0.010 A 
ENDBRANCH   1  25
TORSDOF 4
ENDMDL
MODEL 6
REMARK VINA RESULT:      -8.5      3.180      5.644
REMARK  4 active torsions:
REMARK  status: ('A' for Active; 'I' for Inactive)
REMARK    1  A    between atoms: C_5  and  C_6 
REMARK    2  A    between atoms: C_16  and  C_17 
REMARK       I    between atoms: C_17  and  N_18 
REMARK    3  A    between atoms: N_18  and  C_19 
REMARK    4  A    between atoms: C_20  and  O_21 
ROOT
HETATM    1  C   UNL     1      -5.184   2.264 -32.672  1.00  0.00     0.202 C 
HETATM    2  N   UNL     1      -4.157   3.265 -32.350  1.00  0.00    -0.083 N 
HETATM    3  C   UNL     1      -4.127   3.969 -31.184  1.00  0.00     0.726 A 
HETATM    4  N   UNL     1      -3.057   4.722 -31.151  1.00  0.00    -0.046 NA
HETATM    5  C   UNL     1      -2.468   4.465 -32.370  1.00  0.00     0.162 A 
HETATM    6  C   UNL     1      -1.191   5.088 -32.768  1.00  0.00     0.096 C 
HETATM    7  N   UNL     1      -3.132   3.607 -33.162  1.00  0.00    -0.141 NA
HETATM    8  N   UNL     1      -5.143   3.830 -30.316  1.00  0.00    -0.192 N 
HETATM    9  C   UNL     1      -6.331   3.176 -30.642  1.00  0.00     0.037 C 
HETATM   10  C   UNL     1      -7.437   3.345 -29.624  1.00  0.00     0.070 C 
HETATM   11  C   UNL     1      -6.425   2.445 -31.792  1.00  0.00     0.062 C 
HETATM   12  H   UNL     1      -5.157   4.436 -29.501  1.00  0.00     0.184 HD
ENDROOT
BRANCH  11  13
HETATM   13  C   UNL     1      -7.745   1.866 -32.227  1.00  0.00     0.256 C 
HETATM   14  N   UNL     1      -8.595   2.692 -32.928  1.00  0.00    -0.321 N 
HETATM   15  H   UNL     1      -8.406   3.682 -33.033  1.00  0.00     0.169 HD
HETATM   16  O   UNL     1      -8.048   0.723 -31.891  1.00  0.00    -0.267 OA
BRANCH  14  17
HETATM   17  C   UNL     1      -9.847   2.324 -33.493  1.00  0.00     0.068 A 
HETATM   18  C   UNL     1     -10.392   3.169 -34.479  1.00  0.00     0.095 A 
HETATM   19  C   UNL     1     -11.602   2.833 -35.098  1.00  0.00     0.039 A 
HETATM   20  C   UNL     1     -12.284   1.673 -34.726  1.00  0.00     0.003 A 
HETATM   21  C   UNL     1     -11.756   0.843 -33.741  1.00  0.00     0.002 A 
HETATM   22  C   UNL     1     -10.543   1.166 -33.130  1.00  0.00     0.032 A 
BRANCH  18  23
HETATM   23  O   UNL     1      -9.668   4.303 -34.773  1.00  0.00    -0.354 OA
HETATM   24  C   UNL     1     -10.357   5.534 -34.565  1.00  0.00     0.210 C 
ENDBRANCH  18  23
ENDBRANCH  14  17
ENDBRANCH  11  13
BRANCH   1  25
HETATM   25  C   UNL     1      -4.538   0.875 -32.575  1.00  0.00    -0.028 A 
HETATM   26  C   UNL     1      -4.917  -0.193 -33.407  1.00  0.00     0.010 A 
HETATM   27  C   UNL     1      -4.395  -1.475 -33.213  1.00  0.00     0.007 A 
HETATM   28  C   UNL     1      -3.489  -1.727 -32.179  1.00  0.00    -0.062 A 
HETATM   29  C   UNL     1      -3.014  -3.125 -31.916  1.00  0.00     0.048 C 
HETATM   30  C   UNL     1      -3.106  -0.673 -31.345  1.00  0.00     0.007 A 
HETATM   31  C   UNL     1      -3.615   0.613 -31.547  1.00  0.00     0.010 A 
ENDBRANCH   1  25
TORSDOF 4
ENDMDL
MODEL 7
REMARK VINA RESULT:      -8.4      3.324      7.332
REMARK  4 active torsions:
REMARK  status: ('A' for Active; 'I' for Inactive)
REMARK    1  A    between atoms: C_5  and  C_6 
REMARK    2  A    between atoms: C_16  and  C_17 
REMARK       I    between atoms: C_17  and  N_18 
REMARK    3  A    between atoms: N_18  and  C_19 
REMARK    4  A    between atoms: C_20  and  O_21 
ROOT
HETATM    1  C   UNL     1      -5.008   2.927 -31.986  1.00  0.00     0.202 C 
HETATM    2  N   UNL     1      -6.396   2.950 -32.467  1.00  0.00    -0.083 N 
HETATM    3  C   UNL     1      -6.777   3.507 -33.651  1.00  0.00     0.726 A 
HETATM    4  N   UNL     1      -8.056   3.303 -33.842  1.00  0.00    -0.046 NA
HETATM    5  C   UNL     1      -8.430   2.632 -32.699  1.00  0.00     0.162 A 
HETATM    6  C   UNL     1      -9.814   2.163 -32.486  1.00  0.00     0.096 C 
HETATM    7  N   UNL     1      -7.452   2.429 -31.802  1.00  0.00    -0.141 NA
HETATM    8  N   UNL     1      -5.864   4.170 -34.379  1.00  0.00    -0.192 N 
HETATM    9  C   UNL     1      -4.604   4.508 -33.885  1.00  0.00     0.037 C 
HETATM   10  C   UNL     1      -3.825   5.463 -34.762  1.00  0.00     0.070 C 
HETATM   11  C   UNL     1      -4.158   3.977 -32.709  1.00  0.00     0.062 C 
HETATM   12  H   UNL     1      -6.185   4.666 -35.206  1.00  0.00     0.184 HD
ENDROOT
BRANCH  11  13
HETATM   13  C   UNL     1      -2.868   4.453 -32.092  1.00  0.00     0.256 C 
HETATM   14  N   UNL     1      -2.853   5.728 -31.571  1.00  0.00    -0.321 N 
HETATM   15  H   UNL     1      -3.626   6.367 -31.711  1.00  0.00     0.169 HD
HETATM   16  O   UNL     1      -1.873   3.735 -32.136  1.00  0.00    -0.267 OA
BRANCH  14  17
HETATM   17  C   UNL     1      -1.770   6.339 -30.882  1.00  0.00     0.068 A 
HETATM   18  C   UNL     1      -2.031   6.885 -29.609  1.00  0.00     0.095 A 
HETATM   19  C   UNL     1      -0.992   7.462 -28.869  1.00  0.00     0.039 A 
HETATM   20  C   UNL     1       0.299   7.519 -29.396  1.00  0.00     0.003 A 
HETATM   21  C   UNL     1       0.558   6.995 -30.658  1.00  0.00     0.002 A 
HETATM   22  C   UNL     1      -0.471   6.406 -31.396  1.00  0.00     0.032 A 
BRANCH  18  23
HETATM   23  O   UNL     1      -3.335   6.807 -29.172  1.00  0.00    -0.354 OA
HETATM   24  C   UNL     1      -3.958   8.059 -28.894  1.00  0.00     0.210 C 
ENDBRANCH  18  23
ENDBRANCH  14  17
ENDBRANCH  11  13
BRANCH   1  25
HETATM   25  C   UNL     1      -4.484   1.491 -32.117  1.00  0.00    -0.028 A 
HETATM   26  C   UNL     1      -4.944   0.607 -33.109  1.00  0.00     0.010 A 
HETATM   27  C   UNL     1      -4.534  -0.729 -33.127  1.00  0.00     0.007 A 
HETATM   28  C   UNL     1      -3.662  -1.220 -32.151  1.00  0.00    -0.062 A 
HETATM   29  C   UNL     1      -3.310  -2.678 -32.119  1.00  0.00     0.048 C 
HETATM   30  C   UNL     1      -3.199  -0.351 -31.160  1.00  0.00     0.007 A 
HETATM   31  C   UNL     1      -3.596   0.989 -31.149  1.00  0.00     0.010 A 
ENDBRANCH   1  25
TORSDOF 4
ENDMDL
MODEL 8
REMARK VINA RESULT:      -8.2      2.977      6.957
REMARK  4 active torsions:
REMARK  status: ('A' for Active; 'I' for Inactive)
REMARK    1  A    between atoms: C_5  and  C_6 
REMARK    2  A    between atoms: C_16  and  C_17 
REMARK       I    between atoms: C_17  and  N_18 
REMARK    3  A    between atoms: N_18  and  C_19 
REMARK    4  A    between atoms: C_20  and  O_21 
ROOT
HETATM    1  C   UNL     1      -5.709   2.282 -31.940  1.00  0.00     0.202 C 
HETATM    2  N   UNL     1      -7.012   2.019 -32.566  1.00  0.00    -0.083 N 
HETATM    3  C   UNL     1      -7.382   2.516 -33.780  1.00  0.00     0.726 A 
HETATM    4  N   UNL     1      -8.559   2.048 -34.107  1.00  0.00    -0.046 NA
HETATM    5  C   UNL     1      -8.894   1.279 -33.014  1.00  0.00     0.162 A 
HETATM    6  C   UNL     1     -10.157   0.518 -32.952  1.00  0.00     0.096 C 
HETATM    7  N   UNL     1      -7.992   1.265 -32.020  1.00  0.00    -0.141 NA
HETATM    8  N   UNL     1      -6.564   3.381 -34.403  1.00  0.00    -0.192 N 
HETATM    9  C   UNL     1      -5.464   3.967 -33.775  1.00  0.00     0.037 C 
HETATM   10  C   UNL     1      -4.825   5.092 -34.559  1.00  0.00     0.070 C 
HETATM   11  C   UNL     1      -5.036   3.510 -32.562  1.00  0.00     0.062 C 
HETATM   12  H   UNL     1      -6.898   3.820 -35.256  1.00  0.00     0.184 HD
ENDROOT
BRANCH  11  13
HETATM   13  C   UNL     1      -3.951   4.234 -31.809  1.00  0.00     0.256 C 
HETATM   14  N   UNL     1      -2.666   4.120 -32.292  1.00  0.00    -0.321 N 
HETATM   15  H   UNL     1      -2.435   3.475 -33.038  1.00  0.00     0.169 HD
HETATM   16  O   UNL     1      -4.226   4.831 -30.771  1.00  0.00    -0.267 OA
BRANCH  14  17
HETATM   17  C   UNL     1      -1.516   4.780 -31.779  1.00  0.00     0.068 A 
HETATM   18  C   UNL     1      -0.980   5.840 -32.536  1.00  0.00     0.095 A 
HETATM   19  C   UNL     1       0.127   6.552 -32.057  1.00  0.00     0.039 A 
HETATM   20  C   UNL     1       0.718   6.200 -30.843  1.00  0.00     0.003 A 
HETATM   21  C   UNL     1       0.201   5.143 -30.100  1.00  0.00     0.002 A 
HETATM   22  C   UNL     1      -0.911   4.439 -30.564  1.00  0.00     0.032 A 
BRANCH  18  23
HETATM   23  O   UNL     1      -1.608   6.109 -33.731  1.00  0.00    -0.354 OA
HETATM   24  C   UNL     1      -2.077   7.447 -33.883  1.00  0.00     0.210 C 
ENDBRANCH  18  23
ENDBRANCH  14  17
ENDBRANCH  11  13
BRANCH   1  25
HETATM   25  C   UNL     1      -4.875   0.996 -32.023  1.00  0.00    -0.028 A 
HETATM   26  C   UNL     1      -5.143  -0.018 -32.961  1.00  0.00     0.010 A 
HETATM   27  C   UNL     1      -4.441  -1.226 -32.932  1.00  0.00     0.007 A 
HETATM   28  C   UNL     1      -3.460  -1.459 -31.963  1.00  0.00    -0.062 A 
HETATM   29  C   UNL     1      -2.787  -2.796 -31.878  1.00  0.00     0.048 C 
HETATM   30  C   UNL     1      -3.187  -0.459 -31.026  1.00  0.00     0.007 A 
HETATM   31  C   UNL     1      -3.877   0.756 -31.062  1.00  0.00     0.010 A 
ENDBRANCH   1  25
TORSDOF 4
ENDMDL
MODEL 9
REMARK VINA RESULT:      -8.1      2.080      3.327
REMARK  4 active torsions:
REMARK  status: ('A' for Active; 'I' for Inactive)
REMARK    1  A    between atoms: C_5  and  C_6 
REMARK    2  A    between atoms: C_16  and  C_17 
REMARK       I    between atoms: C_17  and  N_18 
REMARK    3  A    between atoms: N_18  and  C_19 
REMARK    4  A    between atoms: C_20  and  O_21 
ROOT
HETATM    1  C   UNL     1      -6.951   3.343 -30.664  1.00  0.00     0.202 C 
HETATM    2  N   UNL     1      -6.582   4.530 -29.880  1.00  0.00    -0.083 N 
HETATM    3  C   UNL     1      -5.350   5.111 -29.922  1.00  0.00     0.726 A 
HETATM    4  N   UNL     1      -5.347   6.190 -29.181  1.00  0.00    -0.046 NA
HETATM    5  C   UNL     1      -6.623   6.205 -28.662  1.00  0.00     0.162 A 
HETATM    6  C   UNL     1      -7.092   7.284 -27.770  1.00  0.00     0.096 C 
HETATM    7  N   UNL     1      -7.408   5.179 -29.028  1.00  0.00    -0.141 NA
HETATM    8  N   UNL     1      -4.377   4.519 -30.633  1.00  0.00    -0.192 N 
HETATM    9  C   UNL     1      -4.497   3.228 -31.147  1.00  0.00     0.037 C 
HETATM   10  C   UNL     1      -3.209   2.652 -31.696  1.00  0.00     0.070 C 
HETATM   11  C   UNL     1      -5.705   2.591 -31.144  1.00  0.00     0.062 C 
HETATM   12  H   UNL     1      -3.440   4.908 -30.572  1.00  0.00     0.184 HD
ENDROOT
BRANCH  11  13
HETATM   13  C   UNL     1      -5.812   1.146 -31.554  1.00  0.00     0.256 C 
HETATM   14  N   UNL     1      -5.750   0.867 -32.901  1.00  0.00    -0.321 N 
HETATM   15  H   UNL     1      -5.767   1.603 -33.596  1.00  0.00     0.169 HD
HETATM   16  O   UNL     1      -6.018   0.286 -30.700  1.00  0.00    -0.267 OA
BRANCH  14  17
HETATM   17  C   UNL     1      -5.755  -0.427 -33.491  1.00  0.00     0.068 A 
HETATM   18  C   UNL     1      -4.529  -1.118 -33.559  1.00  0.00     0.095 A 
HETATM   19  C   UNL     1      -4.484  -2.412 -34.092  1.00  0.00     0.039 A 
HETATM   20  C   UNL     1      -5.646  -3.013 -34.578  1.00  0.00     0.003 A 
HETATM   21  C   UNL     1      -6.856  -2.328 -34.526  1.00  0.00     0.002 A 
HETATM   22  C   UNL     1      -6.911  -1.043 -33.984  1.00  0.00     0.032 A 
BRANCH  18  23
HETATM   23  O   UNL     1      -3.428  -0.446 -33.078  1.00  0.00    -0.354 OA
HETATM   24  C   UNL     1      -2.792  -1.050 -31.954  1.00  0.00     0.210 C 
ENDBRANCH  18  23
ENDBRANCH  14  17
ENDBRANCH  11  13
BRANCH   1  25
HETATM   25  C   UNL     1      -7.889   3.794 -31.792  1.00  0.00    -0.028 A 
HETATM   26  C   UNL     1      -9.214   3.337 -31.900  1.00  0.00     0.010 A 
HETATM   27  C   UNL     1     -10.003   3.674 -33.003  1.00  0.00     0.007 A 
HETATM   28  C   UNL     1      -9.488   4.467 -34.033  1.00  0.00    -0.062 A 
HETATM   29  C   UNL     1     -10.307   4.737 -35.259  1.00  0.00     0.048 C 
HETATM   30  C   UNL     1      -8.171   4.926 -33.936  1.00  0.00     0.007 A 
HETATM   31  C   UNL     1      -7.386   4.603 -32.827  1.00  0.00     0.010 A 
ENDBRANCH   1  25
TORSDOF 4
ENDMDL
MODEL 10
REMARK VINA RESULT:      -8.1      3.592      5.106
REMARK  4 active torsions:
REMARK  status: ('A' for Active; 'I' for Inactive)
REMARK    1  A    between atoms: C_5  and  C_6 
REMARK    2  A    between atoms: C_16  and  C_17 
REMARK       I    between atoms: C_17  and  N_18 
REMARK    3  A    between atoms: N_18  and  C_19 
REMARK    4  A    between atoms: C_20  and  O_21 
ROOT
HETATM    1  C   UNL     1      -8.711   3.520 -33.641  1.00  0.00     0.202 C 
HETATM    2  N   UNL     1      -9.621   4.435 -34.343  1.00  0.00    -0.083 N 
HETATM    3  C   UNL     1     -10.954   4.202 -34.503  1.00  0.00     0.726 A 
HETATM    4  N   UNL     1     -11.513   5.226 -35.096  1.00  0.00    -0.046 NA
HETATM    5  C   UNL     1     -10.445   6.067 -35.319  1.00  0.00     0.162 A 
HETATM    6  C   UNL     1     -10.610   7.389 -35.955  1.00  0.00     0.096 C 
HETATM    7  N   UNL     1      -9.251   5.604 -34.912  1.00  0.00    -0.141 NA
HETATM    8  N   UNL     1     -11.460   3.026 -34.095  1.00  0.00    -0.192 N 
HETATM    9  C   UNL     1     -10.658   1.948 -33.721  1.00  0.00     0.037 C 
HETATM   10  C   UNL     1     -11.408   0.647 -33.537  1.00  0.00     0.070 C 
HETATM   11  C   UNL     1      -9.316   2.116 -33.535  1.00  0.00     0.062 C 
HETATM   12  H   UNL     1     -12.432   2.827 -34.313  1.00  0.00     0.184 HD
ENDROOT
BRANCH  11  13
HETATM   13  C   UNL     1      -8.422   0.930 -33.282  1.00  0.00     0.256 C 
HETATM   14  N   UNL     1      -7.552   0.573 -34.289  1.00  0.00    -0.321 N 
HETATM   15  H   UNL     1      -7.599   0.999 -35.206  1.00  0.00     0.169 HD
HETATM   16  O   UNL     1      -8.542   0.289 -32.241  1.00  0.00    -0.267 OA
BRANCH  14  17
HETATM   17  C   UNL     1      -6.577  -0.459 -34.226  1.00  0.00     0.068 A 
HETATM   18  C   UNL     1      -5.361  -0.170 -33.576  1.00  0.00     0.095 A 
HETATM   19  C   UNL     1      -4.381  -1.163 -33.449  1.00  0.00     0.039 A 
HETATM   20  C   UNL     1      -4.595  -2.434 -33.985  1.00  0.00     0.003 A 
HETATM   21  C   UNL     1      -5.789  -2.719 -34.641  1.00  0.00     0.002 A 
HETATM   22  C   UNL     1      -6.775  -1.738 -34.759  1.00  0.00     0.032 A 
BRANCH  18  23
HETATM   23  O   UNL     1      -5.221   1.113 -33.095  1.00  0.00    -0.354 OA
HETATM   24  C   UNL     1      -4.025   1.358 -32.358  1.00  0.00     0.210 C 
ENDBRANCH  18  23
ENDBRANCH  14  17
ENDBRANCH  11  13
BRANCH   1  25
HETATM   25  C   UNL     1      -8.350   4.155 -32.290  1.00  0.00    -0.028 A 
HETATM   26  C   UNL     1      -7.020   4.318 -31.865  1.00  0.00     0.010 A 
HETATM   27  C   UNL     1      -6.729   4.790 -30.582  1.00  0.00     0.007 A 
HETATM   28  C   UNL     1      -7.757   5.102 -29.687  1.00  0.00    -0.062 A 
HETATM   29  C   UNL     1      -7.434   5.509 -28.280  1.00  0.00     0.048 C 
HETATM   30  C   UNL     1      -9.082   4.942 -30.099  1.00  0.00     0.007 A 
HETATM   31  C   UNL     1      -9.376   4.486 -31.386  1.00  0.00     0.010 A 
ENDBRANCH   1  25
TORSDOF 4
ENDMDL
