MODEL 1
REMARK VINA RESULT:      -8.6      0.000      0.000
REMARK  5 active torsions:
REMARK  status: ('A' for Active; 'I' for Inactive)
REMARK    1  A    between atoms: O_2  and  C_3 
REMARK    2  A    between atoms: C_7  and  C_8 
REMARK    3  A    between atoms: C_8  and  N_9 
REMARK       I    between atoms: N_9  and  C_10 
REMARK       I    between atoms: C_10  and  N_12 
REMARK    4  A    between atoms: N_12  and  C_13 
REMARK    5  A    between atoms: C_16  and  C_19 
ROOT
HETATM    1  N   UNL     1      -3.605   4.962 -31.743  1.00  0.00    -0.339 N 
HETATM    2  C   UNL     1      -3.510   3.814 -32.505  1.00  0.00     0.320 C 
HETATM    3  O   UNL     1      -2.781   3.745 -33.485  1.00  0.00    -0.247 OA
HETATM    4  N   UNL     1      -4.296   2.808 -31.989  1.00  0.00    -0.309 N 
HETATM    5  H   UNL     1      -4.488   5.131 -31.288  1.00  0.00     0.164 HD
HETATM    6  H   UNL     1      -4.741   3.012 -31.107  1.00  0.00     0.170 HD
ENDROOT
BRANCH   4   7
HETATM    7  C   UNL     1      -4.434   1.493 -32.477  1.00  0.00     0.036 A 
HETATM    8  C   UNL     1      -3.463   0.503 -32.331  1.00  0.00     0.030 A 
HETATM    9  C   UNL     1      -3.684  -0.791 -32.821  1.00  0.00     0.014 A 
HETATM   10  C   UNL     1      -4.876  -1.129 -33.476  1.00  0.00    -0.026 A 
HETATM   11  C   UNL     1      -5.840  -0.124 -33.633  1.00  0.00     0.014 A 
HETATM   12  C   UNL     1      -5.624   1.169 -33.139  1.00  0.00     0.030 A 
BRANCH  10  13
HETATM   13  C   UNL     1      -5.105  -2.495 -33.974  1.00  0.00    -0.023 A 
HETATM   14  C   UNL     1      -6.298  -2.837 -34.624  1.00  0.00     0.031 A 
HETATM   15  C   UNL     1      -6.474  -4.135 -35.073  1.00  0.00     0.117 A 
HETATM   16  N   UNL     1      -5.556  -5.113 -34.922  1.00  0.00    -0.273 NA
HETATM   17  C   UNL     1      -4.414  -4.772 -34.292  1.00  0.00     0.117 A 
HETATM   18  C   UNL     1      -4.145  -3.500 -33.811  1.00  0.00     0.031 A 
ENDBRANCH  10  13
ENDBRANCH   4   7
BRANCH   1  19
HETATM   19  C   UNL     1      -2.872   6.140 -32.157  1.00  0.00     0.163 C 
BRANCH  19  20
HETATM   20  C   UNL     1      -1.678   6.407 -31.279  1.00  0.00    -0.038 A 
HETATM   21  C   UNL     1      -0.386   6.476 -31.817  1.00  0.00     0.009 A 
HETATM   22  C   UNL     1       0.703   6.795 -31.006  1.00  0.00     0.003 A 
HETATM   23  C   UNL     1       0.513   7.074 -29.652  1.00  0.00     0.037 A 
HETATM   24  C   UNL     1      -0.769   7.035 -29.104  1.00  0.00     0.068 A 
HETATM   25  C   UNL     1      -1.854   6.689 -29.916  1.00  0.00     0.045 A 
BRANCH  24  26
HETATM   26  O   UNL     1      -1.090   7.306 -27.802  1.00  0.00    -0.356 OA
HETATM   27  C   UNL     1      -0.566   6.412 -26.826  1.00  0.00     0.210 C 
ENDBRANCH  24  26
ENDBRANCH  19  20
ENDBRANCH   1  19
TORSDOF 5
ENDMDL
MODEL 2
REMARK VINA RESULT:      -8.2      2.283      2.856
REMARK  5 active torsions:
REMARK  status: ('A' for Active; 'I' for Inactive)
REMARK    1  A    between atoms: O_2  and  C_3 
REMARK    2  A    between atoms: C_7  and  C_8 
REMARK    3  A    between atoms: C_8  and  N_9 
REMARK       I    between atoms: N_9  and  C_10 
REMARK       I    between atoms: C_10  and  N_12 
REMARK    4  A    between atoms: N_12  and  C_13 
REMARK    5  A    between atoms: C_16  and  C_19 
ROOT
HETATM    1  N   UNL     1      -4.129   4.347 -30.592  1.00  0.00    -0.339 N 
HETATM    2  C   UNL     1      -4.621   3.404 -31.473  1.00  0.00     0.320 C 
HETATM    3  O   UNL     1      -5.401   3.698 -32.369  1.00  0.00    -0.247 OA
HETATM    4  N   UNL     1      -4.091   2.159 -31.215  1.00  0.00    -0.309 N 
HETATM    5  H   UNL     1      -3.904   4.025 -29.664  1.00  0.00     0.164 HD
HETATM    6  H   UNL     1      -3.374   2.129 -30.508  1.00  0.00     0.170 HD
ENDROOT
BRANCH   4   7
HETATM    7  C   UNL     1      -4.335   0.962 -31.919  1.00  0.00     0.036 A 
HETATM    8  C   UNL     1      -3.414   0.363 -32.778  1.00  0.00     0.030 A 
HETATM    9  C   UNL     1      -3.719  -0.843 -33.424  1.00  0.00     0.014 A 
HETATM   10  C   UNL     1      -4.955  -1.478 -33.235  1.00  0.00    -0.026 A 
HETATM   11  C   UNL     1      -5.880  -0.860 -32.383  1.00  0.00     0.014 A 
HETATM   12  C   UNL     1      -5.575   0.342 -31.732  1.00  0.00     0.030 A 
BRANCH  10  13
HETATM   13  C   UNL     1      -5.260  -2.752 -33.905  1.00  0.00    -0.023 A 
HETATM   14  C   UNL     1      -6.472  -2.939 -34.583  1.00  0.00     0.031 A 
HETATM   15  C   UNL     1      -6.721  -4.156 -35.197  1.00  0.00     0.117 A 
HETATM   16  N   UNL     1      -5.859  -5.194 -35.183  1.00  0.00    -0.273 NA
HETATM   17  C   UNL     1      -4.698  -5.002 -34.524  1.00  0.00     0.117 A 
HETATM   18  C   UNL     1      -4.358  -3.821 -33.883  1.00  0.00     0.031 A 
ENDBRANCH  10  13
ENDBRANCH   4   7
BRANCH   1  19
HETATM   19  C   UNL     1      -4.605   5.711 -30.689  1.00  0.00     0.163 C 
BRANCH  19  20
HETATM   20  C   UNL     1      -3.601   6.620 -31.348  1.00  0.00    -0.038 A 
HETATM   21  C   UNL     1      -3.135   7.772 -30.701  1.00  0.00     0.009 A 
HETATM   22  C   UNL     1      -2.152   8.567 -31.291  1.00  0.00     0.003 A 
HETATM   23  C   UNL     1      -1.605   8.210 -32.525  1.00  0.00     0.037 A 
HETATM   24  C   UNL     1      -2.038   7.053 -33.171  1.00  0.00     0.068 A 
HETATM   25  C   UNL     1      -3.042   6.274 -32.588  1.00  0.00     0.045 A 
BRANCH  24  26
HETATM   26  O   UNL     1      -1.570   6.584 -34.368  1.00  0.00    -0.356 OA
HETATM   27  C   UNL     1      -2.142   5.367 -34.834  1.00  0.00     0.210 C 
ENDBRANCH  24  26
ENDBRANCH  19  20
ENDBRANCH   1  19
TORSDOF 5
ENDMDL
MODEL 3
REMARK VINA RESULT:      -8.1      1.422      1.795
REMARK  5 active torsions:
REMARK  status: ('A' for Active; 'I' for Inactive)
REMARK    1  A    between atoms: O_2  and  C_3 
REMARK    2  A    between atoms: C_7  and  C_8 
REMARK    3  A    between atoms: C_8  and  N_9 
REMARK       I    between atoms: N_9  and  C_10 
REMARK       I    between atoms: C_10  and  N_12 
REMARK    4  A    between atoms: N_12  and  C_13 
REMARK    5  A    between atoms: C_16  and  C_19 
ROOT
HETATM    1  N   UNL     1      -5.115   4.939 -31.712  1.00  0.00    -0.339 N 
HETATM    2  C   UNL     1      -4.737   3.615 -31.819  1.00  0.00     0.320 C 
HETATM    3  O   UNL     1      -3.829   3.143 -31.148  1.00  0.00    -0.247 OA
HETATM    4  N   UNL     1      -5.529   2.945 -32.725  1.00  0.00    -0.309 N 
HETATM    5  H   UNL     1      -5.491   5.371 -32.541  1.00  0.00     0.164 HD
HETATM    6  H   UNL     1      -6.305   3.470 -33.098  1.00  0.00     0.170 HD
ENDROOT
BRANCH   4   7
HETATM    7  C   UNL     1      -5.462   1.581 -33.076  1.00  0.00     0.036 A 
HETATM    8  C   UNL     1      -4.518   0.691 -32.566  1.00  0.00     0.030 A 
HETATM    9  C   UNL     1      -4.531  -0.658 -32.944  1.00  0.00     0.014 A 
HETATM   10  C   UNL     1      -5.483  -1.153 -33.847  1.00  0.00    -0.026 A 
HETATM   11  C   UNL     1      -6.418  -0.248 -34.367  1.00  0.00     0.014 A 
HETATM   12  C   UNL     1      -6.410   1.100 -33.987  1.00  0.00     0.030 A 
BRANCH  10  13
HETATM   13  C   UNL     1      -5.498  -2.574 -34.226  1.00  0.00    -0.023 A 
HETATM   14  C   UNL     1      -6.619  -3.146 -34.843  1.00  0.00     0.031 A 
HETATM   15  C   UNL     1      -6.592  -4.489 -35.180  1.00  0.00     0.117 A 
HETATM   16  N   UNL     1      -5.540  -5.301 -34.947  1.00  0.00    -0.273 NA
HETATM   17  C   UNL     1      -4.469  -4.740 -34.350  1.00  0.00     0.117 A 
HETATM   18  C   UNL     1      -4.400  -3.406 -33.980  1.00  0.00     0.031 A 
ENDBRANCH  10  13
ENDBRANCH   4   7
BRANCH   1  19
HETATM   19  C   UNL     1      -4.368   5.811 -30.829  1.00  0.00     0.163 C 
BRANCH  19  20
HETATM   20  C   UNL     1      -3.063   6.255 -31.436  1.00  0.00    -0.038 A 
HETATM   21  C   UNL     1      -3.025   6.885 -32.688  1.00  0.00     0.009 A 
HETATM   22  C   UNL     1      -1.819   7.356 -33.207  1.00  0.00     0.003 A 
HETATM   23  C   UNL     1      -0.639   7.227 -32.473  1.00  0.00     0.037 A 
HETATM   24  C   UNL     1      -0.661   6.626 -31.215  1.00  0.00     0.068 A 
HETATM   25  C   UNL     1      -1.868   6.132 -30.710  1.00  0.00     0.045 A 
BRANCH  24  26
HETATM   26  O   UNL     1       0.418   6.457 -30.390  1.00  0.00    -0.356 OA
HETATM   27  C   UNL     1       0.453   5.248 -29.640  1.00  0.00     0.210 C 
ENDBRANCH  24  26
ENDBRANCH  19  20
ENDBRANCH   1  19
TORSDOF 5
ENDMDL
MODEL 4
REMARK VINA RESULT:      -7.8      7.020     10.709
REMARK  5 active torsions:
REMARK  status: ('A' for Active; 'I' for Inactive)
REMARK    1  A    between atoms: O_2  and  C_3 
REMARK    2  A    between atoms: C_7  and  C_8 
REMARK    3  A    between atoms: C_8  and  N_9 
REMARK       I    between atoms: N_9  and  C_10 
REMARK       I    between atoms: C_10  and  N_12 
REMARK    4  A    between atoms: N_12  and  C_13 
REMARK    5  A    between atoms: C_16  and  C_19 
ROOT
HETATM    1  N   UNL     1      -7.799   0.297 -34.209  1.00  0.00    -0.339 N 
HETATM    2  C   UNL     1      -8.822   0.764 -33.409  1.00  0.00     0.320 C 
HETATM    3  O   UNL     1      -8.691   0.895 -32.199  1.00  0.00    -0.247 OA
HETATM    4  N   UNL     1      -9.935   1.076 -34.157  1.00  0.00    -0.309 N 
HETATM    5  H   UNL     1      -8.068  -0.213 -35.035  1.00  0.00     0.164 HD
HETATM    6  H   UNL     1      -9.820   1.012 -35.156  1.00  0.00     0.170 HD
ENDROOT
BRANCH   4   7
HETATM    7  C   UNL     1     -11.158   1.605 -33.694  1.00  0.00     0.036 A 
HETATM    8  C   UNL     1     -11.292   2.868 -33.120  1.00  0.00     0.030 A 
HETATM    9  C   UNL     1     -12.547   3.335 -32.707  1.00  0.00     0.014 A 
HETATM   10  C   UNL     1     -13.700   2.550 -32.850  1.00  0.00    -0.026 A 
HETATM   11  C   UNL     1     -13.553   1.275 -33.413  1.00  0.00     0.014 A 
HETATM   12  C   UNL     1     -12.300   0.808 -33.831  1.00  0.00     0.030 A 
BRANCH  10  13
HETATM   13  C   UNL     1     -15.016   3.055 -32.427  1.00  0.00    -0.023 A 
HETATM   14  C   UNL     1     -15.198   4.401 -32.085  1.00  0.00     0.031 A 
HETATM   15  C   UNL     1     -16.453   4.833 -31.689  1.00  0.00     0.117 A 
HETATM   16  N   UNL     1     -17.533   4.027 -31.607  1.00  0.00    -0.273 NA
HETATM   17  C   UNL     1     -17.344   2.733 -31.936  1.00  0.00     0.117 A 
HETATM   18  C   UNL     1     -16.128   2.209 -32.346  1.00  0.00     0.031 A 
ENDBRANCH  10  13
ENDBRANCH   4   7
BRANCH   1  19
HETATM   19  C   UNL     1      -6.558  -0.117 -33.589  1.00  0.00     0.163 C 
BRANCH  19  20
HETATM   20  C   UNL     1      -6.213  -1.550 -33.900  1.00  0.00    -0.038 A 
HETATM   21  C   UNL     1      -7.084  -2.358 -34.642  1.00  0.00     0.009 A 
HETATM   22  C   UNL     1      -6.722  -3.661 -34.985  1.00  0.00     0.003 A 
HETATM   23  C   UNL     1      -5.475  -4.165 -34.613  1.00  0.00     0.037 A 
HETATM   24  C   UNL     1      -4.585  -3.367 -33.896  1.00  0.00     0.068 A 
HETATM   25  C   UNL     1      -4.963  -2.070 -33.532  1.00  0.00     0.045 A 
BRANCH  24  26
HETATM   26  O   UNL     1      -3.331  -3.734 -33.490  1.00  0.00    -0.356 OA
HETATM   27  C   UNL     1      -3.093  -3.714 -32.088  1.00  0.00     0.210 C 
ENDBRANCH  24  26
ENDBRANCH  19  20
ENDBRANCH   1  19
TORSDOF 5
ENDMDL
MODEL 5
REMARK VINA RESULT:      -7.6      6.048      7.944
REMARK  5 active torsions:
REMARK  status: ('A' for Active; 'I' for Inactive)
REMARK    1  A    between atoms: O_2  and  C_3 
REMARK    2  A    between atoms: C_7  and  C_8 
REMARK    3  A    between atoms: C_8  and  N_9 
REMARK       I    between atoms: N_9  and  C_10 
REMARK       I    between atoms: C_10  and  N_12 
REMARK    4  A    between atoms: N_12  and  C_13 
REMARK    5  A    between atoms: C_16  and  C_19 
ROOT
HETATM    1  N   UNL     1      -9.395   4.345 -33.410  1.00  0.00    -0.339 N 
HETATM    2  C   UNL     1      -9.211   2.977 -33.401  1.00  0.00     0.320 C 
HETATM    3  O   UNL     1     -10.125   2.201 -33.154  1.00  0.00    -0.247 OA
HETATM    4  N   UNL     1      -7.916   2.647 -33.733  1.00  0.00    -0.309 N 
HETATM    5  H   UNL     1      -8.600   4.910 -33.156  1.00  0.00     0.164 HD
HETATM    6  H   UNL     1      -7.330   3.417 -34.018  1.00  0.00     0.170 HD
ENDROOT
BRANCH   4   7
HETATM    7  C   UNL     1      -7.364   1.355 -33.854  1.00  0.00     0.036 A 
HETATM    8  C   UNL     1      -6.621   0.729 -32.854  1.00  0.00     0.030 A 
HETATM    9  C   UNL     1      -6.127  -0.569 -33.039  1.00  0.00     0.014 A 
HETATM   10  C   UNL     1      -6.354  -1.273 -34.230  1.00  0.00    -0.026 A 
HETATM   11  C   UNL     1      -7.089  -0.630 -35.236  1.00  0.00     0.014 A 
HETATM   12  C   UNL     1      -7.588   0.666 -35.051  1.00  0.00     0.030 A 
BRANCH  10  13
HETATM   13  C   UNL     1      -5.845  -2.641 -34.409  1.00  0.00    -0.023 A 
HETATM   14  C   UNL     1      -6.646  -3.644 -34.970  1.00  0.00     0.031 A 
HETATM   15  C   UNL     1      -6.127  -4.920 -35.116  1.00  0.00     0.117 A 
HETATM   16  N   UNL     1      -4.878  -5.270 -34.745  1.00  0.00    -0.273 NA
HETATM   17  C   UNL     1      -4.117  -4.297 -34.204  1.00  0.00     0.117 A 
HETATM   18  C   UNL     1      -4.547  -2.991 -34.020  1.00  0.00     0.031 A 
ENDBRANCH  10  13
ENDBRANCH   4   7
BRANCH   1  19
HETATM   19  C   UNL     1     -10.691   4.879 -33.048  1.00  0.00     0.163 C 
BRANCH  19  20
HETATM   20  C   UNL     1     -11.338   5.627 -34.185  1.00  0.00    -0.038 A 
HETATM   21  C   UNL     1     -12.609   5.270 -34.654  1.00  0.00     0.009 A 
HETATM   22  C   UNL     1     -13.228   6.015 -35.659  1.00  0.00     0.003 A 
HETATM   23  C   UNL     1     -12.596   7.140 -36.191  1.00  0.00     0.037 A 
HETATM   24  C   UNL     1     -11.342   7.525 -35.718  1.00  0.00     0.068 A 
HETATM   25  C   UNL     1     -10.714   6.760 -34.729  1.00  0.00     0.045 A 
BRANCH  24  26
HETATM   26  O   UNL     1     -10.628   8.614 -36.140  1.00  0.00    -0.356 OA
HETATM   27  C   UNL     1     -10.271   8.635 -37.517  1.00  0.00     0.210 C 
ENDBRANCH  24  26
ENDBRANCH  19  20
ENDBRANCH   1  19
TORSDOF 5
ENDMDL
MODEL 6
REMARK VINA RESULT:      -7.6      4.612      5.779
REMARK  5 active torsions:
REMARK  status: ('A' for Active; 'I' for Inactive)
REMARK    1  A    between atoms: O_2  and  C_3 
REMARK    2  A    between atoms: C_7  and  C_8 
REMARK    3  A    between atoms: C_8  and  N_9 
REMARK       I    between atoms: N_9  and  C_10 
REMARK       I    between atoms: C_10  and  N_12 
REMARK    4  A    between atoms: N_12  and  C_13 
REMARK    5  A    between atoms: C_16  and  C_19 
ROOT
HETATM    1  N   UNL     1      -4.188   2.405 -32.632  1.00  0.00    -0.339 N 
HETATM    2  C   UNL     1      -5.542   2.426 -32.363  1.00  0.00     0.320 C 
HETATM    3  O   UNL     1      -6.017   3.126 -31.479  1.00  0.00    -0.247 OA
HETATM    4  N   UNL     1      -6.233   1.608 -33.229  1.00  0.00    -0.309 N 
HETATM    5  H   UNL     1      -3.812   1.542 -32.993  1.00  0.00     0.164 HD
HETATM    6  H   UNL     1      -5.687   1.197 -33.969  1.00  0.00     0.170 HD
ENDROOT
BRANCH   4   7
HETATM    7  C   UNL     1      -7.626   1.397 -33.279  1.00  0.00     0.036 A 
HETATM    8  C   UNL     1      -8.292   0.418 -32.542  1.00  0.00     0.030 A 
HETATM    9  C   UNL     1      -9.685   0.285 -32.626  1.00  0.00     0.014 A 
HETATM   10  C   UNL     1     -10.448   1.121 -33.453  1.00  0.00    -0.026 A 
HETATM   11  C   UNL     1      -9.769   2.091 -34.203  1.00  0.00     0.014 A 
HETATM   12  C   UNL     1      -8.378   2.229 -34.117  1.00  0.00     0.030 A 
BRANCH  10  13
HETATM   13  C   UNL     1     -11.911   0.984 -33.523  1.00  0.00    -0.023 A 
HETATM   14  C   UNL     1     -12.743   2.111 -33.536  1.00  0.00     0.031 A 
HETATM   15  C   UNL     1     -14.116   1.937 -33.598  1.00  0.00     0.117 A 
HETATM   16  N   UNL     1     -14.718   0.730 -33.646  1.00  0.00    -0.273 NA
HETATM   17  C   UNL     1     -13.907  -0.347 -33.629  1.00  0.00     0.117 A 
HETATM   18  C   UNL     1     -12.524  -0.273 -33.572  1.00  0.00     0.031 A 
ENDBRANCH  10  13
ENDBRANCH   4   7
BRANCH   1  19
HETATM   19  C   UNL     1      -3.296   3.180 -31.796  1.00  0.00     0.163 C 
BRANCH  19  20
HETATM   20  C   UNL     1      -2.515   4.198 -32.585  1.00  0.00    -0.038 A 
HETATM   21  C   UNL     1      -2.759   4.397 -33.950  1.00  0.00     0.009 A 
HETATM   22  C   UNL     1      -2.080   5.392 -34.654  1.00  0.00     0.003 A 
HETATM   23  C   UNL     1      -1.165   6.217 -33.998  1.00  0.00     0.037 A 
HETATM   24  C   UNL     1      -0.927   6.051 -32.634  1.00  0.00     0.068 A 
HETATM   25  C   UNL     1      -1.592   5.035 -31.939  1.00  0.00     0.045 A 
BRANCH  24  26
HETATM   26  O   UNL     1      -0.074   6.803 -31.874  1.00  0.00    -0.356 OA
HETATM   27  C   UNL     1      -0.123   6.582 -30.469  1.00  0.00     0.210 C 
ENDBRANCH  24  26
ENDBRANCH  19  20
ENDBRANCH   1  19
TORSDOF 5
ENDMDL
MODEL 7
REMARK VINA RESULT:      -7.5      1.606      2.269
REMARK  5 active torsions:
REMARK  status: ('A' for Active; 'I' for Inactive)
REMARK    1  A    between atoms: O_2  and  C_3 
REMARK    2  A    between atoms: C_7  and  C_8 
REMARK    3  A    between atoms: C_8  and  N_9 
REMARK       I    between atoms: N_9  and  C_10 
REMARK       I    between atoms: C_10  and  N_12 
REMARK    4  A    between atoms: N_12  and  C_13 
REMARK    5  A    between atoms: C_16  and  C_19 
ROOT
HETATM    1  N   UNL     1      -5.038   4.824 -31.468  1.00  0.00    -0.339 N 
HETATM    2  C   UNL     1      -5.134   3.447 -31.435  1.00  0.00     0.320 C 
HETATM    3  O   UNL     1      -5.224   2.828 -30.383  1.00  0.00    -0.247 OA
HETATM    4  N   UNL     1      -5.149   2.919 -32.707  1.00  0.00    -0.309 N 
HETATM    5  H   UNL     1      -4.522   5.223 -32.236  1.00  0.00     0.164 HD
HETATM    6  H   UNL     1      -5.182   3.592 -33.457  1.00  0.00     0.170 HD
ENDROOT
BRANCH   4   7
HETATM    7  C   UNL     1      -5.265   1.562 -33.070  1.00  0.00     0.036 A 
HETATM    8  C   UNL     1      -6.356   1.031 -33.758  1.00  0.00     0.030 A 
HETATM    9  C   UNL     1      -6.388  -0.326 -34.107  1.00  0.00     0.014 A 
HETATM   10  C   UNL     1      -5.335  -1.190 -33.772  1.00  0.00    -0.026 A 
HETATM   11  C   UNL     1      -4.250  -0.651 -33.067  1.00  0.00     0.014 A 
HETATM   12  C   UNL     1      -4.214   0.706 -32.722  1.00  0.00     0.030 A 
BRANCH  10  13
HETATM   13  C   UNL     1      -5.370  -2.610 -34.156  1.00  0.00    -0.023 A 
HETATM   14  C   UNL     1      -4.275  -3.450 -33.919  1.00  0.00     0.031 A 
HETATM   15  C   UNL     1      -4.349  -4.780 -34.301  1.00  0.00     0.117 A 
HETATM   16  N   UNL     1      -5.426  -5.330 -34.900  1.00  0.00    -0.273 NA
HETATM   17  C   UNL     1      -6.472  -4.510 -35.125  1.00  0.00     0.117 A 
HETATM   18  C   UNL     1      -6.493  -3.168 -34.777  1.00  0.00     0.031 A 
ENDBRANCH  10  13
ENDBRANCH   4   7
BRANCH   1  19
HETATM   19  C   UNL     1      -4.972   5.551 -30.218  1.00  0.00     0.163 C 
BRANCH  19  20
HETATM   20  C   UNL     1      -3.715   6.373 -30.101  1.00  0.00    -0.038 A 
HETATM   21  C   UNL     1      -2.797   6.444 -31.157  1.00  0.00     0.009 A 
HETATM   22  C   UNL     1      -1.673   7.265 -31.065  1.00  0.00     0.003 A 
HETATM   23  C   UNL     1      -1.464   8.045 -29.926  1.00  0.00     0.037 A 
HETATM   24  C   UNL     1      -2.380   8.007 -28.876  1.00  0.00     0.068 A 
HETATM   25  C   UNL     1      -3.491   7.162 -28.963  1.00  0.00     0.045 A 
BRANCH  24  26
HETATM   26  O   UNL     1      -2.301   8.735 -27.720  1.00  0.00    -0.356 OA
HETATM   27  C   UNL     1      -1.496   9.907 -27.769  1.00  0.00     0.210 C 
ENDBRANCH  24  26
ENDBRANCH  19  20
ENDBRANCH   1  19
TORSDOF 5
ENDMDL
MODEL 8
REMARK VINA RESULT:      -7.4      3.817     11.591
REMARK  5 active torsions:
REMARK  status: ('A' for Active; 'I' for Inactive)
REMARK    1  A    between atoms: O_2  and  C_3 
REMARK    2  A    between atoms: C_7  and  C_8 
REMARK    3  A    between atoms: C_8  and  N_9 
REMARK       I    between atoms: N_9  and  C_10 
REMARK       I    between atoms: C_10  and  N_12 
REMARK    4  A    between atoms: N_12  and  C_13 
REMARK    5  A    between atoms: C_16  and  C_19 
ROOT
HETATM    1  N   UNL     1      -1.716   4.682 -30.895  1.00  0.00    -0.339 N 
HETATM    2  C   UNL     1      -1.438   5.821 -30.165  1.00  0.00     0.320 C 
HETATM    3  O   UNL     1      -2.164   6.806 -30.198  1.00  0.00    -0.247 OA
HETATM    4  N   UNL     1      -0.298   5.660 -29.409  1.00  0.00    -0.309 N 
HETATM    5  H   UNL     1      -0.926   4.136 -31.199  1.00  0.00     0.164 HD
HETATM    6  H   UNL     1       0.106   4.737 -29.421  1.00  0.00     0.170 HD
ENDROOT
BRANCH   4   7
HETATM    7  C   UNL     1       0.279   6.591 -28.521  1.00  0.00     0.036 A 
HETATM    8  C   UNL     1       0.965   7.734 -28.929  1.00  0.00     0.030 A 
HETATM    9  C   UNL     1       1.489   8.627 -27.986  1.00  0.00     0.014 A 
HETATM   10  C   UNL     1       1.350   8.399 -26.609  1.00  0.00    -0.026 A 
HETATM   11  C   UNL     1       0.673   7.239 -26.208  1.00  0.00     0.014 A 
HETATM   12  C   UNL     1       0.143   6.347 -27.150  1.00  0.00     0.030 A 
BRANCH  10  13
HETATM   13  C   UNL     1       1.890   9.350 -25.626  1.00  0.00    -0.023 A 
HETATM   14  C   UNL     1       1.375  10.648 -25.516  1.00  0.00     0.031 A 
HETATM   15  C   UNL     1       1.916  11.512 -24.579  1.00  0.00     0.117 A 
HETATM   16  N   UNL     1       2.928  11.182 -23.749  1.00  0.00    -0.273 NA
HETATM   17  C   UNL     1       3.418   9.931 -23.867  1.00  0.00     0.117 A 
HETATM   18  C   UNL     1       2.940   8.995 -24.771  1.00  0.00     0.031 A 
ENDBRANCH  10  13
ENDBRANCH   4   7
BRANCH   1  19
HETATM   19  C   UNL     1      -2.863   4.680 -31.779  1.00  0.00     0.163 C 
BRANCH  19  20
HETATM   20  C   UNL     1      -3.707   3.443 -31.616  1.00  0.00    -0.038 A 
HETATM   21  C   UNL     1      -4.938   3.490 -30.947  1.00  0.00     0.009 A 
HETATM   22  C   UNL     1      -5.743   2.354 -30.865  1.00  0.00     0.003 A 
HETATM   23  C   UNL     1      -5.342   1.162 -31.471  1.00  0.00     0.037 A 
HETATM   24  C   UNL     1      -4.133   1.104 -32.163  1.00  0.00     0.068 A 
HETATM   25  C   UNL     1      -3.317   2.238 -32.220  1.00  0.00     0.045 A 
BRANCH  24  26
HETATM   26  O   UNL     1      -3.638   0.007 -32.815  1.00  0.00    -0.356 OA
HETATM   27  C   UNL     1      -2.938  -0.937 -32.013  1.00  0.00     0.210 C 
ENDBRANCH  24  26
ENDBRANCH  19  20
ENDBRANCH   1  19
TORSDOF 5
ENDMDL
MODEL 9
REMARK VINA RESULT:      -7.4      2.668     10.429
REMARK  5 active torsions:
REMARK  status: ('A' for Active; 'I' for Inactive)
REMARK    1  A    between atoms: O_2  and  C_3 
REMARK    2  A    between atoms: C_7  and  C_8 
REMARK    3  A    between atoms: C_8  and  N_9 
REMARK       I    between atoms: N_9  and  C_10 
REMARK       I    between atoms: C_10  and  N_12 
REMARK    4  A    between atoms: N_12  and  C_13 
REMARK    5  A    between atoms: C_16  and  C_19 
ROOT
HETATM    1  N   UNL     1      -5.148   2.837 -32.821  1.00  0.00    -0.339 N 
HETATM    2  C   UNL     1      -4.529   3.416 -31.732  1.00  0.00     0.320 C 
HETATM    3  O   UNL     1      -4.712   3.013 -30.591  1.00  0.00    -0.247 OA
HETATM    4  N   UNL     1      -3.690   4.437 -32.121  1.00  0.00    -0.309 N 
HETATM    5  H   UNL     1      -5.341   3.441 -33.605  1.00  0.00     0.164 HD
HETATM    6  H   UNL     1      -3.578   4.553 -33.116  1.00  0.00     0.170 HD
ENDROOT
BRANCH   4   7
HETATM    7  C   UNL     1      -2.873   5.236 -31.296  1.00  0.00     0.036 A 
HETATM    8  C   UNL     1      -1.492   5.081 -31.184  1.00  0.00     0.030 A 
HETATM    9  C   UNL     1      -0.742   5.932 -30.361  1.00  0.00     0.014 A 
HETATM   10  C   UNL     1      -1.352   6.956 -29.623  1.00  0.00    -0.026 A 
HETATM   11  C   UNL     1      -2.743   7.095 -29.729  1.00  0.00     0.014 A 
HETATM   12  C   UNL     1      -3.493   6.248 -30.555  1.00  0.00     0.030 A 
BRANCH  10  13
HETATM   13  C   UNL     1      -0.555   7.855 -28.774  1.00  0.00    -0.023 A 
HETATM   14  C   UNL     1       0.818   7.645 -28.587  1.00  0.00     0.031 A 
HETATM   15  C   UNL     1       1.530   8.513 -27.776  1.00  0.00     0.117 A 
HETATM   16  N   UNL     1       0.978   9.567 -27.139  1.00  0.00    -0.273 NA
HETATM   17  C   UNL     1      -0.344   9.757 -27.324  1.00  0.00     0.117 A 
HETATM   18  C   UNL     1      -1.138   8.945 -28.119  1.00  0.00     0.031 A 
ENDBRANCH  10  13
ENDBRANCH   4   7
BRANCH   1  19
HETATM   19  C   UNL     1      -6.097   1.766 -32.600  1.00  0.00     0.163 C 
BRANCH  19  20
HETATM   20  C   UNL     1      -5.585   0.438 -33.094  1.00  0.00    -0.038 A 
HETATM   21  C   UNL     1      -4.250   0.060 -32.898  1.00  0.00     0.009 A 
HETATM   22  C   UNL     1      -3.805  -1.201 -33.296  1.00  0.00     0.003 A 
HETATM   23  C   UNL     1      -4.694  -2.110 -33.874  1.00  0.00     0.037 A 
HETATM   24  C   UNL     1      -6.031  -1.760 -34.054  1.00  0.00     0.068 A 
HETATM   25  C   UNL     1      -6.466  -0.485 -33.677  1.00  0.00     0.045 A 
BRANCH  24  26
HETATM   26  O   UNL     1      -7.002  -2.563 -34.587  1.00  0.00    -0.356 OA
HETATM   27  C   UNL     1      -6.621  -3.903 -34.876  1.00  0.00     0.210 C 
ENDBRANCH  24  26
ENDBRANCH  19  20
ENDBRANCH   1  19
TORSDOF 5
ENDMDL
MODEL 10
REMARK VINA RESULT:      -7.4      4.211     10.122
REMARK  5 active torsions:
REMARK  status: ('A' for Active; 'I' for Inactive)
REMARK    1  A    between atoms: O_2  and  C_3 
REMARK    2  A    between atoms: C_7  and  C_8 
REMARK    3  A    between atoms: C_8  and  N_9 
REMARK       I    between atoms: N_9  and  C_10 
REMARK       I    between atoms: C_10  and  N_12 
REMARK    4  A    between atoms: N_12  and  C_13 
REMARK    5  A    between atoms: C_16  and  C_19 
ROOT
HETATM    1  N   UNL     1      -6.995  -0.548 -33.243  1.00  0.00    -0.339 N 
HETATM    2  C   UNL     1      -6.653   0.729 -32.845  1.00  0.00     0.320 C 
HETATM    3  O   UNL     1      -6.027   1.490 -33.572  1.00  0.00    -0.247 OA
HETATM    4  N   UNL     1      -7.136   1.003 -31.585  1.00  0.00    -0.309 N 
HETATM    5  H   UNL     1      -7.067  -1.243 -32.517  1.00  0.00     0.164 HD
HETATM    6  H   UNL     1      -7.730   0.295 -31.182  1.00  0.00     0.170 HD
ENDROOT
BRANCH   4   7
HETATM    7  C   UNL     1      -7.012   2.208 -30.862  1.00  0.00     0.036 A 
HETATM    8  C   UNL     1      -8.088   3.026 -30.521  1.00  0.00     0.030 A 
HETATM    9  C   UNL     1      -7.887   4.197 -29.778  1.00  0.00     0.014 A 
HETATM   10  C   UNL     1      -6.606   4.586 -29.362  1.00  0.00    -0.026 A 
HETATM   11  C   UNL     1      -5.528   3.767 -29.724  1.00  0.00     0.014 A 
HETATM   12  C   UNL     1      -5.727   2.593 -30.462  1.00  0.00     0.030 A 
BRANCH  10  13
HETATM   13  C   UNL     1      -6.407   5.809 -28.569  1.00  0.00    -0.023 A 
HETATM   14  C   UNL     1      -7.309   6.878 -28.650  1.00  0.00     0.031 A 
HETATM   15  C   UNL     1      -7.081   8.012 -27.888  1.00  0.00     0.117 A 
HETATM   16  N   UNL     1      -6.026   8.161 -27.060  1.00  0.00    -0.273 NA
HETATM   17  C   UNL     1      -5.163   7.127 -26.994  1.00  0.00     0.117 A 
HETATM   18  C   UNL     1      -5.309   5.951 -27.714  1.00  0.00     0.031 A 
ENDBRANCH  10  13
ENDBRANCH   4   7
BRANCH   1  19
HETATM   19  C   UNL     1      -6.538  -1.025 -34.531  1.00  0.00     0.163 C 
BRANCH  19  20
HETATM   20  C   UNL     1      -6.034  -2.443 -34.469  1.00  0.00    -0.038 A 
HETATM   21  C   UNL     1      -6.712  -3.480 -35.125  1.00  0.00     0.009 A 
HETATM   22  C   UNL     1      -6.197  -4.777 -35.120  1.00  0.00     0.003 A 
HETATM   23  C   UNL     1      -4.986  -5.050 -34.481  1.00  0.00     0.037 A 
HETATM   24  C   UNL     1      -4.285  -4.025 -33.846  1.00  0.00     0.068 A 
HETATM   25  C   UNL     1      -4.819  -2.733 -33.831  1.00  0.00     0.045 A 
BRANCH  24  26
HETATM   26  O   UNL     1      -3.084  -4.157 -33.204  1.00  0.00    -0.356 OA
HETATM   27  C   UNL     1      -3.007  -3.607 -31.894  1.00  0.00     0.210 C 
ENDBRANCH  24  26
ENDBRANCH  19  20
ENDBRANCH   1  19
TORSDOF 5
ENDMDL
