MODEL 1
REMARK VINA RESULT:      -9.3      0.000      0.000
REMARK  6 active torsions:
REMARK  status: ('A' for Active; 'I' for Inactive)
REMARK    1  A    between atoms: C_2  and  C_3 
REMARK    2  A    between atoms: C_3  and  C_4 
REMARK    3  A    between atoms: C_4  and  C_5 
REMARK    4  A    between atoms: C_4  and  C_21 
REMARK       I    between atoms: C_5  and  N_6 
REMARK    5  A    between atoms: N_6  and  C_7 
REMARK    6  A    between atoms: C_14  and  C_15 
REMARK       I    between atoms: C_15  and  N_16 
ROOT
HETATM    1  C   UNL     1      -9.038   1.454 -33.708  1.00  0.00     0.035 A 
HETATM    2  C   UNL     1     -10.295   0.834 -33.682  1.00  0.00     0.046 A 
HETATM    3  C   UNL     1     -11.462   1.619 -33.818  1.00  0.00     0.030 A 
HETATM    4  C   UNL     1     -11.333   2.995 -33.958  1.00  0.00     0.063 A 
HETATM    5  N   UNL     1     -12.610   3.470 -34.061  1.00  0.00    -0.277 N 
HETATM    6  H   UNL     1     -12.897   4.436 -34.171  1.00  0.00     0.189 HD
HETATM    7  N   UNL     1     -13.562   2.525 -34.017  1.00  0.00    -0.168 NA
HETATM    8  C   UNL     1     -12.868   1.373 -33.869  1.00  0.00     0.156 A 
HETATM    9  C   UNL     1     -10.099   3.647 -33.979  1.00  0.00     0.034 A 
HETATM   10  C   UNL     1      -8.956   2.845 -33.859  1.00  0.00     0.032 A 
ENDROOT
BRANCH   1  11
HETATM   11  N   UNL     1      -7.816   0.755 -33.619  1.00  0.00    -0.327 N 
HETATM   12  C   UNL     1      -6.954   0.405 -34.654  1.00  0.00     0.231 C 
HETATM   13  O   UNL     1      -7.187   0.558 -35.848  1.00  0.00    -0.272 OA
HETATM   14  H   UNL     1      -7.507   0.516 -32.684  1.00  0.00     0.169 HD
BRANCH  12  15
HETATM   15  C   UNL     1      -5.648  -0.239 -34.134  1.00  0.00     0.115 C 
BRANCH  15  16
HETATM   16  C   UNL     1      -5.224   0.177 -32.692  1.00  0.00    -0.001 C 
HETATM   17  C   UNL     1      -3.705   0.310 -32.501  1.00  0.00     0.011 C 
BRANCH  16  18
HETATM   18  C   UNL     1      -5.801  -0.732 -31.582  1.00  0.00     0.001 C 
HETATM   19  C   UNL     1      -6.386   0.029 -30.399  1.00  0.00     0.005 C 
ENDBRANCH  16  18
ENDBRANCH  15  16
BRANCH  15  20
HETATM   20  C   UNL     1      -5.633  -1.761 -34.302  1.00  0.00    -0.045 A 
HETATM   21  C   UNL     1      -6.836  -2.441 -34.553  1.00  0.00     0.008 A 
HETATM   22  C   UNL     1      -6.851  -3.828 -34.714  1.00  0.00     0.001 A 
HETATM   23  C   UNL     1      -5.665  -4.552 -34.631  1.00  0.00     0.000 A 
HETATM   24  C   UNL     1      -4.462  -3.892 -34.393  1.00  0.00     0.001 A 
HETATM   25  C   UNL     1      -4.443  -2.505 -34.235  1.00  0.00     0.008 A 
ENDBRANCH  15  20
ENDBRANCH  12  15
ENDBRANCH   1  11
BRANCH   8  26
HETATM   26  C   UNL     1     -13.555   0.076 -33.793  1.00  0.00     0.270 C 
HETATM   27  N   UNL     1     -14.819   0.083 -34.317  1.00  0.00    -0.365 N 
HETATM   28  H   UNL     1     -15.174   0.944 -34.716  1.00  0.00     0.159 HD
HETATM   29  H   UNL     1     -15.360  -0.767 -34.327  1.00  0.00     0.159 HD
HETATM   30  O   UNL     1     -13.072  -0.947 -33.319  1.00  0.00    -0.266 OA
ENDBRANCH   8  26
TORSDOF 6
ENDMDL
MODEL 2
REMARK VINA RESULT:      -8.8      1.190      3.105
REMARK  6 active torsions:
REMARK  status: ('A' for Active; 'I' for Inactive)
REMARK    1  A    between atoms: C_2  and  C_3 
REMARK    2  A    between atoms: C_3  and  C_4 
REMARK    3  A    between atoms: C_4  and  C_5 
REMARK    4  A    between atoms: C_4  and  C_21 
REMARK       I    between atoms: C_5  and  N_6 
REMARK    5  A    between atoms: N_6  and  C_7 
REMARK    6  A    between atoms: C_14  and  C_15 
REMARK       I    between atoms: C_15  and  N_16 
ROOT
HETATM    1  C   UNL     1      -9.633   0.969 -33.065  1.00  0.00     0.035 A 
HETATM    2  C   UNL     1     -10.954   0.595 -33.349  1.00  0.00     0.046 A 
HETATM    3  C   UNL     1     -11.958   1.587 -33.423  1.00  0.00     0.030 A 
HETATM    4  C   UNL     1     -11.610   2.912 -33.194  1.00  0.00     0.063 A 
HETATM    5  N   UNL     1     -12.771   3.620 -33.328  1.00  0.00    -0.277 N 
HETATM    6  H   UNL     1     -12.894   4.621 -33.224  1.00  0.00     0.189 HD
HETATM    7  N   UNL     1     -13.845   2.876 -33.639  1.00  0.00    -0.168 NA
HETATM    8  C   UNL     1     -13.358   1.616 -33.704  1.00  0.00     0.156 A 
HETATM    9  C   UNL     1     -10.308   3.319 -32.901  1.00  0.00     0.034 A 
HETATM   10  C   UNL     1      -9.328   2.320 -32.849  1.00  0.00     0.032 A 
ENDROOT
BRANCH   1  11
HETATM   11  N   UNL     1      -8.555   0.060 -33.008  1.00  0.00    -0.327 N 
HETATM   12  C   UNL     1      -7.742  -0.367 -34.054  1.00  0.00     0.231 C 
HETATM   13  O   UNL     1      -7.913  -0.097 -35.237  1.00  0.00    -0.272 OA
HETATM   14  H   UNL     1      -8.318  -0.290 -32.088  1.00  0.00     0.169 HD
BRANCH  12  15
HETATM   15  C   UNL     1      -6.583  -1.265 -33.562  1.00  0.00     0.115 C 
BRANCH  15  16
HETATM   16  C   UNL     1      -5.961  -2.206 -34.638  1.00  0.00    -0.001 C 
HETATM   17  C   UNL     1      -6.720  -3.530 -34.825  1.00  0.00     0.011 C 
BRANCH  16  18
HETATM   18  C   UNL     1      -4.460  -2.504 -34.419  1.00  0.00     0.001 C 
HETATM   19  C   UNL     1      -4.156  -3.963 -34.103  1.00  0.00     0.005 C 
ENDBRANCH  16  18
ENDBRANCH  15  16
BRANCH  15  20
HETATM   20  C   UNL     1      -5.501  -0.477 -32.817  1.00  0.00    -0.045 A 
HETATM   21  C   UNL     1      -5.184   0.825 -33.235  1.00  0.00     0.008 A 
HETATM   22  C   UNL     1      -4.204   1.568 -32.573  1.00  0.00     0.001 A 
HETATM   23  C   UNL     1      -3.532   1.020 -31.484  1.00  0.00     0.000 A 
HETATM   24  C   UNL     1      -3.841  -0.267 -31.051  1.00  0.00     0.001 A 
HETATM   25  C   UNL     1      -4.823  -1.011 -31.709  1.00  0.00     0.008 A 
ENDBRANCH  15  20
ENDBRANCH  12  15
ENDBRANCH   1  11
BRANCH   8  26
HETATM   26  C   UNL     1     -14.228   0.481 -34.042  1.00  0.00     0.270 C 
HETATM   27  N   UNL     1     -13.881  -0.691 -33.428  1.00  0.00    -0.365 N 
HETATM   28  H   UNL     1     -13.087  -0.692 -32.799  1.00  0.00     0.159 HD
HETATM   29  H   UNL     1     -14.434  -1.519 -33.584  1.00  0.00     0.159 HD
HETATM   30  O   UNL     1     -15.194   0.539 -34.796  1.00  0.00    -0.266 OA
ENDBRANCH   8  26
TORSDOF 6
ENDMDL
MODEL 3
REMARK VINA RESULT:      -8.7      1.133      1.606
REMARK  6 active torsions:
REMARK  status: ('A' for Active; 'I' for Inactive)
REMARK    1  A    between atoms: C_2  and  C_3 
REMARK    2  A    between atoms: C_3  and  C_4 
REMARK    3  A    between atoms: C_4  and  C_5 
REMARK    4  A    between atoms: C_4  and  C_21 
REMARK       I    between atoms: C_5  and  N_6 
REMARK    5  A    between atoms: N_6  and  C_7 
REMARK    6  A    between atoms: C_14  and  C_15 
REMARK       I    between atoms: C_15  and  N_16 
ROOT
HETATM    1  C   UNL     1      -8.983   1.887 -33.795  1.00  0.00     0.035 A 
HETATM    2  C   UNL     1     -10.155   1.119 -33.750  1.00  0.00     0.046 A 
HETATM    3  C   UNL     1     -11.408   1.765 -33.662  1.00  0.00     0.030 A 
HETATM    4  C   UNL     1     -11.445   3.153 -33.605  1.00  0.00     0.063 A 
HETATM    5  N   UNL     1     -12.770   3.477 -33.521  1.00  0.00    -0.277 N 
HETATM    6  H   UNL     1     -13.171   4.406 -33.458  1.00  0.00     0.189 HD
HETATM    7  N   UNL     1     -13.604   2.424 -33.534  1.00  0.00    -0.168 NA
HETATM    8  C   UNL     1     -12.777   1.357 -33.623  1.00  0.00     0.156 A 
HETATM    9  C   UNL     1     -10.299   3.948 -33.639  1.00  0.00     0.034 A 
HETATM   10  C   UNL     1      -9.070   3.284 -33.743  1.00  0.00     0.032 A 
ENDROOT
BRANCH   1  11
HETATM   11  N   UNL     1      -7.690   1.337 -33.922  1.00  0.00    -0.327 N 
HETATM   12  C   UNL     1      -7.032   0.489 -33.038  1.00  0.00     0.231 C 
HETATM   13  O   UNL     1      -7.443   0.169 -31.928  1.00  0.00    -0.272 OA
HETATM   14  H   UNL     1      -7.198   1.552 -34.782  1.00  0.00     0.169 HD
BRANCH  12  15
HETATM   15  C   UNL     1      -5.678  -0.003 -33.600  1.00  0.00     0.115 C 
BRANCH  15  16
HETATM   16  C   UNL     1      -4.433   0.301 -32.711  1.00  0.00    -0.001 C 
HETATM   17  C   UNL     1      -4.432  -0.435 -31.362  1.00  0.00     0.011 C 
BRANCH  16  18
HETATM   18  C   UNL     1      -4.188   1.809 -32.470  1.00  0.00     0.001 C 
HETATM   19  C   UNL     1      -4.449   2.260 -31.039  1.00  0.00     0.005 C 
ENDBRANCH  16  18
ENDBRANCH  15  16
BRANCH  15  20
HETATM   20  C   UNL     1      -5.714  -1.475 -34.023  1.00  0.00    -0.045 A 
HETATM   21  C   UNL     1      -4.515  -2.203 -34.094  1.00  0.00     0.008 A 
HETATM   22  C   UNL     1      -4.519  -3.547 -34.474  1.00  0.00     0.001 A 
HETATM   23  C   UNL     1      -5.719  -4.181 -34.783  1.00  0.00     0.000 A 
HETATM   24  C   UNL     1      -6.917  -3.475 -34.708  1.00  0.00     0.001 A 
HETATM   25  C   UNL     1      -6.918  -2.132 -34.325  1.00  0.00     0.008 A 
ENDBRANCH  15  20
ENDBRANCH  12  15
ENDBRANCH   1  11
BRANCH   8  26
HETATM   26  C   UNL     1     -13.307  -0.012 -33.681  1.00  0.00     0.270 C 
HETATM   27  N   UNL     1     -14.534  -0.111 -34.278  1.00  0.00    -0.365 N 
HETATM   28  H   UNL     1     -14.969   0.733 -34.634  1.00  0.00     0.159 HD
HETATM   29  H   UNL     1     -14.968  -1.014 -34.380  1.00  0.00     0.159 HD
HETATM   30  O   UNL     1     -12.730  -1.006 -33.253  1.00  0.00    -0.266 OA
ENDBRANCH   8  26
TORSDOF 6
ENDMDL
MODEL 4
REMARK VINA RESULT:      -8.5      5.117      8.337
REMARK  6 active torsions:
REMARK  status: ('A' for Active; 'I' for Inactive)
REMARK    1  A    between atoms: C_2  and  C_3 
REMARK    2  A    between atoms: C_3  and  C_4 
REMARK    3  A    between atoms: C_4  and  C_5 
REMARK    4  A    between atoms: C_4  and  C_21 
REMARK       I    between atoms: C_5  and  N_6 
REMARK    5  A    between atoms: N_6  and  C_7 
REMARK    6  A    between atoms: C_14  and  C_15 
REMARK       I    between atoms: C_15  and  N_16 
ROOT
HETATM    1  C   UNL     1      -3.848   3.708 -32.734  1.00  0.00     0.035 A 
HETATM    2  C   UNL     1      -2.651   3.898 -32.029  1.00  0.00     0.046 A 
HETATM    3  C   UNL     1      -1.883   5.061 -32.262  1.00  0.00     0.030 A 
HETATM    4  C   UNL     1      -2.328   5.983 -33.201  1.00  0.00     0.063 A 
HETATM    5  N   UNL     1      -1.391   6.977 -33.206  1.00  0.00    -0.277 N 
HETATM    6  H   UNL     1      -1.389   7.815 -33.777  1.00  0.00     0.189 HD
HETATM    7  N   UNL     1      -0.380   6.795 -32.342  1.00  0.00    -0.168 NA
HETATM    8  C   UNL     1      -0.671   5.615 -31.748  1.00  0.00     0.156 A 
HETATM    9  C   UNL     1      -3.510   5.822 -33.926  1.00  0.00     0.034 A 
HETATM   10  C   UNL     1      -4.261   4.669 -33.666  1.00  0.00     0.032 A 
ENDROOT
BRANCH   1  11
HETATM   11  N   UNL     1      -4.702   2.602 -32.544  1.00  0.00    -0.327 N 
HETATM   12  C   UNL     1      -5.415   2.259 -31.399  1.00  0.00     0.231 C 
HETATM   13  O   UNL     1      -5.320   2.821 -30.314  1.00  0.00    -0.272 OA
HETATM   14  H   UNL     1      -4.848   2.009 -33.353  1.00  0.00     0.169 HD
BRANCH  12  15
HETATM   15  C   UNL     1      -6.347   1.047 -31.633  1.00  0.00     0.115 C 
BRANCH  15  16
HETATM   16  C   UNL     1      -7.718   1.375 -32.299  1.00  0.00    -0.001 C 
HETATM   17  C   UNL     1      -8.055   2.874 -32.333  1.00  0.00     0.011 C 
BRANCH  16  18
HETATM   18  C   UNL     1      -8.911   0.597 -31.696  1.00  0.00     0.001 C 
HETATM   19  C   UNL     1      -9.815  -0.055 -32.733  1.00  0.00     0.005 C 
ENDBRANCH  16  18
ENDBRANCH  15  16
BRANCH  15  20
HETATM   20  C   UNL     1      -5.642  -0.110 -32.347  1.00  0.00    -0.045 A 
HETATM   21  C   UNL     1      -4.524  -0.712 -31.749  1.00  0.00     0.008 A 
HETATM   22  C   UNL     1      -3.864  -1.772 -32.376  1.00  0.00     0.001 A 
HETATM   23  C   UNL     1      -4.316  -2.244 -33.606  1.00  0.00     0.000 A 
HETATM   24  C   UNL     1      -5.429  -1.664 -34.207  1.00  0.00     0.001 A 
HETATM   25  C   UNL     1      -6.093  -0.607 -33.581  1.00  0.00     0.008 A 
ENDBRANCH  15  20
ENDBRANCH  12  15
ENDBRANCH   1  11
BRANCH   8  26
HETATM   26  C   UNL     1       0.200   5.054 -30.705  1.00  0.00     0.270 C 
HETATM   27  N   UNL     1      -0.251   5.262 -29.430  1.00  0.00    -0.365 N 
HETATM   28  H   UNL     1      -1.125   5.758 -29.300  1.00  0.00     0.159 HD
HETATM   29  H   UNL     1       0.271   4.896 -28.650  1.00  0.00     0.159 HD
HETATM   30  O   UNL     1       1.241   4.441 -30.916  1.00  0.00    -0.266 OA
ENDBRANCH   8  26
TORSDOF 6
ENDMDL
MODEL 5
REMARK VINA RESULT:      -8.4      1.636      2.924
REMARK  6 active torsions:
REMARK  status: ('A' for Active; 'I' for Inactive)
REMARK    1  A    between atoms: C_2  and  C_3 
REMARK    2  A    between atoms: C_3  and  C_4 
REMARK    3  A    between atoms: C_4  and  C_5 
REMARK    4  A    between atoms: C_4  and  C_21 
REMARK       I    between atoms: C_5  and  N_6 
REMARK    5  A    between atoms: N_6  and  C_7 
REMARK    6  A    between atoms: C_14  and  C_15 
REMARK       I    between atoms: C_15  and  N_16 
ROOT
HETATM    1  C   UNL     1      -9.076   1.335 -33.787  1.00  0.00     0.035 A 
HETATM    2  C   UNL     1      -9.193   2.689 -34.128  1.00  0.00     0.046 A 
HETATM    3  C   UNL     1     -10.473   3.288 -34.174  1.00  0.00     0.030 A 
HETATM    4  C   UNL     1     -11.589   2.509 -33.895  1.00  0.00     0.063 A 
HETATM    5  N   UNL     1     -12.658   3.350 -34.023  1.00  0.00    -0.277 N 
HETATM    6  H   UNL     1     -13.637   3.120 -33.895  1.00  0.00     0.189 HD
HETATM    7  N   UNL     1     -12.339   4.613 -34.345  1.00  0.00    -0.168 NA
HETATM    8  C   UNL     1     -10.990   4.593 -34.440  1.00  0.00     0.156 A 
HETATM    9  C   UNL     1     -11.510   1.156 -33.560  1.00  0.00     0.034 A 
HETATM   10  C   UNL     1     -10.230   0.591 -33.505  1.00  0.00     0.032 A 
ENDROOT
BRANCH   1  11
HETATM   11  N   UNL     1      -7.844   0.658 -33.676  1.00  0.00    -0.327 N 
HETATM   12  C   UNL     1      -6.942   0.353 -34.691  1.00  0.00     0.231 C 
HETATM   13  O   UNL     1      -7.138   0.533 -35.887  1.00  0.00    -0.272 OA
HETATM   14  H   UNL     1      -7.561   0.400 -32.737  1.00  0.00     0.169 HD
BRANCH  12  15
HETATM   15  C   UNL     1      -5.640  -0.278 -34.144  1.00  0.00     0.115 C 
BRANCH  15  16
HETATM   16  C   UNL     1      -5.238   0.158 -32.702  1.00  0.00    -0.001 C 
HETATM   17  C   UNL     1      -3.722   0.287 -32.487  1.00  0.00     0.011 C 
BRANCH  16  18
HETATM   18  C   UNL     1      -5.838  -0.732 -31.588  1.00  0.00     0.001 C 
HETATM   19  C   UNL     1      -6.326   0.042 -30.370  1.00  0.00     0.005 C 
ENDBRANCH  16  18
ENDBRANCH  15  16
BRANCH  15  20
HETATM   20  C   UNL     1      -5.615  -1.802 -34.294  1.00  0.00    -0.045 A 
HETATM   21  C   UNL     1      -6.807  -2.488 -34.581  1.00  0.00     0.008 A 
HETATM   22  C   UNL     1      -6.813  -3.877 -34.726  1.00  0.00     0.001 A 
HETATM   23  C   UNL     1      -5.629  -4.597 -34.589  1.00  0.00     0.000 A 
HETATM   24  C   UNL     1      -4.437  -3.931 -34.314  1.00  0.00     0.001 A 
HETATM   25  C   UNL     1      -4.428  -2.542 -34.172  1.00  0.00     0.008 A 
ENDBRANCH  15  20
ENDBRANCH  12  15
ENDBRANCH   1  11
BRANCH   8  26
HETATM   26  C   UNL     1     -10.233   5.808 -34.767  1.00  0.00     0.270 C 
HETATM   27  N   UNL     1     -10.082   6.672 -33.716  1.00  0.00    -0.365 N 
HETATM   28  H   UNL     1     -10.477   6.417 -32.819  1.00  0.00     0.159 HD
HETATM   29  H   UNL     1      -9.559   7.524 -33.842  1.00  0.00     0.159 HD
HETATM   30  O   UNL     1      -9.755   6.062 -35.868  1.00  0.00    -0.266 OA
ENDBRANCH   8  26
TORSDOF 6
ENDMDL
MODEL 6
REMARK VINA RESULT:      -8.4      1.877      4.320
REMARK  6 active torsions:
REMARK  status: ('A' for Active; 'I' for Inactive)
REMARK    1  A    between atoms: C_2  and  C_3 
REMARK    2  A    between atoms: C_3  and  C_4 
REMARK    3  A    between atoms: C_4  and  C_5 
REMARK    4  A    between atoms: C_4  and  C_21 
REMARK       I    between atoms: C_5  and  N_6 
REMARK    5  A    between atoms: N_6  and  C_7 
REMARK    6  A    between atoms: C_14  and  C_15 
REMARK       I    between atoms: C_15  and  N_16 
ROOT
HETATM    1  C   UNL     1     -10.003   1.288 -33.787  1.00  0.00     0.035 A 
HETATM    2  C   UNL     1      -9.800   2.613 -34.197  1.00  0.00     0.046 A 
HETATM    3  C   UNL     1     -10.915   3.441 -34.455  1.00  0.00     0.030 A 
HETATM    4  C   UNL     1     -12.192   2.912 -34.310  1.00  0.00     0.063 A 
HETATM    5  N   UNL     1     -13.045   3.931 -34.628  1.00  0.00    -0.277 N 
HETATM    6  H   UNL     1     -14.058   3.902 -34.635  1.00  0.00     0.189 HD
HETATM    7  N   UNL     1     -12.440   5.085 -34.952  1.00  0.00    -0.168 NA
HETATM    8  C   UNL     1     -11.121   4.799 -34.847  1.00  0.00     0.156 A 
HETATM    9  C   UNL     1     -12.431   1.596 -33.912  1.00  0.00     0.034 A 
HETATM   10  C   UNL     1     -11.308   0.800 -33.647  1.00  0.00     0.032 A 
ENDROOT
BRANCH   1  11
HETATM   11  N   UNL     1      -8.956   0.397 -33.470  1.00  0.00    -0.327 N 
HETATM   12  C   UNL     1      -8.002  -0.141 -34.327  1.00  0.00     0.231 C 
HETATM   13  O   UNL     1      -7.993  -0.007 -35.546  1.00  0.00    -0.272 OA
HETATM   14  H   UNL     1      -8.862   0.154 -32.490  1.00  0.00     0.169 HD
BRANCH  12  15
HETATM   15  C   UNL     1      -6.940  -0.972 -33.571  1.00  0.00     0.115 C 
BRANCH  15  16
HETATM   16  C   UNL     1      -6.079  -1.925 -34.456  1.00  0.00    -0.001 C 
HETATM   17  C   UNL     1      -6.755  -3.270 -34.767  1.00  0.00     0.011 C 
BRANCH  16  18
HETATM   18  C   UNL     1      -4.659  -2.183 -33.902  1.00  0.00     0.001 C 
HETATM   19  C   UNL     1      -4.184  -3.622 -34.056  1.00  0.00     0.005 C 
ENDBRANCH  16  18
ENDBRANCH  15  16
BRANCH  15  20
HETATM   20  C   UNL     1      -6.060  -0.114 -32.657  1.00  0.00    -0.045 A 
HETATM   21  C   UNL     1      -5.396   1.004 -33.188  1.00  0.00     0.008 A 
HETATM   22  C   UNL     1      -4.590   1.806 -32.378  1.00  0.00     0.001 A 
HETATM   23  C   UNL     1      -4.441   1.504 -31.026  1.00  0.00     0.000 A 
HETATM   24  C   UNL     1      -5.100   0.405 -30.483  1.00  0.00     0.001 A 
HETATM   25  C   UNL     1      -5.910  -0.397 -31.290  1.00  0.00     0.008 A 
ENDBRANCH  15  20
ENDBRANCH  12  15
ENDBRANCH   1  11
BRANCH   8  26
HETATM   26  C   UNL     1     -10.099   5.822 -35.110  1.00  0.00     0.270 C 
HETATM   27  N   UNL     1      -9.540   6.356 -33.981  1.00  0.00    -0.365 N 
HETATM   28  H   UNL     1      -9.850   6.013 -33.079  1.00  0.00     0.159 HD
HETATM   29  H   UNL     1      -8.816   7.051 -34.063  1.00  0.00     0.159 HD
HETATM   30  O   UNL     1      -9.744   6.188 -36.226  1.00  0.00    -0.266 OA
ENDBRANCH   8  26
TORSDOF 6
ENDMDL
MODEL 7
REMARK VINA RESULT:      -8.1      2.565      3.508
REMARK  6 active torsions:
REMARK  status: ('A' for Active; 'I' for Inactive)
REMARK    1  A    between atoms: C_2  and  C_3 
REMARK    2  A    between atoms: C_3  and  C_4 
REMARK    3  A    between atoms: C_4  and  C_5 
REMARK    4  A    between atoms: C_4  and  C_21 
REMARK       I    between atoms: C_5  and  N_6 
REMARK    5  A    between atoms: N_6  and  C_7 
REMARK    6  A    between atoms: C_14  and  C_15 
REMARK       I    between atoms: C_15  and  N_16 
ROOT
HETATM    1  C   UNL     1     -10.770   2.132 -33.895  1.00  0.00     0.035 A 
HETATM    2  C   UNL     1     -11.395   2.886 -32.892  1.00  0.00     0.046 A 
HETATM    3  C   UNL     1     -12.803   2.856 -32.774  1.00  0.00     0.030 A 
HETATM    4  C   UNL     1     -13.536   2.090 -33.672  1.00  0.00     0.063 A 
HETATM    5  N   UNL     1     -14.843   2.264 -33.315  1.00  0.00    -0.277 N 
HETATM    6  H   UNL     1     -15.658   1.854 -33.756  1.00  0.00     0.189 HD
HETATM    7  N   UNL     1     -15.029   3.063 -32.253  1.00  0.00    -0.168 NA
HETATM    8  C   UNL     1     -13.776   3.437 -31.905  1.00  0.00     0.156 A 
HETATM    9  C   UNL     1     -12.947   1.334 -34.687  1.00  0.00     0.034 A 
HETATM   10  C   UNL     1     -11.549   1.367 -34.773  1.00  0.00     0.032 A 
ENDROOT
BRANCH   1  11
HETATM   11  N   UNL     1      -9.371   2.065 -34.068  1.00  0.00    -0.327 N 
HETATM   12  C   UNL     1      -8.471   1.217 -33.431  1.00  0.00     0.231 C 
HETATM   13  O   UNL     1      -8.749   0.452 -32.514  1.00  0.00    -0.272 OA
HETATM   14  H   UNL     1      -8.981   2.680 -34.774  1.00  0.00     0.169 HD
BRANCH  12  15
HETATM   15  C   UNL     1      -7.038   1.359 -33.994  1.00  0.00     0.115 C 
BRANCH  15  16
HETATM   16  C   UNL     1      -6.174   2.487 -33.351  1.00  0.00    -0.001 C 
HETATM   17  C   UNL     1      -6.660   2.933 -31.963  1.00  0.00     0.011 C 
BRANCH  16  18
HETATM   18  C   UNL     1      -5.995   3.730 -34.253  1.00  0.00     0.001 C 
HETATM   19  C   UNL     1      -6.377   5.044 -33.583  1.00  0.00     0.005 C 
ENDBRANCH  16  18
ENDBRANCH  15  16
BRANCH  15  20
HETATM   20  C   UNL     1      -6.281   0.027 -34.026  1.00  0.00    -0.045 A 
HETATM   21  C   UNL     1      -6.752  -1.016 -34.840  1.00  0.00     0.008 A 
HETATM   22  C   UNL     1      -6.081  -2.239 -34.891  1.00  0.00     0.001 A 
HETATM   23  C   UNL     1      -4.929  -2.434 -34.133  1.00  0.00     0.000 A 
HETATM   24  C   UNL     1      -4.443  -1.406 -33.329  1.00  0.00     0.001 A 
HETATM   25  C   UNL     1      -5.110  -0.180 -33.279  1.00  0.00     0.008 A 
ENDBRANCH  15  20
ENDBRANCH  12  15
ENDBRANCH   1  11
BRANCH   8  26
HETATM   26  C   UNL     1     -13.539   4.320 -30.755  1.00  0.00     0.270 C 
HETATM   27  N   UNL     1     -12.670   3.809 -29.829  1.00  0.00    -0.365 N 
HETATM   28  H   UNL     1     -12.258   2.899 -30.001  1.00  0.00     0.159 HD
HETATM   29  H   UNL     1     -12.431   4.353 -29.015  1.00  0.00     0.159 HD
HETATM   30  O   UNL     1     -14.046   5.426 -30.603  1.00  0.00    -0.266 OA
ENDBRANCH   8  26
TORSDOF 6
ENDMDL
MODEL 8
REMARK VINA RESULT:      -8.0      4.220      7.375
REMARK  6 active torsions:
REMARK  status: ('A' for Active; 'I' for Inactive)
REMARK    1  A    between atoms: C_2  and  C_3 
REMARK    2  A    between atoms: C_3  and  C_4 
REMARK    3  A    between atoms: C_4  and  C_5 
REMARK    4  A    between atoms: C_4  and  C_21 
REMARK       I    between atoms: C_5  and  N_6 
REMARK    5  A    between atoms: N_6  and  C_7 
REMARK    6  A    between atoms: C_14  and  C_15 
REMARK       I    between atoms: C_15  and  N_16 
ROOT
HETATM    1  C   UNL     1      -5.763   0.230 -33.688  1.00  0.00     0.035 A 
HETATM    2  C   UNL     1      -4.998  -0.919 -33.446  1.00  0.00     0.046 A 
HETATM    3  C   UNL     1      -5.400  -2.154 -34.001  1.00  0.00     0.030 A 
HETATM    4  C   UNL     1      -6.560  -2.200 -34.765  1.00  0.00     0.063 A 
HETATM    5  N   UNL     1      -6.688  -3.504 -35.152  1.00  0.00    -0.277 N 
HETATM    6  H   UNL     1      -7.426  -3.905 -35.720  1.00  0.00     0.189 HD
HETATM    7  N   UNL     1      -5.705  -4.312 -34.723  1.00  0.00    -0.168 NA
HETATM    8  C   UNL     1      -4.899  -3.492 -34.011  1.00  0.00     0.156 A 
HETATM    9  C   UNL     1      -7.350  -1.078 -35.020  1.00  0.00     0.034 A 
HETATM   10  C   UNL     1      -6.921   0.137 -34.471  1.00  0.00     0.032 A 
ENDROOT
BRANCH   1  11
HETATM   11  N   UNL     1      -5.423   1.514 -33.211  1.00  0.00    -0.327 N 
HETATM   12  C   UNL     1      -6.281   2.516 -32.769  1.00  0.00     0.231 C 
HETATM   13  O   UNL     1      -7.505   2.477 -32.834  1.00  0.00    -0.272 OA
HETATM   14  H   UNL     1      -4.432   1.713 -33.140  1.00  0.00     0.169 HD
BRANCH  12  15
HETATM   15  C   UNL     1      -5.514   3.730 -32.196  1.00  0.00     0.115 C 
BRANCH  15  16
HETATM   16  C   UNL     1      -5.013   3.574 -30.728  1.00  0.00    -0.001 C 
HETATM   17  C   UNL     1      -5.443   2.260 -30.056  1.00  0.00     0.011 C 
BRANCH  16  18
HETATM   18  C   UNL     1      -5.382   4.762 -29.809  1.00  0.00     0.001 C 
HETATM   19  C   UNL     1      -6.061   5.918 -30.532  1.00  0.00     0.005 C 
ENDBRANCH  16  18
ENDBRANCH  15  16
BRANCH  15  20
HETATM   20  C   UNL     1      -4.391   4.209 -33.121  1.00  0.00    -0.045 A 
HETATM   21  C   UNL     1      -4.715   4.812 -34.347  1.00  0.00     0.008 A 
HETATM   22  C   UNL     1      -3.712   5.261 -35.208  1.00  0.00     0.001 A 
HETATM   23  C   UNL     1      -2.373   5.117 -34.853  1.00  0.00     0.000 A 
HETATM   24  C   UNL     1      -2.035   4.530 -33.636  1.00  0.00     0.001 A 
HETATM   25  C   UNL     1      -3.036   4.083 -32.772  1.00  0.00     0.008 A 
ENDBRANCH  15  20
ENDBRANCH  12  15
ENDBRANCH   1  11
BRANCH   8  26
HETATM   26  C   UNL     1      -3.674  -3.995 -33.374  1.00  0.00     0.270 C 
HETATM   27  N   UNL     1      -3.105  -5.059 -34.021  1.00  0.00    -0.365 N 
HETATM   28  H   UNL     1      -3.544  -5.403 -34.867  1.00  0.00     0.159 HD
HETATM   29  H   UNL     1      -2.251  -5.458 -33.667  1.00  0.00     0.159 HD
HETATM   30  O   UNL     1      -3.170  -3.528 -32.358  1.00  0.00    -0.266 OA
ENDBRANCH   8  26
TORSDOF 6
ENDMDL
MODEL 9
REMARK VINA RESULT:      -8.0      2.407      3.466
REMARK  6 active torsions:
REMARK  status: ('A' for Active; 'I' for Inactive)
REMARK    1  A    between atoms: C_2  and  C_3 
REMARK    2  A    between atoms: C_3  and  C_4 
REMARK    3  A    between atoms: C_4  and  C_5 
REMARK    4  A    between atoms: C_4  and  C_21 
REMARK       I    between atoms: C_5  and  N_6 
REMARK    5  A    between atoms: N_6  and  C_7 
REMARK    6  A    between atoms: C_14  and  C_15 
REMARK       I    between atoms: C_15  and  N_16 
ROOT
HETATM    1  C   UNL     1      -8.460   1.342 -33.416  1.00  0.00     0.035 A 
HETATM    2  C   UNL     1      -8.598   2.367 -32.470  1.00  0.00     0.046 A 
HETATM    3  C   UNL     1      -9.881   2.891 -32.193  1.00  0.00     0.030 A 
HETATM    4  C   UNL     1     -10.976   2.386 -32.882  1.00  0.00     0.063 A 
HETATM    5  N   UNL     1     -12.054   3.080 -32.410  1.00  0.00    -0.277 N 
HETATM    6  H   UNL     1     -13.021   2.976 -32.694  1.00  0.00     0.189 HD
HETATM    7  N   UNL     1     -11.763   3.984 -31.462  1.00  0.00    -0.168 NA
HETATM    8  C   UNL     1     -10.422   3.878 -31.314  1.00  0.00     0.156 A 
HETATM    9  C   UNL     1     -10.874   1.372 -33.837  1.00  0.00     0.034 A 
HETATM   10  C   UNL     1      -9.594   0.858 -34.081  1.00  0.00     0.032 A 
ENDROOT
BRANCH   1  11
HETATM   11  N   UNL     1      -7.230   0.728 -33.733  1.00  0.00    -0.327 N 
HETATM   12  C   UNL     1      -6.495  -0.162 -32.957  1.00  0.00     0.231 C 
HETATM   13  O   UNL     1      -6.754  -0.471 -31.800  1.00  0.00    -0.272 OA
HETATM   14  H   UNL     1      -6.860   0.926 -34.656  1.00  0.00     0.169 HD
BRANCH  12  15
HETATM   15  C   UNL     1      -5.266  -0.718 -33.713  1.00  0.00     0.115 C 
BRANCH  15  16
HETATM   16  C   UNL     1      -3.889  -0.482 -33.019  1.00  0.00    -0.001 C 
HETATM   17  C   UNL     1      -3.671  -1.331 -31.758  1.00  0.00     0.011 C 
BRANCH  16  18
HETATM   18  C   UNL     1      -3.597   1.001 -32.693  1.00  0.00     0.001 C 
HETATM   19  C   UNL     1      -3.469   1.296 -31.205  1.00  0.00     0.005 C 
ENDBRANCH  16  18
ENDBRANCH  15  16
BRANCH  15  20
HETATM   20  C   UNL     1      -5.439  -2.183 -34.125  1.00  0.00    -0.045 A 
HETATM   21  C   UNL     1      -4.333  -3.047 -34.083  1.00  0.00     0.008 A 
HETATM   22  C   UNL     1      -4.463  -4.388 -34.450  1.00  0.00     0.001 A 
HETATM   23  C   UNL     1      -5.698  -4.883 -34.859  1.00  0.00     0.000 A 
HETATM   24  C   UNL     1      -6.807  -4.040 -34.897  1.00  0.00     0.001 A 
HETATM   25  C   UNL     1      -6.681  -2.700 -34.528  1.00  0.00     0.008 A 
ENDBRANCH  15  20
ENDBRANCH  12  15
ENDBRANCH   1  11
BRANCH   8  26
HETATM   26  C   UNL     1      -9.698   4.704 -30.338  1.00  0.00     0.270 C 
HETATM   27  N   UNL     1     -10.393   5.804 -29.911  1.00  0.00    -0.365 N 
HETATM   28  H   UNL     1     -11.326   5.958 -30.276  1.00  0.00     0.159 HD
HETATM   29  H   UNL     1      -9.983   6.418 -29.227  1.00  0.00     0.159 HD
HETATM   30  O   UNL     1      -8.574   4.462 -29.911  1.00  0.00    -0.266 OA
ENDBRANCH   8  26
TORSDOF 6
ENDMDL
MODEL 10
REMARK VINA RESULT:      -7.9      4.133      7.087
REMARK  6 active torsions:
REMARK  status: ('A' for Active; 'I' for Inactive)
REMARK    1  A    between atoms: C_2  and  C_3 
REMARK    2  A    between atoms: C_3  and  C_4 
REMARK    3  A    between atoms: C_4  and  C_5 
REMARK    4  A    between atoms: C_4  and  C_21 
REMARK       I    between atoms: C_5  and  N_6 
REMARK    5  A    between atoms: N_6  and  C_7 
REMARK    6  A    between atoms: C_14  and  C_15 
REMARK       I    between atoms: C_15  and  N_16 
ROOT
HETATM    1  C   UNL     1      -5.884   2.899 -31.151  1.00  0.00     0.035 A 
HETATM    2  C   UNL     1      -4.619   3.312 -31.592  1.00  0.00     0.046 A 
HETATM    3  C   UNL     1      -4.046   4.489 -31.060  1.00  0.00     0.030 A 
HETATM    4  C   UNL     1      -4.763   5.220 -30.120  1.00  0.00     0.063 A 
HETATM    5  N   UNL     1      -3.967   6.284 -29.804  1.00  0.00    -0.277 N 
HETATM    6  H   UNL     1      -4.174   7.031 -29.150  1.00  0.00     0.189 HD
HETATM    7  N   UNL     1      -2.786   6.306 -30.442  1.00  0.00    -0.168 NA
HETATM    8  C   UNL     1      -2.818   5.200 -31.221  1.00  0.00     0.156 A 
HETATM    9  C   UNL     1      -6.028   4.843 -29.665  1.00  0.00     0.034 A 
HETATM   10  C   UNL     1      -6.567   3.664 -30.196  1.00  0.00     0.032 A 
ENDROOT
BRANCH   1  11
HETATM   11  N   UNL     1      -6.522   1.721 -31.592  1.00  0.00    -0.327 N 
HETATM   12  C   UNL     1      -6.529   1.182 -32.875  1.00  0.00     0.231 C 
HETATM   13  O   UNL     1      -6.062   1.724 -33.871  1.00  0.00    -0.272 OA
HETATM   14  H   UNL     1      -6.996   1.178 -30.879  1.00  0.00     0.169 HD
BRANCH  12  15
HETATM   15  C   UNL     1      -7.230  -0.195 -32.926  1.00  0.00     0.115 C 
BRANCH  15  16
HETATM   16  C   UNL     1      -8.632  -0.210 -33.608  1.00  0.00    -0.001 C 
HETATM   17  C   UNL     1      -8.754   0.746 -34.805  1.00  0.00     0.011 C 
BRANCH  16  18
HETATM   18  C   UNL     1      -9.806   0.040 -32.634  1.00  0.00     0.001 C 
HETATM   19  C   UNL     1     -11.079   0.536 -33.308  1.00  0.00     0.005 C 
ENDBRANCH  16  18
ENDBRANCH  15  16
BRANCH  15  20
HETATM   20  C   UNL     1      -6.326  -1.298 -33.486  1.00  0.00    -0.045 A 
HETATM   21  C   UNL     1      -4.983  -1.363 -33.079  1.00  0.00     0.008 A 
HETATM   22  C   UNL     1      -4.138  -2.360 -33.571  1.00  0.00     0.001 A 
HETATM   23  C   UNL     1      -4.623  -3.304 -34.472  1.00  0.00     0.000 A 
HETATM   24  C   UNL     1      -5.954  -3.258 -34.878  1.00  0.00     0.001 A 
HETATM   25  C   UNL     1      -6.803  -2.265 -34.385  1.00  0.00     0.008 A 
ENDBRANCH  15  20
ENDBRANCH  12  15
ENDBRANCH   1  11
BRANCH   8  26
HETATM   26  C   UNL     1      -1.682   4.846 -32.083  1.00  0.00     0.270 C 
HETATM   27  N   UNL     1      -2.004   4.724 -33.408  1.00  0.00    -0.365 N 
HETATM   28  H   UNL     1      -2.962   4.893 -33.692  1.00  0.00     0.159 HD
HETATM   29  H   UNL     1      -1.284   4.503 -34.077  1.00  0.00     0.159 HD
HETATM   30  O   UNL     1      -0.533   4.672 -31.692  1.00  0.00    -0.266 OA
ENDBRANCH   8  26
TORSDOF 6
ENDMDL
