MODEL 1
REMARK VINA RESULT:      -8.2      0.000      0.000
REMARK  7 active torsions:
REMARK  status: ('A' for Active; 'I' for Inactive)
REMARK    1  A    between atoms: C_4  and  C_5 
REMARK    2  A    between atoms: C_5  and  O_6 
REMARK    3  A    between atoms: C_5  and  C_7 
REMARK    4  A    between atoms: C_7  and  N_8 
REMARK       I    between atoms: N_8  and  C_9 
REMARK    5  A    between atoms: N_8  and  C_20 
REMARK    6  A    between atoms: C_9  and  C_10 
REMARK    7  A    between atoms: C_14  and  C_15 
ROOT
HETATM    1  N   UNL     1      -7.023   1.969 -32.938  1.00  0.00    -0.339 N 
HETATM    2  C   UNL     1      -6.531   2.962 -32.057  1.00  0.00     0.274 C 
HETATM    3  O   UNL     1      -7.304   3.612 -31.348  1.00  0.00    -0.266 OA
ENDROOT
BRANCH   1   4
HETATM    4  C   UNL     1      -6.144   1.076 -33.730  1.00  0.00     0.163 C 
BRANCH   4   5
HETATM    5  C   UNL     1      -5.438  -0.030 -32.913  1.00  0.00     0.169 C 
BRANCH   5   6
HETATM    6  C   UNL     1      -5.507  -1.364 -33.632  1.00  0.00    -0.028 A 
HETATM    7  C   UNL     1      -4.344  -2.129 -33.811  1.00  0.00     0.010 A 
HETATM    8  C   UNL     1      -4.401  -3.371 -34.448  1.00  0.00     0.001 A 
HETATM    9  C   UNL     1      -5.619  -3.864 -34.911  1.00  0.00     0.000 A 
HETATM   10  C   UNL     1      -6.781  -3.115 -34.742  1.00  0.00     0.001 A 
HETATM   11  C   UNL     1      -6.726  -1.874 -34.105  1.00  0.00     0.010 A 
ENDBRANCH   5   6
BRANCH   5  12
HETATM   12  O   UNL     1      -4.052   0.289 -32.735  1.00  0.00    -0.389 OA
HETATM   13  H   UNL     1      -3.895   1.091 -33.260  1.00  0.00     0.210 HD
ENDBRANCH   5  12
ENDBRANCH   4   5
ENDBRANCH   1   4
BRANCH   1  14
HETATM   14  C   UNL     1      -8.499   1.814 -32.990  1.00  0.00     0.087 C 
HETATM   15  C   UNL     1      -9.025   0.370 -33.080  1.00  0.00     0.025 C 
HETATM   16  C   UNL     1     -10.551   0.325 -33.024  1.00  0.00     0.002 C 
HETATM   17  C   UNL     1     -11.177   1.196 -34.108  1.00  0.00     0.000 C 
HETATM   18  C   UNL     1     -10.659   2.629 -34.045  1.00  0.00     0.002 C 
HETATM   19  C   UNL     1      -9.133   2.686 -34.092  1.00  0.00     0.025 C 
ENDBRANCH   1  14
BRANCH   2  20
HETATM   20  C   UNL     1      -5.076   3.211 -31.924  1.00  0.00     0.146 A 
HETATM   21  N   UNL     1      -4.281   2.701 -30.961  1.00  0.00    -0.169 NA
HETATM   22  N   UNL     1      -3.062   3.195 -31.237  1.00  0.00    -0.281 N 
HETATM   23  H   UNL     1      -2.291   2.959 -30.620  1.00  0.00     0.189 HD
HETATM   24  C   UNL     1      -3.027   3.978 -32.348  1.00  0.00     0.034 A 
HETATM   25  C   UNL     1      -4.306   3.987 -32.840  1.00  0.00     0.066 A 
BRANCH  24  26
HETATM   26  C   UNL     1      -1.842   4.706 -32.939  1.00  0.00     0.037 A 
HETATM   27  C   UNL     1      -1.668   6.176 -32.624  1.00  0.00     0.011 A 
HETATM   28  C   UNL     1      -0.738   5.182 -32.019  1.00  0.00     0.011 A 
ENDBRANCH  24  26
ENDBRANCH   2  20
TORSDOF 7
ENDMDL
MODEL 2
REMARK VINA RESULT:      -8.1      1.884      6.328
REMARK  7 active torsions:
REMARK  status: ('A' for Active; 'I' for Inactive)
REMARK    1  A    between atoms: C_4  and  C_5 
REMARK    2  A    between atoms: C_5  and  O_6 
REMARK    3  A    between atoms: C_5  and  C_7 
REMARK    4  A    between atoms: C_7  and  N_8 
REMARK       I    between atoms: N_8  and  C_9 
REMARK    5  A    between atoms: N_8  and  C_20 
REMARK    6  A    between atoms: C_9  and  C_10 
REMARK    7  A    between atoms: C_14  and  C_15 
ROOT
HETATM    1  N   UNL     1      -6.959   1.393 -32.554  1.00  0.00    -0.339 N 
HETATM    2  C   UNL     1      -8.221   2.032 -32.575  1.00  0.00     0.274 C 
HETATM    3  O   UNL     1      -8.308   3.255 -32.431  1.00  0.00    -0.266 OA
ENDROOT
BRANCH   1   4
HETATM    4  C   UNL     1      -6.773  -0.051 -32.834  1.00  0.00     0.163 C 
BRANCH   4   5
HETATM    5  C   UNL     1      -6.319  -0.380 -34.274  1.00  0.00     0.169 C 
BRANCH   5   6
HETATM    6  C   UNL     1      -5.947  -1.845 -34.405  1.00  0.00    -0.028 A 
HETATM    7  C   UNL     1      -4.637  -2.267 -34.132  1.00  0.00     0.010 A 
HETATM    8  C   UNL     1      -4.290  -3.616 -34.222  1.00  0.00     0.001 A 
HETATM    9  C   UNL     1      -5.248  -4.561 -34.585  1.00  0.00     0.000 A 
HETATM   10  C   UNL     1      -6.552  -4.158 -34.861  1.00  0.00     0.001 A 
HETATM   11  C   UNL     1      -6.900  -2.810 -34.770  1.00  0.00     0.010 A 
ENDBRANCH   5   6
BRANCH   5  12
HETATM   12  O   UNL     1      -7.380  -0.125 -35.202  1.00  0.00    -0.389 OA
HETATM   13  H   UNL     1      -7.329   0.823 -35.410  1.00  0.00     0.210 HD
ENDBRANCH   5  12
ENDBRANCH   4   5
ENDBRANCH   1   4
BRANCH   1  14
HETATM   14  C   UNL     1      -5.786   2.266 -32.294  1.00  0.00     0.087 C 
HETATM   15  C   UNL     1      -5.318   3.139 -33.472  1.00  0.00     0.025 C 
HETATM   16  C   UNL     1      -4.175   4.068 -33.062  1.00  0.00     0.002 C 
HETATM   17  C   UNL     1      -3.006   3.289 -32.469  1.00  0.00     0.000 C 
HETATM   18  C   UNL     1      -3.451   2.407 -31.308  1.00  0.00     0.002 C 
HETATM   19  C   UNL     1      -4.599   1.479 -31.704  1.00  0.00     0.025 C 
ENDBRANCH   1  14
BRANCH   2  20
HETATM   20  C   UNL     1      -9.463   1.261 -32.819  1.00  0.00     0.146 A 
HETATM   21  N   UNL     1      -9.717   0.022 -32.352  1.00  0.00    -0.169 NA
HETATM   22  N   UNL     1     -10.942  -0.269 -32.823  1.00  0.00    -0.281 N 
HETATM   23  H   UNL     1     -11.341  -1.178 -32.613  1.00  0.00     0.189 HD
HETATM   24  C   UNL     1     -11.502   0.735 -33.550  1.00  0.00     0.034 A 
HETATM   25  C   UNL     1     -10.588   1.756 -33.543  1.00  0.00     0.066 A 
BRANCH  24  26
HETATM   26  C   UNL     1     -12.846   0.750 -34.239  1.00  0.00     0.037 A 
HETATM   27  C   UNL     1     -14.036   1.308 -33.487  1.00  0.00     0.011 A 
HETATM   28  C   UNL     1     -13.461   2.079 -34.625  1.00  0.00     0.011 A 
ENDBRANCH  24  26
ENDBRANCH   2  20
TORSDOF 7
ENDMDL
MODEL 3
REMARK VINA RESULT:      -8.0      2.019      2.871
REMARK  7 active torsions:
REMARK  status: ('A' for Active; 'I' for Inactive)
REMARK    1  A    between atoms: C_4  and  C_5 
REMARK    2  A    between atoms: C_5  and  O_6 
REMARK    3  A    between atoms: C_5  and  C_7 
REMARK    4  A    between atoms: C_7  and  N_8 
REMARK       I    between atoms: N_8  and  C_9 
REMARK    5  A    between atoms: N_8  and  C_20 
REMARK    6  A    between atoms: C_9  and  C_10 
REMARK    7  A    between atoms: C_14  and  C_15 
ROOT
HETATM    1  N   UNL     1      -9.476   1.872 -32.674  1.00  0.00    -0.339 N 
HETATM    2  C   UNL     1      -9.073   2.951 -31.851  1.00  0.00     0.274 C 
HETATM    3  O   UNL     1      -9.844   3.886 -31.619  1.00  0.00    -0.266 OA
ENDROOT
BRANCH   1   4
HETATM    4  C   UNL     1      -8.644   0.665 -32.899  1.00  0.00     0.163 C 
BRANCH   4   5
HETATM    5  C   UNL     1      -7.751   0.719 -34.160  1.00  0.00     0.169 C 
BRANCH   5   6
HETATM    6  C   UNL     1      -6.614  -0.281 -34.062  1.00  0.00    -0.028 A 
HETATM    7  C   UNL     1      -6.733  -1.545 -34.659  1.00  0.00     0.010 A 
HETATM    8  C   UNL     1      -5.682  -2.462 -34.599  1.00  0.00     0.001 A 
HETATM    9  C   UNL     1      -4.499  -2.127 -33.944  1.00  0.00     0.000 A 
HETATM   10  C   UNL     1      -4.366  -0.877 -33.346  1.00  0.00     0.001 A 
HETATM   11  C   UNL     1      -5.415   0.041 -33.406  1.00  0.00     0.010 A 
ENDBRANCH   5   6
BRANCH   5  12
HETATM   12  O   UNL     1      -8.513   0.386 -35.326  1.00  0.00    -0.389 OA
HETATM   13  H   UNL     1      -9.443   0.383 -35.044  1.00  0.00     0.210 HD
ENDBRANCH   5  12
ENDBRANCH   4   5
ENDBRANCH   1   4
BRANCH   1  14
HETATM   14  C   UNL     1     -10.832   1.973 -33.270  1.00  0.00     0.087 C 
HETATM   15  C   UNL     1     -11.577   0.644 -33.488  1.00  0.00     0.025 C 
HETATM   16  C   UNL     1     -12.995   0.875 -34.008  1.00  0.00     0.002 C 
HETATM   17  C   UNL     1     -12.995   1.710 -35.284  1.00  0.00     0.000 C 
HETATM   18  C   UNL     1     -12.250   3.027 -35.093  1.00  0.00     0.002 C 
HETATM   19  C   UNL     1     -10.832   2.808 -34.566  1.00  0.00     0.025 C 
ENDBRANCH   1  14
BRANCH   2  20
HETATM   20  C   UNL     1      -7.739   2.962 -31.207  1.00  0.00     0.146 A 
HETATM   21  N   UNL     1      -7.492   2.656 -29.916  1.00  0.00    -0.169 NA
HETATM   22  N   UNL     1      -6.163   2.805 -29.784  1.00  0.00    -0.281 N 
HETATM   23  H   UNL     1      -5.744   2.646 -28.874  1.00  0.00     0.189 HD
HETATM   24  C   UNL     1      -5.536   3.166 -30.936  1.00  0.00     0.034 A 
HETATM   25  C   UNL     1      -6.518   3.246 -31.888  1.00  0.00     0.066 A 
BRANCH  24  26
HETATM   26  C   UNL     1      -4.065   3.437 -31.151  1.00  0.00     0.037 A 
HETATM   27  C   UNL     1      -3.138   2.259 -31.364  1.00  0.00     0.011 A 
HETATM   28  C   UNL     1      -3.456   3.157 -32.509  1.00  0.00     0.011 A 
ENDBRANCH  24  26
ENDBRANCH   2  20
TORSDOF 7
ENDMDL
MODEL 4
REMARK VINA RESULT:      -7.8      1.924      5.149
REMARK  7 active torsions:
REMARK  status: ('A' for Active; 'I' for Inactive)
REMARK    1  A    between atoms: C_4  and  C_5 
REMARK    2  A    between atoms: C_5  and  O_6 
REMARK    3  A    between atoms: C_5  and  C_7 
REMARK    4  A    between atoms: C_7  and  N_8 
REMARK       I    between atoms: N_8  and  C_9 
REMARK    5  A    between atoms: N_8  and  C_20 
REMARK    6  A    between atoms: C_9  and  C_10 
REMARK    7  A    between atoms: C_14  and  C_15 
ROOT
HETATM    1  N   UNL     1      -5.356  -0.240 -33.153  1.00  0.00    -0.339 N 
HETATM    2  C   UNL     1      -4.560   0.046 -32.018  1.00  0.00     0.274 C 
HETATM    3  O   UNL     1      -4.004  -0.863 -31.396  1.00  0.00    -0.266 OA
ENDROOT
BRANCH   1   4
HETATM    4  C   UNL     1      -5.956   0.809 -34.012  1.00  0.00     0.163 C 
BRANCH   4   5
HETATM    5  C   UNL     1      -7.223   1.477 -33.431  1.00  0.00     0.169 C 
BRANCH   5   6
HETATM    6  C   UNL     1      -7.008   2.965 -33.228  1.00  0.00    -0.028 A 
HETATM    7  C   UNL     1      -7.610   3.623 -32.144  1.00  0.00     0.010 A 
HETATM    8  C   UNL     1      -7.397   4.986 -31.933  1.00  0.00     0.001 A 
HETATM    9  C   UNL     1      -6.579   5.709 -32.799  1.00  0.00     0.000 A 
HETATM   10  C   UNL     1      -5.976   5.070 -33.879  1.00  0.00     0.001 A 
HETATM   11  C   UNL     1      -6.188   3.707 -34.092  1.00  0.00     0.010 A 
ENDBRANCH   5   6
BRANCH   5  12
HETATM   12  O   UNL     1      -8.326   1.324 -34.333  1.00  0.00    -0.389 OA
HETATM   13  H   UNL     1      -9.127   1.439 -33.795  1.00  0.00     0.210 HD
ENDBRANCH   5  12
ENDBRANCH   4   5
ENDBRANCH   1   4
BRANCH   1  14
HETATM   14  C   UNL     1      -5.520  -1.676 -33.493  1.00  0.00     0.087 C 
HETATM   15  C   UNL     1      -4.323  -2.348 -34.189  1.00  0.00     0.025 C 
HETATM   16  C   UNL     1      -4.563  -3.843 -34.398  1.00  0.00     0.002 C 
HETATM   17  C   UNL     1      -5.852  -4.101 -35.171  1.00  0.00     0.000 C 
HETATM   18  C   UNL     1      -7.049  -3.432 -34.505  1.00  0.00     0.002 C 
HETATM   19  C   UNL     1      -6.817  -1.938 -34.284  1.00  0.00     0.025 C 
ENDBRANCH   1  14
BRANCH   2  20
HETATM   20  C   UNL     1      -4.330   1.443 -31.580  1.00  0.00     0.146 A 
HETATM   21  N   UNL     1      -4.887   2.024 -30.498  1.00  0.00    -0.169 NA
HETATM   22  N   UNL     1      -4.399   3.276 -30.501  1.00  0.00    -0.281 N 
HETATM   23  H   UNL     1      -4.703   3.918 -29.776  1.00  0.00     0.189 HD
HETATM   24  C   UNL     1      -3.531   3.523 -31.519  1.00  0.00     0.034 A 
HETATM   25  C   UNL     1      -3.435   2.350 -32.221  1.00  0.00     0.066 A 
BRANCH  24  26
HETATM   26  C   UNL     1      -2.811   4.812 -31.839  1.00  0.00     0.037 A 
HETATM   27  C   UNL     1      -1.339   4.920 -31.502  1.00  0.00     0.011 A 
HETATM   28  C   UNL     1      -1.760   4.817 -32.928  1.00  0.00     0.011 A 
ENDBRANCH  24  26
ENDBRANCH   2  20
TORSDOF 7
ENDMDL
MODEL 5
REMARK VINA RESULT:      -7.7      1.308      6.000
REMARK  7 active torsions:
REMARK  status: ('A' for Active; 'I' for Inactive)
REMARK    1  A    between atoms: C_4  and  C_5 
REMARK    2  A    between atoms: C_5  and  O_6 
REMARK    3  A    between atoms: C_5  and  C_7 
REMARK    4  A    between atoms: C_7  and  N_8 
REMARK       I    between atoms: N_8  and  C_9 
REMARK    5  A    between atoms: N_8  and  C_20 
REMARK    6  A    between atoms: C_9  and  C_10 
REMARK    7  A    between atoms: C_14  and  C_15 
ROOT
HETATM    1  N   UNL     1      -5.881   2.950 -33.001  1.00  0.00    -0.339 N 
HETATM    2  C   UNL     1      -7.081   3.422 -32.416  1.00  0.00     0.274 C 
HETATM    3  O   UNL     1      -7.161   4.579 -31.995  1.00  0.00    -0.266 OA
ENDROOT
BRANCH   1   4
HETATM    4  C   UNL     1      -5.753   1.613 -33.628  1.00  0.00     0.163 C 
BRANCH   4   5
HETATM    5  C   UNL     1      -5.872   0.423 -32.649  1.00  0.00     0.169 C 
BRANCH   5   6
HETATM    6  C   UNL     1      -5.784  -0.899 -33.388  1.00  0.00    -0.028 A 
HETATM    7  C   UNL     1      -6.946  -1.502 -33.895  1.00  0.00     0.010 A 
HETATM    8  C   UNL     1      -6.873  -2.704 -34.601  1.00  0.00     0.001 A 
HETATM    9  C   UNL     1      -5.641  -3.319 -34.809  1.00  0.00     0.000 A 
HETATM   10  C   UNL     1      -4.479  -2.734 -34.311  1.00  0.00     0.001 A 
HETATM   11  C   UNL     1      -4.550  -1.532 -33.606  1.00  0.00     0.010 A 
ENDBRANCH   5   6
BRANCH   5  12
HETATM   12  O   UNL     1      -4.802   0.451 -31.696  1.00  0.00    -0.389 OA
HETATM   13  H   UNL     1      -4.714  -0.459 -31.368  1.00  0.00     0.210 HD
ENDBRANCH   5  12
ENDBRANCH   4   5
ENDBRANCH   1   4
BRANCH   1  14
HETATM   14  C   UNL     1      -4.741   3.902 -33.016  1.00  0.00     0.087 C 
HETATM   15  C   UNL     1      -4.553   4.712 -34.311  1.00  0.00     0.025 C 
HETATM   16  C   UNL     1      -3.419   5.728 -34.177  1.00  0.00     0.002 C 
HETATM   17  C   UNL     1      -2.113   5.057 -33.764  1.00  0.00     0.000 C 
HETATM   18  C   UNL     1      -2.281   4.237 -32.490  1.00  0.00     0.002 C 
HETATM   19  C   UNL     1      -3.418   3.223 -32.610  1.00  0.00     0.025 C 
ENDBRANCH   1  14
BRANCH   2  20
HETATM   20  C   UNL     1      -8.283   2.559 -32.340  1.00  0.00     0.146 A 
HETATM   21  N   UNL     1      -8.715   1.917 -31.235  1.00  0.00    -0.169 NA
HETATM   22  N   UNL     1      -9.820   1.265 -31.637  1.00  0.00    -0.281 N 
HETATM   23  H   UNL     1     -10.313   0.685 -30.966  1.00  0.00     0.189 HD
HETATM   24  C   UNL     1     -10.137   1.479 -32.942  1.00  0.00     0.034 A 
HETATM   25  C   UNL     1      -9.184   2.337 -33.423  1.00  0.00     0.066 A 
BRANCH  24  26
HETATM   26  C   UNL     1     -11.291   0.899 -33.728  1.00  0.00     0.037 A 
HETATM   27  C   UNL     1     -12.645   1.566 -33.619  1.00  0.00     0.011 A 
HETATM   28  C   UNL     1     -11.865   1.691 -34.883  1.00  0.00     0.011 A 
ENDBRANCH  24  26
ENDBRANCH   2  20
TORSDOF 7
ENDMDL
MODEL 6
REMARK VINA RESULT:      -7.7      2.658      5.618
REMARK  7 active torsions:
REMARK  status: ('A' for Active; 'I' for Inactive)
REMARK    1  A    between atoms: C_4  and  C_5 
REMARK    2  A    between atoms: C_5  and  O_6 
REMARK    3  A    between atoms: C_5  and  C_7 
REMARK    4  A    between atoms: C_7  and  N_8 
REMARK       I    between atoms: N_8  and  C_9 
REMARK    5  A    between atoms: N_8  and  C_20 
REMARK    6  A    between atoms: C_9  and  C_10 
REMARK    7  A    between atoms: C_14  and  C_15 
ROOT
HETATM    1  N   UNL     1      -5.850  -0.881 -33.585  1.00  0.00    -0.339 N 
HETATM    2  C   UNL     1      -6.610   0.015 -34.373  1.00  0.00     0.274 C 
HETATM    3  O   UNL     1      -6.988  -0.307 -35.503  1.00  0.00    -0.266 OA
ENDROOT
BRANCH   1   4
HETATM    4  C   UNL     1      -5.464  -0.604 -32.181  1.00  0.00     0.163 C 
BRANCH   4   5
HETATM    5  C   UNL     1      -4.086   0.077 -32.009  1.00  0.00     0.169 C 
BRANCH   5   6
HETATM    6  C   UNL     1      -4.240   1.478 -31.446  1.00  0.00    -0.028 A 
HETATM    7  C   UNL     1      -3.365   2.499 -31.847  1.00  0.00     0.010 A 
HETATM    8  C   UNL     1      -3.514   3.797 -31.356  1.00  0.00     0.001 A 
HETATM    9  C   UNL     1      -4.539   4.092 -30.459  1.00  0.00     0.000 A 
HETATM   10  C   UNL     1      -5.414   3.088 -30.050  1.00  0.00     0.001 A 
HETATM   11  C   UNL     1      -5.267   1.791 -30.541  1.00  0.00     0.010 A 
ENDBRANCH   5   6
BRANCH   5  12
HETATM   12  O   UNL     1      -3.273  -0.665 -31.093  1.00  0.00    -0.389 OA
HETATM   13  H   UNL     1      -2.564  -0.060 -30.817  1.00  0.00     0.210 HD
ENDBRANCH   5  12
ENDBRANCH   4   5
ENDBRANCH   1   4
BRANCH   1  14
HETATM   14  C   UNL     1      -5.499  -2.177 -34.220  1.00  0.00     0.087 C 
HETATM   15  C   UNL     1      -6.658  -3.168 -34.424  1.00  0.00     0.025 C 
HETATM   16  C   UNL     1      -6.202  -4.418 -35.175  1.00  0.00     0.002 C 
HETATM   17  C   UNL     1      -5.029  -5.096 -34.474  1.00  0.00     0.000 C 
HETATM   18  C   UNL     1      -3.873  -4.126 -34.251  1.00  0.00     0.002 C 
HETATM   19  C   UNL     1      -4.320  -2.868 -33.507  1.00  0.00     0.025 C 
ENDBRANCH   1  14
BRANCH   2  20
HETATM   20  C   UNL     1      -7.015   1.339 -33.846  1.00  0.00     0.146 A 
HETATM   21  N   UNL     1      -7.909   1.546 -32.858  1.00  0.00    -0.169 NA
HETATM   22  N   UNL     1      -7.958   2.883 -32.724  1.00  0.00    -0.281 N 
HETATM   23  H   UNL     1      -8.593   3.280 -32.040  1.00  0.00     0.189 HD
HETATM   24  C   UNL     1      -7.117   3.548 -33.562  1.00  0.00     0.034 A 
HETATM   25  C   UNL     1      -6.466   2.581 -34.283  1.00  0.00     0.066 A 
BRANCH  24  26
HETATM   26  C   UNL     1      -6.925   5.040 -33.698  1.00  0.00     0.037 A 
HETATM   27  C   UNL     1      -6.507   5.828 -32.475  1.00  0.00     0.011 A 
HETATM   28  C   UNL     1      -5.530   5.616 -33.579  1.00  0.00     0.011 A 
ENDBRANCH  24  26
ENDBRANCH   2  20
TORSDOF 7
ENDMDL
MODEL 7
REMARK VINA RESULT:      -7.7     15.531     18.318
REMARK  7 active torsions:
REMARK  status: ('A' for Active; 'I' for Inactive)
REMARK    1  A    between atoms: C_4  and  C_5 
REMARK    2  A    between atoms: C_5  and  O_6 
REMARK    3  A    between atoms: C_5  and  C_7 
REMARK    4  A    between atoms: C_7  and  N_8 
REMARK       I    between atoms: N_8  and  C_9 
REMARK    5  A    between atoms: N_8  and  C_20 
REMARK    6  A    between atoms: C_9  and  C_10 
REMARK    7  A    between atoms: C_14  and  C_15 
ROOT
HETATM    1  N   UNL     1      -3.511 -13.811 -39.355  1.00  0.00    -0.339 N 
HETATM    2  C   UNL     1      -4.318 -12.738 -38.909  1.00  0.00     0.274 C 
HETATM    3  O   UNL     1      -3.896 -11.945 -38.063  1.00  0.00    -0.266 OA
ENDROOT
BRANCH   1   4
HETATM    4  C   UNL     1      -3.910 -14.730 -40.449  1.00  0.00     0.163 C 
BRANCH   4   5
HETATM    5  C   UNL     1      -3.378 -14.343 -41.847  1.00  0.00     0.169 C 
BRANCH   5   6
HETATM    6  C   UNL     1      -2.822 -15.555 -42.571  1.00  0.00    -0.028 A 
HETATM    7  C   UNL     1      -1.993 -16.461 -41.893  1.00  0.00     0.010 A 
HETATM    8  C   UNL     1      -1.497 -17.594 -42.542  1.00  0.00     0.001 A 
HETATM    9  C   UNL     1      -1.826 -17.837 -43.874  1.00  0.00     0.000 A 
HETATM   10  C   UNL     1      -2.647 -16.945 -44.561  1.00  0.00     0.001 A 
HETATM   11  C   UNL     1      -3.143 -15.813 -43.913  1.00  0.00     0.010 A 
ENDBRANCH   5   6
BRANCH   5  12
HETATM   12  O   UNL     1      -4.436 -13.811 -42.655  1.00  0.00    -0.389 OA
HETATM   13  H   UNL     1      -4.009 -13.216 -43.293  1.00  0.00     0.210 HD
ENDBRANCH   5  12
ENDBRANCH   4   5
ENDBRANCH   1   4
BRANCH   1  14
HETATM   14  C   UNL     1      -2.182 -13.946 -38.706  1.00  0.00     0.087 C 
HETATM   15  C   UNL     1      -0.959 -13.803 -39.630  1.00  0.00     0.025 C 
HETATM   16  C   UNL     1       0.348 -13.857 -38.841  1.00  0.00     0.002 C 
HETATM   17  C   UNL     1       0.447 -15.130 -38.007  1.00  0.00     0.000 C 
HETATM   18  C   UNL     1      -0.762 -15.298 -37.093  1.00  0.00     0.002 C 
HETATM   19  C   UNL     1      -2.077 -15.237 -37.871  1.00  0.00     0.025 C 
ENDBRANCH   1  14
BRANCH   2  20
HETATM   20  C   UNL     1      -5.665 -12.507 -39.481  1.00  0.00     0.146 A 
HETATM   21  N   UNL     1      -5.918 -12.022 -40.714  1.00  0.00    -0.169 NA
HETATM   22  N   UNL     1      -7.259 -11.982 -40.790  1.00  0.00    -0.281 N 
HETATM   23  H   UNL     1      -7.687 -11.623 -41.637  1.00  0.00     0.189 HD
HETATM   24  C   UNL     1      -7.885 -12.444 -39.674  1.00  0.00     0.034 A 
HETATM   25  C   UNL     1      -6.887 -12.823 -38.815  1.00  0.00     0.066 A 
BRANCH  24  26
HETATM   26  C   UNL     1      -9.370 -12.527 -39.404  1.00  0.00     0.037 A 
HETATM   27  C   UNL     1     -10.315 -11.807 -40.343  1.00  0.00     0.011 A 
HETATM   28  C   UNL     1     -10.250 -13.296 -40.366  1.00  0.00     0.011 A 
ENDBRANCH  24  26
ENDBRANCH   2  20
TORSDOF 7
ENDMDL
MODEL 8
REMARK VINA RESULT:      -7.6      2.405      6.447
REMARK  7 active torsions:
REMARK  status: ('A' for Active; 'I' for Inactive)
REMARK    1  A    between atoms: C_4  and  C_5 
REMARK    2  A    between atoms: C_5  and  O_6 
REMARK    3  A    between atoms: C_5  and  C_7 
REMARK    4  A    between atoms: C_7  and  N_8 
REMARK       I    between atoms: N_8  and  C_9 
REMARK    5  A    between atoms: N_8  and  C_20 
REMARK    6  A    between atoms: C_9  and  C_10 
REMARK    7  A    between atoms: C_14  and  C_15 
ROOT
HETATM    1  N   UNL     1      -7.344   1.489 -33.099  1.00  0.00    -0.339 N 
HETATM    2  C   UNL     1      -8.490   2.232 -32.729  1.00  0.00     0.274 C 
HETATM    3  O   UNL     1      -8.496   2.903 -31.694  1.00  0.00    -0.266 OA
ENDROOT
BRANCH   1   4
HETATM    4  C   UNL     1      -7.229   0.755 -34.383  1.00  0.00     0.163 C 
BRANCH   4   5
HETATM    5  C   UNL     1      -7.794  -0.683 -34.360  1.00  0.00     0.169 C 
BRANCH   5   6
HETATM    6  C   UNL     1      -6.675  -1.707 -34.386  1.00  0.00    -0.028 A 
HETATM    7  C   UNL     1      -6.947  -3.042 -34.721  1.00  0.00     0.010 A 
HETATM    8  C   UNL     1      -5.920  -3.986 -34.773  1.00  0.00     0.001 A 
HETATM    9  C   UNL     1      -4.608  -3.608 -34.494  1.00  0.00     0.000 A 
HETATM   10  C   UNL     1      -4.322  -2.287 -34.159  1.00  0.00     0.001 A 
HETATM   11  C   UNL     1      -5.348  -1.343 -34.106  1.00  0.00     0.010 A 
ENDBRANCH   5   6
BRANCH   5  12
HETATM   12  O   UNL     1      -8.549  -0.905 -33.163  1.00  0.00    -0.389 OA
HETATM   13  H   UNL     1      -9.121  -0.126 -33.062  1.00  0.00     0.210 HD
ENDBRANCH   5  12
ENDBRANCH   4   5
ENDBRANCH   1   4
BRANCH   1  14
HETATM   14  C   UNL     1      -6.203   1.527 -32.149  1.00  0.00     0.087 C 
HETATM   15  C   UNL     1      -4.814   1.760 -32.767  1.00  0.00     0.025 C 
HETATM   16  C   UNL     1      -3.735   1.882 -31.692  1.00  0.00     0.002 C 
HETATM   17  C   UNL     1      -3.720   0.665 -30.773  1.00  0.00     0.000 C 
HETATM   18  C   UNL     1      -5.092   0.408 -30.159  1.00  0.00     0.002 C 
HETATM   19  C   UNL     1      -6.180   0.292 -31.226  1.00  0.00     0.025 C 
ENDBRANCH   1  14
BRANCH   2  20
HETATM   20  C   UNL     1      -9.691   2.264 -33.597  1.00  0.00     0.146 A 
HETATM   21  N   UNL     1      -9.858   3.066 -34.669  1.00  0.00    -0.169 NA
HETATM   22  N   UNL     1     -11.081   2.753 -35.133  1.00  0.00    -0.281 N 
HETATM   23  H   UNL     1     -11.437   3.255 -35.940  1.00  0.00     0.189 HD
HETATM   24  C   UNL     1     -11.700   1.769 -34.427  1.00  0.00     0.034 A 
HETATM   25  C   UNL     1     -10.818   1.404 -33.443  1.00  0.00     0.066 A 
BRANCH  24  26
HETATM   26  C   UNL     1     -13.074   1.184 -34.652  1.00  0.00     0.037 A 
HETATM   27  C   UNL     1     -13.479  -0.036 -33.851  1.00  0.00     0.011 A 
HETATM   28  C   UNL     1     -14.105   1.281 -33.547  1.00  0.00     0.011 A 
ENDBRANCH  24  26
ENDBRANCH   2  20
TORSDOF 7
ENDMDL
MODEL 9
REMARK VINA RESULT:      -7.5     15.389     16.538
REMARK  7 active torsions:
REMARK  status: ('A' for Active; 'I' for Inactive)
REMARK    1  A    between atoms: C_4  and  C_5 
REMARK    2  A    between atoms: C_5  and  O_6 
REMARK    3  A    between atoms: C_5  and  C_7 
REMARK    4  A    between atoms: C_7  and  N_8 
REMARK       I    between atoms: N_8  and  C_9 
REMARK    5  A    between atoms: N_8  and  C_20 
REMARK    6  A    between atoms: C_9  and  C_10 
REMARK    7  A    between atoms: C_14  and  C_15 
ROOT
HETATM    1  N   UNL     1      -6.274 -13.516 -39.065  1.00  0.00    -0.339 N 
HETATM    2  C   UNL     1      -5.264 -12.735 -39.676  1.00  0.00     0.274 C 
HETATM    3  O   UNL     1      -5.529 -12.007 -40.636  1.00  0.00    -0.266 OA
ENDROOT
BRANCH   1   4
HETATM    4  C   UNL     1      -6.051 -14.322 -37.840  1.00  0.00     0.163 C 
BRANCH   4   5
HETATM    5  C   UNL     1      -6.408 -13.605 -36.518  1.00  0.00     0.169 C 
BRANCH   5   6
HETATM    6  C   UNL     1      -6.825 -14.603 -35.455  1.00  0.00    -0.028 A 
HETATM    7  C   UNL     1      -7.091 -15.936 -35.804  1.00  0.00     0.010 A 
HETATM    8  C   UNL     1      -7.449 -16.869 -34.829  1.00  0.00     0.001 A 
HETATM    9  C   UNL     1      -7.544 -16.483 -33.494  1.00  0.00     0.000 A 
HETATM   10  C   UNL     1      -7.285 -15.164 -33.132  1.00  0.00     0.001 A 
HETATM   11  C   UNL     1      -6.926 -14.230 -34.105  1.00  0.00     0.010 A 
ENDBRANCH   5   6
BRANCH   5  12
HETATM   12  O   UNL     1      -5.271 -12.893 -36.014  1.00  0.00    -0.389 OA
HETATM   13  H   UNL     1      -4.606 -13.570 -35.805  1.00  0.00     0.210 HD
ENDBRANCH   5  12
ENDBRANCH   4   5
ENDBRANCH   1   4
BRANCH   1  14
HETATM   14  C   UNL     1      -7.622 -13.445 -39.684  1.00  0.00     0.087 C 
HETATM   15  C   UNL     1      -8.531 -12.302 -39.197  1.00  0.00     0.025 C 
HETATM   16  C   UNL     1      -9.848 -12.264 -39.972  1.00  0.00     0.002 C 
HETATM   17  C   UNL     1     -10.578 -13.601 -39.903  1.00  0.00     0.000 C 
HETATM   18  C   UNL     1      -9.689 -14.750 -40.369  1.00  0.00     0.002 C 
HETATM   19  C   UNL     1      -8.366 -14.793 -39.605  1.00  0.00     0.025 C 
ENDBRANCH   1  14
BRANCH   2  20
HETATM   20  C   UNL     1      -3.880 -12.731 -39.148  1.00  0.00     0.146 A 
HETATM   21  N   UNL     1      -3.419 -11.923 -38.172  1.00  0.00    -0.169 NA
HETATM   22  N   UNL     1      -2.127 -12.269 -38.033  1.00  0.00    -0.281 N 
HETATM   23  H   UNL     1      -1.560 -11.769 -37.356  1.00  0.00     0.189 HD
HETATM   24  C   UNL     1      -1.740 -13.281 -38.855  1.00  0.00     0.034 A 
HETATM   25  C   UNL     1      -2.855 -13.630 -39.570  1.00  0.00     0.066 A 
BRANCH  24  26
HETATM   26  C   UNL     1      -0.370 -13.908 -38.981  1.00  0.00     0.037 A 
HETATM   27  C   UNL     1       0.038 -14.958 -37.970  1.00  0.00     0.011 A 
HETATM   28  C   UNL     1      -0.263 -15.367 -39.371  1.00  0.00     0.011 A 
ENDBRANCH  24  26
ENDBRANCH   2  20
TORSDOF 7
ENDMDL
MODEL 10
REMARK VINA RESULT:      -7.5      2.307      6.761
REMARK  7 active torsions:
REMARK  status: ('A' for Active; 'I' for Inactive)
REMARK    1  A    between atoms: C_4  and  C_5 
REMARK    2  A    between atoms: C_5  and  O_6 
REMARK    3  A    between atoms: C_5  and  C_7 
REMARK    4  A    between atoms: C_7  and  N_8 
REMARK       I    between atoms: N_8  and  C_9 
REMARK    5  A    between atoms: N_8  and  C_20 
REMARK    6  A    between atoms: C_9  and  C_10 
REMARK    7  A    between atoms: C_14  and  C_15 
ROOT
HETATM    1  N   UNL     1      -8.055   3.093 -32.772  1.00  0.00    -0.339 N 
HETATM    2  C   UNL     1      -9.179   3.784 -33.284  1.00  0.00     0.274 C 
HETATM    3  O   UNL     1      -9.047   4.887 -33.821  1.00  0.00    -0.266 OA
ENDROOT
BRANCH   1   4
HETATM    4  C   UNL     1      -8.128   1.719 -32.219  1.00  0.00     0.163 C 
BRANCH   4   5
HETATM    5  C   UNL     1      -8.356   0.609 -33.270  1.00  0.00     0.169 C 
BRANCH   5   6
HETATM    6  C   UNL     1      -7.114  -0.247 -33.435  1.00  0.00    -0.028 A 
HETATM    7  C   UNL     1      -7.050  -1.207 -34.456  1.00  0.00     0.010 A 
HETATM    8  C   UNL     1      -5.901  -1.981 -34.634  1.00  0.00     0.001 A 
HETATM    9  C   UNL     1      -4.802  -1.802 -33.796  1.00  0.00     0.000 A 
HETATM   10  C   UNL     1      -4.851  -0.854 -32.778  1.00  0.00     0.001 A 
HETATM   11  C   UNL     1      -5.998  -0.080 -32.599  1.00  0.00     0.010 A 
ENDBRANCH   5   6
BRANCH   5  12
HETATM   12  O   UNL     1      -9.420  -0.258 -32.857  1.00  0.00    -0.389 OA
HETATM   13  H   UNL     1      -9.051  -1.157 -32.874  1.00  0.00     0.210 HD
ENDBRANCH   5  12
ENDBRANCH   4   5
ENDBRANCH   1   4
BRANCH   1  14
HETATM   14  C   UNL     1      -6.752   3.797 -32.871  1.00  0.00     0.087 C 
HETATM   15  C   UNL     1      -6.004   3.654 -34.208  1.00  0.00     0.025 C 
HETATM   16  C   UNL     1      -4.731   4.499 -34.232  1.00  0.00     0.002 C 
HETATM   17  C   UNL     1      -3.813   4.164 -33.062  1.00  0.00     0.000 C 
HETATM   18  C   UNL     1      -4.539   4.287 -31.726  1.00  0.00     0.002 C 
HETATM   19  C   UNL     1      -5.818   3.451 -31.694  1.00  0.00     0.025 C 
ENDBRANCH   1  14
BRANCH   2  20
HETATM   20  C   UNL     1     -10.532   3.183 -33.235  1.00  0.00     0.146 A 
HETATM   21  N   UNL     1     -11.415   3.326 -32.226  1.00  0.00    -0.169 NA
HETATM   22  N   UNL     1     -12.486   2.612 -32.613  1.00  0.00    -0.281 N 
HETATM   23  H   UNL     1     -13.284   2.556 -31.989  1.00  0.00     0.189 HD
HETATM   24  C   UNL     1     -12.347   2.036 -33.838  1.00  0.00     0.034 A 
HETATM   25  C   UNL     1     -11.107   2.409 -34.287  1.00  0.00     0.066 A 
BRANCH  24  26
HETATM   26  C   UNL     1     -13.333   1.158 -34.573  1.00  0.00     0.037 A 
HETATM   27  C   UNL     1     -13.783  -0.128 -33.914  1.00  0.00     0.011 A 
HETATM   28  C   UNL     1     -14.736   1.011 -34.026  1.00  0.00     0.011 A 
ENDBRANCH  24  26
ENDBRANCH   2  20
TORSDOF 7
ENDMDL
