MODEL 1
REMARK VINA RESULT:      -8.3      0.000      0.000
REMARK  7 active torsions:
REMARK  status: ('A' for Active; 'I' for Inactive)
REMARK    1  A    between atoms: C_2  and  C_3 
REMARK    2  A    between atoms: C_5  and  N_6 
REMARK       I    between atoms: N_6  and  C_7 
REMARK    3  A    between atoms: C_7  and  C_8 
REMARK    4  A    between atoms: C_8  and  S_9 
REMARK    5  A    between atoms: S_9  and  C_10 
REMARK    6  A    between atoms: C_12  and  C_13 
REMARK    7  A    between atoms: C_14  and  O_15 
ROOT
HETATM    1  C   UNL     1      -5.991   3.054 -32.021  1.00  0.00     0.185 A 
HETATM    2  N   UNL     1      -7.124   2.407 -31.922  1.00  0.00    -0.201 NA
HETATM    3  C   UNL     1      -7.731   2.655 -33.146  1.00  0.00     0.184 A 
HETATM    4  N   UNL     1      -6.986   3.396 -33.984  1.00  0.00    -0.152 NA
HETATM    5  N   UNL     1      -5.892   3.639 -33.242  1.00  0.00    -0.253 N 
HETATM    6  H   UNL     1      -5.139   4.207 -33.614  1.00  0.00     0.191 HD
ENDROOT
BRANCH   1   7
HETATM    7  S   UNL     1      -4.750   3.218 -30.845  1.00  0.00    -0.081 SA
BRANCH   7   8
HETATM    8  C   UNL     1      -3.560   1.971 -31.420  1.00  0.00     0.185 C 
BRANCH   8   9
HETATM    9  C   UNL     1      -4.241   0.632 -31.686  1.00  0.00     0.231 C 
HETATM   10  N   UNL     1      -4.440   0.385 -33.038  1.00  0.00    -0.327 N 
HETATM   11  H   UNL     1      -4.129   1.095 -33.691  1.00  0.00     0.169 HD
HETATM   12  O   UNL     1      -4.547  -0.122 -30.766  1.00  0.00    -0.272 OA
BRANCH  10  13
HETATM   13  C   UNL     1      -5.074  -0.730 -33.628  1.00  0.00     0.035 A 
HETATM   14  C   UNL     1      -4.535  -2.019 -33.650  1.00  0.00     0.044 A 
HETATM   15  C   UNL     1      -5.237  -3.074 -34.251  1.00  0.00     0.011 A 
HETATM   16  C   UNL     1      -6.487  -2.831 -34.833  1.00  0.00     0.015 A 
HETATM   17  C   UNL     1      -7.031  -1.550 -34.815  1.00  0.00     0.003 A 
HETATM   18  C   UNL     1      -6.326  -0.506 -34.216  1.00  0.00     0.029 A 
BRANCH  15  19
HETATM   19  C   UNL     1      -4.698  -4.466 -34.292  1.00  0.00     0.155 C 
HETATM   20  C   UNL     1      -3.396  -4.770 -33.595  1.00  0.00     0.096 C 
HETATM   21  O   UNL     1      -5.317  -5.345 -34.890  1.00  0.00    -0.293 OA
ENDBRANCH  15  19
ENDBRANCH  10  13
ENDBRANCH   8   9
ENDBRANCH   7   8
ENDBRANCH   1   7
BRANCH   3  22
HETATM   22  C   UNL     1      -9.069   2.150 -33.447  1.00  0.00     0.048 A 
HETATM   23  C   UNL     1      -9.540   0.944 -32.893  1.00  0.00     0.080 A 
HETATM   24  C   UNL     1     -10.825   0.479 -33.164  1.00  0.00     0.039 A 
HETATM   25  C   UNL     1     -11.664   1.210 -34.003  1.00  0.00     0.022 A 
HETATM   26  C   UNL     1     -11.208   2.401 -34.566  1.00  0.00     0.012 A 
HETATM   27 BR   UNL     1     -12.344   3.388 -35.712  1.00  0.00    -0.051 Br
HETATM   28  C   UNL     1      -9.923   2.873 -34.294  1.00  0.00     0.037 A 
BRANCH  23  29
HETATM   29  O   UNL     1      -8.774   0.159 -32.067  1.00  0.00    -0.360 OA
HETATM   30  H   UNL     1      -9.324  -0.013 -31.274  1.00  0.00     0.217 HD
ENDBRANCH  23  29
ENDBRANCH   3  22
TORSDOF 7
ENDMDL
MODEL 2
REMARK VINA RESULT:      -8.2      3.791      6.989
REMARK  7 active torsions:
REMARK  status: ('A' for Active; 'I' for Inactive)
REMARK    1  A    between atoms: C_2  and  C_3 
REMARK    2  A    between atoms: C_5  and  N_6 
REMARK       I    between atoms: N_6  and  C_7 
REMARK    3  A    between atoms: C_7  and  C_8 
REMARK    4  A    between atoms: C_8  and  S_9 
REMARK    5  A    between atoms: S_9  and  C_10 
REMARK    6  A    between atoms: C_12  and  C_13 
REMARK    7  A    between atoms: C_14  and  O_15 
ROOT
HETATM    1  C   UNL     1      -7.616   2.498 -31.541  1.00  0.00     0.185 A 
HETATM    2  N   UNL     1      -6.652   1.977 -32.256  1.00  0.00    -0.201 NA
HETATM    3  C   UNL     1      -6.977   0.626 -32.280  1.00  0.00     0.184 A 
HETATM    4  N   UNL     1      -8.120   0.330 -31.637  1.00  0.00    -0.152 NA
HETATM    5  N   UNL     1      -8.499   1.534 -31.174  1.00  0.00    -0.253 N 
HETATM    6  H   UNL     1      -9.341   1.625 -30.618  1.00  0.00     0.191 HD
ENDROOT
BRANCH   1   7
HETATM    7  S   UNL     1      -7.827   4.135 -31.067  1.00  0.00    -0.081 SA
BRANCH   7   8
HETATM    8  C   UNL     1      -7.632   4.986 -32.661  1.00  0.00     0.185 C 
BRANCH   8   9
HETATM    9  C   UNL     1      -6.251   5.621 -32.787  1.00  0.00     0.231 C 
HETATM   10  N   UNL     1      -5.270   4.714 -33.165  1.00  0.00    -0.327 N 
HETATM   11  H   UNL     1      -5.556   3.752 -33.308  1.00  0.00     0.169 HD
HETATM   12  O   UNL     1      -6.079   6.820 -32.583  1.00  0.00    -0.272 OA
BRANCH  10  13
HETATM   13  C   UNL     1      -3.889   4.955 -33.333  1.00  0.00     0.035 A 
HETATM   14  C   UNL     1      -2.975   5.051 -32.280  1.00  0.00     0.044 A 
HETATM   15  C   UNL     1      -1.616   5.283 -32.536  1.00  0.00     0.011 A 
HETATM   16  C   UNL     1      -1.174   5.418 -33.858  1.00  0.00     0.015 A 
HETATM   17  C   UNL     1      -2.077   5.323 -34.912  1.00  0.00     0.003 A 
HETATM   18  C   UNL     1      -3.428   5.093 -34.648  1.00  0.00     0.029 A 
BRANCH  15  19
HETATM   19  C   UNL     1      -0.607   5.389 -31.439  1.00  0.00     0.155 C 
HETATM   20  C   UNL     1       0.221   6.643 -31.321  1.00  0.00     0.096 C 
HETATM   21  O   UNL     1      -0.464   4.458 -30.648  1.00  0.00    -0.293 OA
ENDBRANCH  15  19
ENDBRANCH  10  13
ENDBRANCH   8   9
ENDBRANCH   7   8
ENDBRANCH   1   7
BRANCH   3  22
HETATM   22  C   UNL     1      -6.118  -0.351 -32.942  1.00  0.00     0.048 A 
HETATM   23  C   UNL     1      -4.717  -0.203 -32.962  1.00  0.00     0.080 A 
HETATM   24  C   UNL     1      -3.900  -1.151 -33.575  1.00  0.00     0.039 A 
HETATM   25  C   UNL     1      -4.471  -2.265 -34.188  1.00  0.00     0.022 A 
HETATM   26  C   UNL     1      -5.855  -2.420 -34.185  1.00  0.00     0.012 A 
HETATM   27 BR   UNL     1      -6.630  -3.927 -35.025  1.00  0.00    -0.051 Br
HETATM   28  C   UNL     1      -6.678  -1.475 -33.568  1.00  0.00     0.037 A 
BRANCH  23  29
HETATM   29  O   UNL     1      -4.077   0.869 -32.392  1.00  0.00    -0.360 OA
HETATM   30  H   UNL     1      -3.740   1.410 -33.138  1.00  0.00     0.217 HD
ENDBRANCH  23  29
ENDBRANCH   3  22
TORSDOF 7
ENDMDL
MODEL 3
REMARK VINA RESULT:      -8.2      4.139      7.888
REMARK  7 active torsions:
REMARK  status: ('A' for Active; 'I' for Inactive)
REMARK    1  A    between atoms: C_2  and  C_3 
REMARK    2  A    between atoms: C_5  and  N_6 
REMARK       I    between atoms: N_6  and  C_7 
REMARK    3  A    between atoms: C_7  and  C_8 
REMARK    4  A    between atoms: C_8  and  S_9 
REMARK    5  A    between atoms: S_9  and  C_10 
REMARK    6  A    between atoms: C_12  and  C_13 
REMARK    7  A    between atoms: C_14  and  O_15 
ROOT
HETATM    1  C   UNL     1      -5.589   1.444 -32.704  1.00  0.00     0.185 A 
HETATM    2  N   UNL     1      -5.849   0.200 -33.016  1.00  0.00    -0.201 NA
HETATM    3  C   UNL     1      -4.618  -0.424 -32.860  1.00  0.00     0.184 A 
HETATM    4  N   UNL     1      -3.643   0.396 -32.431  1.00  0.00    -0.152 NA
HETATM    5  N   UNL     1      -4.286   1.573 -32.347  1.00  0.00    -0.253 N 
HETATM    6  H   UNL     1      -3.787   2.407 -32.058  1.00  0.00     0.191 HD
ENDROOT
BRANCH   1   7
HETATM    7  S   UNL     1      -6.652   2.793 -32.720  1.00  0.00    -0.081 SA
BRANCH   7   8
HETATM    8  C   UNL     1      -5.680   3.989 -33.683  1.00  0.00     0.185 C 
BRANCH   8   9
HETATM    9  C   UNL     1      -4.768   4.818 -32.784  1.00  0.00     0.231 C 
HETATM   10  N   UNL     1      -3.487   4.966 -33.299  1.00  0.00    -0.327 N 
HETATM   11  H   UNL     1      -3.289   4.519 -34.188  1.00  0.00     0.169 HD
HETATM   12  O   UNL     1      -5.177   5.299 -31.730  1.00  0.00    -0.272 OA
BRANCH  10  13
HETATM   13  C   UNL     1      -2.390   5.632 -32.710  1.00  0.00     0.035 A 
HETATM   14  C   UNL     1      -1.439   5.010 -31.897  1.00  0.00     0.044 A 
HETATM   15  C   UNL     1      -0.373   5.747 -31.359  1.00  0.00     0.011 A 
HETATM   16  C   UNL     1      -0.263   7.113 -31.642  1.00  0.00     0.015 A 
HETATM   17  C   UNL     1      -1.206   7.740 -32.451  1.00  0.00     0.003 A 
HETATM   18  C   UNL     1      -2.264   7.001 -32.981  1.00  0.00     0.029 A 
BRANCH  15  19
HETATM   19  C   UNL     1       0.666   5.119 -30.489  1.00  0.00     0.155 C 
HETATM   20  C   UNL     1       0.680   5.437 -29.016  1.00  0.00     0.096 C 
HETATM   21  O   UNL     1       1.495   4.354 -30.981  1.00  0.00    -0.293 OA
ENDBRANCH  15  19
ENDBRANCH  10  13
ENDBRANCH   8   9
ENDBRANCH   7   8
ENDBRANCH   1   7
BRANCH   3  22
HETATM   22  C   UNL     1      -4.441  -1.842 -33.162  1.00  0.00     0.048 A 
HETATM   23  C   UNL     1      -3.452  -2.612 -32.520  1.00  0.00     0.080 A 
HETATM   24  C   UNL     1      -3.303  -3.970 -32.794  1.00  0.00     0.039 A 
HETATM   25  C   UNL     1      -4.139  -4.584 -33.725  1.00  0.00     0.022 A 
HETATM   26  C   UNL     1      -5.116  -3.833 -34.375  1.00  0.00     0.012 A 
HETATM   27 BR   UNL     1      -6.245  -4.666 -35.645  1.00  0.00    -0.051 Br
HETATM   28  C   UNL     1      -5.272  -2.473 -34.100  1.00  0.00     0.037 A 
BRANCH  23  29
HETATM   29  O   UNL     1      -2.581  -2.082 -31.600  1.00  0.00    -0.360 OA
HETATM   30  H   UNL     1      -1.701  -2.083 -32.031  1.00  0.00     0.217 HD
ENDBRANCH  23  29
ENDBRANCH   3  22
TORSDOF 7
ENDMDL
MODEL 4
REMARK VINA RESULT:      -8.1      3.761      5.743
REMARK  7 active torsions:
REMARK  status: ('A' for Active; 'I' for Inactive)
REMARK    1  A    between atoms: C_2  and  C_3 
REMARK    2  A    between atoms: C_5  and  N_6 
REMARK       I    between atoms: N_6  and  C_7 
REMARK    3  A    between atoms: C_7  and  C_8 
REMARK    4  A    between atoms: C_8  and  S_9 
REMARK    5  A    between atoms: S_9  and  C_10 
REMARK    6  A    between atoms: C_12  and  C_13 
REMARK    7  A    between atoms: C_14  and  O_15 
ROOT
HETATM    1  C   UNL     1      -7.298   4.034 -32.309  1.00  0.00     0.185 A 
HETATM    2  N   UNL     1      -6.007   4.025 -32.094  1.00  0.00    -0.201 NA
HETATM    3  C   UNL     1      -5.507   4.737 -33.178  1.00  0.00     0.184 A 
HETATM    4  N   UNL     1      -6.456   5.200 -34.009  1.00  0.00    -0.152 NA
HETATM    5  N   UNL     1      -7.580   4.735 -33.437  1.00  0.00    -0.253 N 
HETATM    6  H   UNL     1      -8.482   4.915 -33.863  1.00  0.00     0.191 HD
ENDROOT
BRANCH   1   7
HETATM    7  S   UNL     1      -8.539   3.295 -31.380  1.00  0.00    -0.081 SA
BRANCH   7   8
HETATM    8  C   UNL     1      -9.323   2.235 -32.630  1.00  0.00     0.185 C 
BRANCH   8   9
HETATM    9  C   UNL     1      -8.287   1.427 -33.404  1.00  0.00     0.231 C 
HETATM   10  N   UNL     1      -7.788   0.351 -32.682  1.00  0.00    -0.327 N 
HETATM   11  H   UNL     1      -8.145   0.216 -31.743  1.00  0.00     0.169 HD
HETATM   12  O   UNL     1      -7.973   1.727 -34.553  1.00  0.00    -0.272 OA
BRANCH  10  13
HETATM   13  C   UNL     1      -6.795  -0.571 -33.079  1.00  0.00     0.035 A 
HETATM   14  C   UNL     1      -5.595  -0.775 -32.393  1.00  0.00     0.044 A 
HETATM   15  C   UNL     1      -4.665  -1.720 -32.852  1.00  0.00     0.011 A 
HETATM   16  C   UNL     1      -4.943  -2.461 -34.006  1.00  0.00     0.015 A 
HETATM   17  C   UNL     1      -6.136  -2.263 -34.696  1.00  0.00     0.003 A 
HETATM   18  C   UNL     1      -7.055  -1.321 -34.233  1.00  0.00     0.029 A 
BRANCH  15  19
HETATM   19  C   UNL     1      -3.373  -1.971 -32.144  1.00  0.00     0.155 C 
HETATM   20  C   UNL     1      -2.500  -0.801 -31.772  1.00  0.00     0.096 C 
HETATM   21  O   UNL     1      -3.038  -3.124 -31.875  1.00  0.00    -0.293 OA
ENDBRANCH  15  19
ENDBRANCH  10  13
ENDBRANCH   8   9
ENDBRANCH   7   8
ENDBRANCH   1   7
BRANCH   3  22
HETATM   22  C   UNL     1      -4.071   4.926 -33.365  1.00  0.00     0.048 A 
HETATM   23  C   UNL     1      -3.510   5.060 -34.649  1.00  0.00     0.080 A 
HETATM   24  C   UNL     1      -2.142   5.265 -34.822  1.00  0.00     0.039 A 
HETATM   25  C   UNL     1      -1.306   5.332 -33.708  1.00  0.00     0.022 A 
HETATM   26  C   UNL     1      -1.846   5.192 -32.431  1.00  0.00     0.012 A 
HETATM   27 BR   UNL     1      -0.710   5.274 -30.921  1.00  0.00    -0.051 Br
HETATM   28  C   UNL     1      -3.216   4.992 -32.254  1.00  0.00     0.037 A 
BRANCH  23  29
HETATM   29  O   UNL     1      -4.260   4.995 -35.797  1.00  0.00    -0.360 OA
HETATM   30  H   UNL     1      -3.618   4.914 -36.534  1.00  0.00     0.217 HD
ENDBRANCH  23  29
ENDBRANCH   3  22
TORSDOF 7
ENDMDL
MODEL 5
REMARK VINA RESULT:      -8.1      2.814      7.060
REMARK  7 active torsions:
REMARK  status: ('A' for Active; 'I' for Inactive)
REMARK    1  A    between atoms: C_2  and  C_3 
REMARK    2  A    between atoms: C_5  and  N_6 
REMARK       I    between atoms: N_6  and  C_7 
REMARK    3  A    between atoms: C_7  and  C_8 
REMARK    4  A    between atoms: C_8  and  S_9 
REMARK    5  A    between atoms: S_9  and  C_10 
REMARK    6  A    between atoms: C_12  and  C_13 
REMARK    7  A    between atoms: C_14  and  O_15 
ROOT
HETATM    1  C   UNL     1      -5.159   1.465 -32.786  1.00  0.00     0.185 A 
HETATM    2  N   UNL     1      -5.460   0.275 -33.240  1.00  0.00    -0.201 NA
HETATM    3  C   UNL     1      -4.407  -0.507 -32.783  1.00  0.00     0.184 A 
HETATM    4  N   UNL     1      -3.510   0.165 -32.042  1.00  0.00    -0.152 NA
HETATM    5  N   UNL     1      -4.009   1.414 -32.066  1.00  0.00    -0.253 N 
HETATM    6  H   UNL     1      -3.523   2.167 -31.593  1.00  0.00     0.191 HD
ENDROOT
BRANCH   1   7
HETATM    7  S   UNL     1      -6.008   2.940 -33.014  1.00  0.00    -0.081 SA
BRANCH   7   8
HETATM    8  C   UNL     1      -7.113   2.931 -31.571  1.00  0.00     0.185 C 
BRANCH   8   9
HETATM    9  C   UNL     1      -8.573   3.077 -31.987  1.00  0.00     0.231 C 
HETATM   10  N   UNL     1      -8.914   2.271 -33.065  1.00  0.00    -0.327 N 
HETATM   11  H   UNL     1      -8.183   1.689 -33.459  1.00  0.00     0.169 HD
HETATM   12  O   UNL     1      -9.336   3.831 -31.387  1.00  0.00    -0.272 OA
BRANCH  10  13
HETATM   13  C   UNL     1     -10.159   2.190 -33.725  1.00  0.00     0.035 A 
HETATM   14  C   UNL     1     -11.131   1.223 -33.451  1.00  0.00     0.044 A 
HETATM   15  C   UNL     1     -12.348   1.220 -34.149  1.00  0.00     0.011 A 
HETATM   16  C   UNL     1     -12.588   2.194 -35.125  1.00  0.00     0.015 A 
HETATM   17  C   UNL     1     -11.626   3.160 -35.403  1.00  0.00     0.003 A 
HETATM   18  C   UNL     1     -10.418   3.156 -34.706  1.00  0.00     0.029 A 
BRANCH  15  19
HETATM   19  C   UNL     1     -13.413   0.207 -33.884  1.00  0.00     0.155 C 
HETATM   20  C   UNL     1     -14.849   0.556 -34.180  1.00  0.00     0.096 C 
HETATM   21  O   UNL     1     -13.108  -0.895 -33.429  1.00  0.00    -0.293 OA
ENDBRANCH  15  19
ENDBRANCH  10  13
ENDBRANCH   8   9
ENDBRANCH   7   8
ENDBRANCH   1   7
BRANCH   3  22
HETATM   22  C   UNL     1      -4.315  -1.927 -33.115  1.00  0.00     0.048 A 
HETATM   23  C   UNL     1      -3.374  -2.768 -32.490  1.00  0.00     0.080 A 
HETATM   24  C   UNL     1      -3.307  -4.127 -32.793  1.00  0.00     0.039 A 
HETATM   25  C   UNL     1      -4.178  -4.670 -33.736  1.00  0.00     0.022 A 
HETATM   26  C   UNL     1      -5.108  -3.848 -34.370  1.00  0.00     0.012 A 
HETATM   27 BR   UNL     1      -6.283  -4.584 -35.656  1.00  0.00    -0.051 Br
HETATM   28  C   UNL     1      -5.182  -2.487 -34.066  1.00  0.00     0.037 A 
BRANCH  23  29
HETATM   29  O   UNL     1      -2.474  -2.311 -31.560  1.00  0.00    -0.360 OA
HETATM   30  H   UNL     1      -1.708  -2.922 -31.603  1.00  0.00     0.217 HD
ENDBRANCH  23  29
ENDBRANCH   3  22
TORSDOF 7
ENDMDL
MODEL 6
REMARK VINA RESULT:      -7.9      3.750      6.838
REMARK  7 active torsions:
REMARK  status: ('A' for Active; 'I' for Inactive)
REMARK    1  A    between atoms: C_2  and  C_3 
REMARK    2  A    between atoms: C_5  and  N_6 
REMARK       I    between atoms: N_6  and  C_7 
REMARK    3  A    between atoms: C_7  and  C_8 
REMARK    4  A    between atoms: C_8  and  S_9 
REMARK    5  A    between atoms: S_9  and  C_10 
REMARK    6  A    between atoms: C_12  and  C_13 
REMARK    7  A    between atoms: C_14  and  O_15 
ROOT
HETATM    1  C   UNL     1      -9.209   1.853 -32.939  1.00  0.00     0.185 A 
HETATM    2  N   UNL     1      -8.026   1.465 -33.342  1.00  0.00    -0.201 NA
HETATM    3  C   UNL     1      -8.124   0.080 -33.304  1.00  0.00     0.184 A 
HETATM    4  N   UNL     1      -9.334  -0.370 -32.930  1.00  0.00    -0.152 NA
HETATM    5  N   UNL     1      -9.998   0.775 -32.699  1.00  0.00    -0.253 N 
HETATM    6  H   UNL     1     -10.959   0.752 -32.376  1.00  0.00     0.191 HD
ENDROOT
BRANCH   1   7
HETATM    7  S   UNL     1      -9.783   3.455 -32.702  1.00  0.00    -0.081 SA
BRANCH   7   8
HETATM    8  C   UNL     1      -8.869   4.346 -33.995  1.00  0.00     0.185 C 
BRANCH   8   9
HETATM    9  C   UNL     1      -7.579   4.951 -33.449  1.00  0.00     0.231 C 
HETATM   10  N   UNL     1      -6.481   4.115 -33.601  1.00  0.00    -0.327 N 
HETATM   11  H   UNL     1      -6.640   3.214 -34.039  1.00  0.00     0.169 HD
HETATM   12  O   UNL     1      -7.562   6.074 -32.952  1.00  0.00    -0.272 OA
BRANCH  10  13
HETATM   13  C   UNL     1      -5.155   4.344 -33.173  1.00  0.00     0.035 A 
HETATM   14  C   UNL     1      -4.157   4.903 -33.976  1.00  0.00     0.044 A 
HETATM   15  C   UNL     1      -2.865   5.104 -33.468  1.00  0.00     0.011 A 
HETATM   16  C   UNL     1      -2.576   4.741 -32.147  1.00  0.00     0.015 A 
HETATM   17  C   UNL     1      -3.565   4.183 -31.342  1.00  0.00     0.003 A 
HETATM   18  C   UNL     1      -4.847   3.986 -31.854  1.00  0.00     0.029 A 
BRANCH  15  19
HETATM   19  C   UNL     1      -1.772   5.703 -34.292  1.00  0.00     0.155 C 
HETATM   20  C   UNL     1      -1.102   6.966 -33.817  1.00  0.00     0.096 C 
HETATM   21  O   UNL     1      -1.433   5.161 -35.343  1.00  0.00    -0.293 OA
ENDBRANCH  15  19
ENDBRANCH  10  13
ENDBRANCH   8   9
ENDBRANCH   7   8
ENDBRANCH   1   7
BRANCH   3  22
HETATM   22  C   UNL     1      -6.985  -0.772 -33.635  1.00  0.00     0.048 A 
HETATM   23  C   UNL     1      -5.666  -0.386 -33.327  1.00  0.00     0.080 A 
HETATM   24  C   UNL     1      -4.584  -1.213 -33.623  1.00  0.00     0.039 A 
HETATM   25  C   UNL     1      -4.801  -2.443 -34.241  1.00  0.00     0.022 A 
HETATM   26  C   UNL     1      -6.100  -2.835 -34.559  1.00  0.00     0.012 A 
HETATM   27 BR   UNL     1      -6.393  -4.500 -35.406  1.00  0.00    -0.051 Br
HETATM   28  C   UNL     1      -7.187  -2.012 -34.261  1.00  0.00     0.037 A 
BRANCH  23  29
HETATM   29  O   UNL     1      -5.365   0.813 -32.729  1.00  0.00    -0.360 OA
HETATM   30  H   UNL     1      -4.832   0.592 -31.936  1.00  0.00     0.217 HD
ENDBRANCH  23  29
ENDBRANCH   3  22
TORSDOF 7
ENDMDL
MODEL 7
REMARK VINA RESULT:      -7.9      2.811      6.551
REMARK  7 active torsions:
REMARK  status: ('A' for Active; 'I' for Inactive)
REMARK    1  A    between atoms: C_2  and  C_3 
REMARK    2  A    between atoms: C_5  and  N_6 
REMARK       I    between atoms: N_6  and  C_7 
REMARK    3  A    between atoms: C_7  and  C_8 
REMARK    4  A    between atoms: C_8  and  S_9 
REMARK    5  A    between atoms: S_9  and  C_10 
REMARK    6  A    between atoms: C_12  and  C_13 
REMARK    7  A    between atoms: C_14  and  O_15 
ROOT
HETATM    1  C   UNL     1      -4.528   3.992 -31.299  1.00  0.00     0.185 A 
HETATM    2  N   UNL     1      -5.027   2.840 -31.669  1.00  0.00    -0.201 NA
HETATM    3  C   UNL     1      -3.906   2.021 -31.730  1.00  0.00     0.184 A 
HETATM    4  N   UNL     1      -2.764   2.634 -31.375  1.00  0.00    -0.152 NA
HETATM    5  N   UNL     1      -3.187   3.883 -31.114  1.00  0.00    -0.253 N 
HETATM    6  H   UNL     1      -2.526   4.597 -30.832  1.00  0.00     0.191 HD
ENDROOT
BRANCH   1   7
HETATM    7  S   UNL     1      -5.346   5.484 -31.067  1.00  0.00    -0.081 SA
BRANCH   7   8
HETATM    8  C   UNL     1      -6.260   5.625 -32.631  1.00  0.00     0.185 C 
BRANCH   8   9
HETATM    9  C   UNL     1      -7.606   4.911 -32.556  1.00  0.00     0.231 C 
HETATM   10  N   UNL     1      -7.638   3.736 -33.294  1.00  0.00    -0.327 N 
HETATM   11  H   UNL     1      -6.796   3.480 -33.798  1.00  0.00     0.169 HD
HETATM   12  O   UNL     1      -8.530   5.361 -31.883  1.00  0.00    -0.272 OA
BRANCH  10  13
HETATM   13  C   UNL     1      -8.730   2.858 -33.475  1.00  0.00     0.035 A 
HETATM   14  C   UNL     1      -9.864   3.163 -34.232  1.00  0.00     0.044 A 
HETATM   15  C   UNL     1     -10.900   2.227 -34.368  1.00  0.00     0.011 A 
HETATM   16  C   UNL     1     -10.794   0.980 -33.740  1.00  0.00     0.015 A 
HETATM   17  C   UNL     1      -9.668   0.670 -32.984  1.00  0.00     0.003 A 
HETATM   18  C   UNL     1      -8.642   1.606 -32.853  1.00  0.00     0.029 A 
BRANCH  15  19
HETATM   19  C   UNL     1     -12.127   2.511 -35.172  1.00  0.00     0.155 C 
HETATM   20  C   UNL     1     -12.793   3.857 -35.044  1.00  0.00     0.096 C 
HETATM   21  O   UNL     1     -12.578   1.650 -35.925  1.00  0.00    -0.293 OA
ENDBRANCH  15  19
ENDBRANCH  10  13
ENDBRANCH   8   9
ENDBRANCH   7   8
ENDBRANCH   1   7
BRANCH   3  22
HETATM   22  C   UNL     1      -4.005   0.629 -32.162  1.00  0.00     0.048 A 
HETATM   23  C   UNL     1      -3.118  -0.353 -31.682  1.00  0.00     0.080 A 
HETATM   24  C   UNL     1      -3.232  -1.685 -32.079  1.00  0.00     0.039 A 
HETATM   25  C   UNL     1      -4.234  -2.058 -32.972  1.00  0.00     0.022 A 
HETATM   26  C   UNL     1      -5.114  -1.094 -33.463  1.00  0.00     0.012 A 
HETATM   27 BR   UNL     1      -6.468  -1.600 -34.683  1.00  0.00    -0.051 Br
HETATM   28  C   UNL     1      -5.007   0.239 -33.064  1.00  0.00     0.037 A 
BRANCH  23  29
HETATM   29  O   UNL     1      -2.097  -0.068 -30.809  1.00  0.00    -0.360 OA
HETATM   30  H   UNL     1      -1.654   0.731 -31.165  1.00  0.00     0.217 HD
ENDBRANCH  23  29
ENDBRANCH   3  22
TORSDOF 7
ENDMDL
MODEL 8
REMARK VINA RESULT:      -7.8      3.963      6.060
REMARK  7 active torsions:
REMARK  status: ('A' for Active; 'I' for Inactive)
REMARK    1  A    between atoms: C_2  and  C_3 
REMARK    2  A    between atoms: C_5  and  N_6 
REMARK       I    between atoms: N_6  and  C_7 
REMARK    3  A    between atoms: C_7  and  C_8 
REMARK    4  A    between atoms: C_8  and  S_9 
REMARK    5  A    between atoms: S_9  and  C_10 
REMARK    6  A    between atoms: C_12  and  C_13 
REMARK    7  A    between atoms: C_14  and  O_15 
ROOT
HETATM    1  C   UNL     1      -7.393   5.131 -33.615  1.00  0.00     0.185 A 
HETATM    2  N   UNL     1      -6.225   4.798 -34.103  1.00  0.00    -0.201 NA
HETATM    3  C   UNL     1      -5.338   5.476 -33.277  1.00  0.00     0.184 A 
HETATM    4  N   UNL     1      -5.934   6.171 -32.292  1.00  0.00    -0.152 NA
HETATM    5  N   UNL     1      -7.235   5.938 -32.535  1.00  0.00    -0.253 N 
HETATM    6  H   UNL     1      -7.947   6.359 -31.949  1.00  0.00     0.191 HD
ENDROOT
BRANCH   1   7
HETATM    7  S   UNL     1      -8.952   4.685 -34.181  1.00  0.00    -0.081 SA
BRANCH   7   8
HETATM    8  C   UNL     1      -9.251   3.174 -33.217  1.00  0.00     0.185 C 
BRANCH   8   9
HETATM    9  C   UNL     1      -8.347   2.033 -33.674  1.00  0.00     0.231 C 
HETATM   10  N   UNL     1      -7.235   1.865 -32.861  1.00  0.00    -0.327 N 
HETATM   11  H   UNL     1      -7.133   2.497 -32.074  1.00  0.00     0.169 HD
HETATM   12  O   UNL     1      -8.627   1.351 -34.657  1.00  0.00    -0.272 OA
BRANCH  10  13
HETATM   13  C   UNL     1      -6.182   0.937 -33.018  1.00  0.00     0.035 A 
HETATM   14  C   UNL     1      -6.315  -0.302 -33.650  1.00  0.00     0.044 A 
HETATM   15  C   UNL     1      -5.212  -1.161 -33.772  1.00  0.00     0.011 A 
HETATM   16  C   UNL     1      -3.971  -0.771 -33.255  1.00  0.00     0.015 A 
HETATM   17  C   UNL     1      -3.831   0.461 -32.623  1.00  0.00     0.003 A 
HETATM   18  C   UNL     1      -4.932   1.309 -32.506  1.00  0.00     0.029 A 
BRANCH  15  19
HETATM   19  C   UNL     1      -5.312  -2.491 -34.444  1.00  0.00     0.155 C 
HETATM   20  C   UNL     1      -6.673  -3.092 -34.684  1.00  0.00     0.096 C 
HETATM   21  O   UNL     1      -4.289  -3.078 -34.793  1.00  0.00    -0.293 OA
ENDBRANCH  15  19
ENDBRANCH  10  13
ENDBRANCH   8   9
ENDBRANCH   7   8
ENDBRANCH   1   7
BRANCH   3  22
HETATM   22  C   UNL     1      -3.896   5.424 -33.504  1.00  0.00     0.048 A 
HETATM   23  C   UNL     1      -3.361   5.320 -34.802  1.00  0.00     0.080 A 
HETATM   24  C   UNL     1      -1.984   5.295 -35.016  1.00  0.00     0.039 A 
HETATM   25  C   UNL     1      -1.114   5.366 -33.930  1.00  0.00     0.022 A 
HETATM   26  C   UNL     1      -1.629   5.461 -32.639  1.00  0.00     0.012 A 
HETATM   27 BR   UNL     1      -0.447   5.549 -31.165  1.00  0.00    -0.051 Br
HETATM   28  C   UNL     1      -3.007   5.491 -32.421  1.00  0.00     0.037 A 
BRANCH  23  29
HETATM   29  O   UNL     1      -4.149   5.233 -35.924  1.00  0.00    -0.360 OA
HETATM   30  H   UNL     1      -3.674   4.635 -36.541  1.00  0.00     0.217 HD
ENDBRANCH  23  29
ENDBRANCH   3  22
TORSDOF 7
ENDMDL
MODEL 9
REMARK VINA RESULT:      -7.8      3.031      6.545
REMARK  7 active torsions:
REMARK  status: ('A' for Active; 'I' for Inactive)
REMARK    1  A    between atoms: C_2  and  C_3 
REMARK    2  A    between atoms: C_5  and  N_6 
REMARK       I    between atoms: N_6  and  C_7 
REMARK    3  A    between atoms: C_7  and  C_8 
REMARK    4  A    between atoms: C_8  and  S_9 
REMARK    5  A    between atoms: S_9  and  C_10 
REMARK    6  A    between atoms: C_12  and  C_13 
REMARK    7  A    between atoms: C_14  and  O_15 
ROOT
HETATM    1  C   UNL     1      -4.841   2.239 -31.219  1.00  0.00     0.185 A 
HETATM    2  N   UNL     1      -5.537   1.314 -31.828  1.00  0.00    -0.201 NA
HETATM    3  C   UNL     1      -4.557   0.520 -32.409  1.00  0.00     0.184 A 
HETATM    4  N   UNL     1      -3.302   0.917 -32.137  1.00  0.00    -0.152 NA
HETATM    5  N   UNL     1      -3.514   2.012 -31.386  1.00  0.00    -0.253 N 
HETATM    6  H   UNL     1      -2.729   2.552 -31.038  1.00  0.00     0.191 HD
ENDROOT
BRANCH   1   7
HETATM    7  S   UNL     1      -5.414   3.590 -30.324  1.00  0.00    -0.081 SA
BRANCH   7   8
HETATM    8  C   UNL     1      -6.658   4.260 -31.467  1.00  0.00     0.185 C 
BRANCH   8   9
HETATM    9  C   UNL     1      -7.961   3.472 -31.397  1.00  0.00     0.231 C 
HETATM   10  N   UNL     1      -8.231   2.765 -32.561  1.00  0.00    -0.327 N 
HETATM   11  H   UNL     1      -7.562   2.845 -33.318  1.00  0.00     0.169 HD
HETATM   12  O   UNL     1      -8.658   3.479 -30.384  1.00  0.00    -0.272 OA
BRANCH  10  13
HETATM   13  C   UNL     1      -9.364   1.972 -32.848  1.00  0.00     0.035 A 
HETATM   14  C   UNL     1     -10.538   2.460 -33.427  1.00  0.00     0.044 A 
HETATM   15  C   UNL     1     -11.614   1.599 -33.687  1.00  0.00     0.011 A 
HETATM   16  C   UNL     1     -11.508   0.241 -33.364  1.00  0.00     0.015 A 
HETATM   17  C   UNL     1     -10.342  -0.253 -32.787  1.00  0.00     0.003 A 
HETATM   18  C   UNL     1      -9.276   0.610 -32.531  1.00  0.00     0.029 A 
BRANCH  15  19
HETATM   19  C   UNL     1     -12.884   2.081 -34.308  1.00  0.00     0.155 C 
HETATM   20  C   UNL     1     -14.060   1.142 -34.400  1.00  0.00     0.096 C 
HETATM   21  O   UNL     1     -12.957   3.232 -34.736  1.00  0.00    -0.293 OA
ENDBRANCH  15  19
ENDBRANCH  10  13
ENDBRANCH   8   9
ENDBRANCH   7   8
ENDBRANCH   1   7
BRANCH   3  22
HETATM   22  C   UNL     1      -4.904  -0.625 -33.247  1.00  0.00     0.048 A 
HETATM   23  C   UNL     1      -5.904  -0.536 -34.234  1.00  0.00     0.080 A 
HETATM   24  C   UNL     1      -6.215  -1.625 -35.047  1.00  0.00     0.039 A 
HETATM   25  C   UNL     1      -5.534  -2.829 -34.881  1.00  0.00     0.022 A 
HETATM   26  C   UNL     1      -4.548  -2.935 -33.902  1.00  0.00     0.012 A 
HETATM   27 BR   UNL     1      -3.631  -4.573 -33.672  1.00  0.00    -0.051 Br
HETATM   28  C   UNL     1      -4.230  -1.846 -33.089  1.00  0.00     0.037 A 
BRANCH  23  29
HETATM   29  O   UNL     1      -6.629   0.609 -34.454  1.00  0.00    -0.360 OA
HETATM   30  H   UNL     1      -6.819   0.982 -33.568  1.00  0.00     0.217 HD
ENDBRANCH  23  29
ENDBRANCH   3  22
TORSDOF 7
ENDMDL
MODEL 10
REMARK VINA RESULT:      -7.8      5.251      7.746
REMARK  7 active torsions:
REMARK  status: ('A' for Active; 'I' for Inactive)
REMARK    1  A    between atoms: C_2  and  C_3 
REMARK    2  A    between atoms: C_5  and  N_6 
REMARK       I    between atoms: N_6  and  C_7 
REMARK    3  A    between atoms: C_7  and  C_8 
REMARK    4  A    between atoms: C_8  and  S_9 
REMARK    5  A    between atoms: S_9  and  C_10 
REMARK    6  A    between atoms: C_12  and  C_13 
REMARK    7  A    between atoms: C_14  and  O_15 
ROOT
HETATM    1  C   UNL     1      -3.014   5.061 -31.607  1.00  0.00     0.185 A 
HETATM    2  N   UNL     1      -2.798   5.942 -30.664  1.00  0.00    -0.201 NA
HETATM    3  C   UNL     1      -1.428   5.848 -30.458  1.00  0.00     0.184 A 
HETATM    4  N   UNL     1      -0.814   4.969 -31.269  1.00  0.00    -0.152 NA
HETATM    5  N   UNL     1      -1.845   4.482 -31.982  1.00  0.00    -0.253 N 
HETATM    6  H   UNL     1      -1.688   3.765 -32.681  1.00  0.00     0.191 HD
ENDROOT
BRANCH   1   7
HETATM    7  S   UNL     1      -4.507   4.613 -32.327  1.00  0.00    -0.081 SA
BRANCH   7   8
HETATM    8  C   UNL     1      -5.144   3.434 -31.100  1.00  0.00     0.185 C 
BRANCH   8   9
HETATM    9  C   UNL     1      -6.032   2.378 -31.751  1.00  0.00     0.231 C 
HETATM   10  N   UNL     1      -5.376   1.648 -32.733  1.00  0.00    -0.327 N 
HETATM   11  H   UNL     1      -4.407   1.885 -32.919  1.00  0.00     0.169 HD
HETATM   12  O   UNL     1      -7.197   2.215 -31.395  1.00  0.00    -0.272 OA
BRANCH  10  13
HETATM   13  C   UNL     1      -5.908   0.631 -33.556  1.00  0.00     0.035 A 
HETATM   14  C   UNL     1      -5.404  -0.671 -33.618  1.00  0.00     0.044 A 
HETATM   15  C   UNL     1      -6.000  -1.624 -34.457  1.00  0.00     0.011 A 
HETATM   16  C   UNL     1      -7.107  -1.267 -35.236  1.00  0.00     0.015 A 
HETATM   17  C   UNL     1      -7.614   0.028 -35.179  1.00  0.00     0.003 A 
HETATM   18  C   UNL     1      -7.016   0.971 -34.343  1.00  0.00     0.029 A 
BRANCH  15  19
HETATM   19  C   UNL     1      -5.494  -3.027 -34.550  1.00  0.00     0.155 C 
HETATM   20  C   UNL     1      -6.443  -4.125 -34.957  1.00  0.00     0.096 C 
HETATM   21  O   UNL     1      -4.315  -3.270 -34.295  1.00  0.00    -0.293 OA
ENDBRANCH  15  19
ENDBRANCH  10  13
ENDBRANCH   8   9
ENDBRANCH   7   8
ENDBRANCH   1   7
BRANCH   3  22
HETATM   22  C   UNL     1      -0.757   6.640 -29.430  1.00  0.00     0.048 A 
HETATM   23  C   UNL     1       0.347   6.134 -28.717  1.00  0.00     0.080 A 
HETATM   24  C   UNL     1       0.998   6.903 -27.754  1.00  0.00     0.039 A 
HETATM   25  C   UNL     1       0.550   8.194 -27.479  1.00  0.00     0.022 A 
HETATM   26  C   UNL     1      -0.548   8.704 -28.170  1.00  0.00     0.012 A 
HETATM   27 BR   UNL     1      -1.161  10.453 -27.790  1.00  0.00    -0.051 Br
HETATM   28  C   UNL     1      -1.200   7.940 -29.139  1.00  0.00     0.037 A 
BRANCH  23  29
HETATM   29  O   UNL     1       0.844   4.870 -28.919  1.00  0.00    -0.360 OA
HETATM   30  H   UNL     1       0.064   4.277 -28.959  1.00  0.00     0.217 HD
ENDBRANCH  23  29
ENDBRANCH   3  22
TORSDOF 7
ENDMDL
