MODEL 1
REMARK VINA RESULT:      -9.1      0.000      0.000
REMARK  10 active torsions:
REMARK  status: ('A' for Active; 'I' for Inactive)
REMARK    1  A    between atoms: C_4  and  C_5 
REMARK    2  A    between atoms: C_5  and  C_6 
REMARK    3  A    between atoms: C_6  and  N_7 
REMARK    4  A    between atoms: C_6  and  C_15 
REMARK       I    between atoms: N_7  and  C_8 
REMARK    5  A    between atoms: C_8  and  C_9 
REMARK       I    between atoms: C_15  and  N_16 
REMARK    6  A    between atoms: N_16  and  C_17 
REMARK    7  A    between atoms: C_17  and  C_18 
REMARK    8  A    between atoms: C_18  and  C_19 
REMARK    9  A    between atoms: C_21  and  O_22 
REMARK   10  A    between atoms: C_23  and  O_24 
ROOT
HETATM    1  C   UNL     1      -6.967   0.079 -32.978  1.00  0.00     0.181 C 
ENDROOT
BRANCH   1   2
HETATM    2  C   UNL     1      -5.939  -0.285 -34.064  1.00  0.00     0.073 C 
BRANCH   2   3
HETATM    3  C   UNL     1      -5.802  -1.773 -34.296  1.00  0.00    -0.056 A 
HETATM    4  C   UNL     1      -4.563  -2.408 -34.138  1.00  0.00     0.007 A 
HETATM    5  C   UNL     1      -4.440  -3.784 -34.345  1.00  0.00     0.001 A 
HETATM    6  C   UNL     1      -5.554  -4.538 -34.711  1.00  0.00     0.000 A 
HETATM    7  C   UNL     1      -6.791  -3.918 -34.865  1.00  0.00     0.001 A 
HETATM    8  C   UNL     1      -6.917  -2.543 -34.656  1.00  0.00     0.007 A 
ENDBRANCH   2   3
ENDBRANCH   1   2
BRANCH   1   9
HETATM    9  N   UNL     1      -8.048   0.909 -33.518  1.00  0.00    -0.342 N 
HETATM   10  C   UNL     1      -9.381   0.668 -33.281  1.00  0.00     0.276 C 
HETATM   11  O   UNL     1      -9.748  -0.205 -32.496  1.00  0.00    -0.265 OA
HETATM   12  H   UNL     1      -7.824   1.665 -34.157  1.00  0.00     0.163 HD
BRANCH  10  13
HETATM   13  C   UNL     1     -10.285   1.546 -33.991  1.00  0.00     0.142 A 
HETATM   14  O   UNL     1      -9.841   2.772 -34.417  1.00  0.00    -0.317 OA
HETATM   15  C   UNL     1     -10.883   3.379 -35.043  1.00  0.00     0.143 A 
HETATM   16  C   UNL     1     -11.995   2.571 -35.026  1.00  0.00     0.027 A 
HETATM   17  C   UNL     1     -11.610   1.389 -34.348  1.00  0.00     0.045 A 
ENDBRANCH  10  13
ENDBRANCH   1   9
BRANCH   1  18
HETATM   18  C   UNL     1      -6.265   0.804 -31.804  1.00  0.00     0.240 C 
HETATM   19  N   UNL     1      -5.412   1.814 -32.202  1.00  0.00    -0.359 N 
HETATM   20  H   UNL     1      -5.321   1.993 -33.203  1.00  0.00     0.162 HD
HETATM   21  O   UNL     1      -6.488   0.549 -30.623  1.00  0.00    -0.271 OA
BRANCH  19  22
HETATM   22  C   UNL     1      -4.701   2.669 -31.274  1.00  0.00     0.127 C 
BRANCH  22  23
HETATM   23  C   UNL     1      -3.202   2.753 -31.587  1.00  0.00     0.058 C 
BRANCH  23  24
HETATM   24  C   UNL     1      -2.750   4.005 -32.308  1.00  0.00    -0.054 A 
HETATM   25  C   UNL     1      -3.351   4.418 -33.508  1.00  0.00     0.046 A 
HETATM   26  C   UNL     1      -2.933   5.596 -34.121  1.00  0.00     0.099 A 
HETATM   27  C   UNL     1      -1.935   6.376 -33.545  1.00  0.00     0.098 A 
HETATM   28  C   UNL     1      -1.334   5.992 -32.358  1.00  0.00     0.040 A 
HETATM   29  C   UNL     1      -1.743   4.809 -31.738  1.00  0.00     0.010 A 
BRANCH  26  30
HETATM   30  O   UNL     1      -3.481   6.029 -35.297  1.00  0.00    -0.358 OA
HETATM   31  H   UNL     1      -4.449   6.002 -35.199  1.00  0.00     0.218 HD
ENDBRANCH  26  30
BRANCH  27  32
HETATM   32  O   UNL     1      -1.541   7.534 -34.150  1.00  0.00    -0.358 OA
HETATM   33  H   UNL     1      -1.779   8.233 -33.511  1.00  0.00     0.218 HD
ENDBRANCH  27  32
ENDBRANCH  23  24
ENDBRANCH  22  23
ENDBRANCH  19  22
ENDBRANCH   1  18
TORSDOF 10
ENDMDL
MODEL 2
REMARK VINA RESULT:      -8.8      1.007      1.797
REMARK  10 active torsions:
REMARK  status: ('A' for Active; 'I' for Inactive)
REMARK    1  A    between atoms: C_4  and  C_5 
REMARK    2  A    between atoms: C_5  and  C_6 
REMARK    3  A    between atoms: C_6  and  N_7 
REMARK    4  A    between atoms: C_6  and  C_15 
REMARK       I    between atoms: N_7  and  C_8 
REMARK    5  A    between atoms: C_8  and  C_9 
REMARK       I    between atoms: C_15  and  N_16 
REMARK    6  A    between atoms: N_16  and  C_17 
REMARK    7  A    between atoms: C_17  and  C_18 
REMARK    8  A    between atoms: C_18  and  C_19 
REMARK    9  A    between atoms: C_21  and  O_22 
REMARK   10  A    between atoms: C_23  and  O_24 
ROOT
HETATM    1  C   UNL     1      -7.230  -0.381 -33.318  1.00  0.00     0.181 C 
ENDROOT
BRANCH   1   2
HETATM    2  C   UNL     1      -6.318  -0.754 -34.500  1.00  0.00     0.073 C 
BRANCH   2   3
HETATM    3  C   UNL     1      -5.873  -2.200 -34.492  1.00  0.00    -0.056 A 
HETATM    4  C   UNL     1      -6.768  -3.223 -34.832  1.00  0.00     0.007 A 
HETATM    5  C   UNL     1      -6.353  -4.557 -34.831  1.00  0.00     0.001 A 
HETATM    6  C   UNL     1      -5.041  -4.881 -34.491  1.00  0.00     0.000 A 
HETATM    7  C   UNL     1      -4.142  -3.871 -34.157  1.00  0.00     0.001 A 
HETATM    8  C   UNL     1      -4.553  -2.537 -34.160  1.00  0.00     0.007 A 
ENDBRANCH   2   3
ENDBRANCH   1   2
BRANCH   1   9
HETATM    9  N   UNL     1      -8.430   0.330 -33.769  1.00  0.00    -0.342 N 
HETATM   10  C   UNL     1      -9.593   0.394 -33.039  1.00  0.00     0.276 C 
HETATM   11  O   UNL     1      -9.661  -0.053 -31.895  1.00  0.00    -0.265 OA
HETATM   12  H   UNL     1      -8.444   0.745 -34.695  1.00  0.00     0.163 HD
BRANCH  10  13
HETATM   13  C   UNL     1     -10.688   1.059 -33.712  1.00  0.00     0.142 A 
HETATM   14  O   UNL     1     -11.962   0.568 -33.578  1.00  0.00    -0.317 OA
HETATM   15  C   UNL     1     -12.779   1.372 -34.307  1.00  0.00     0.143 A 
HETATM   16  C   UNL     1     -12.057   2.372 -34.914  1.00  0.00     0.027 A 
HETATM   17  C   UNL     1     -10.708   2.171 -34.532  1.00  0.00     0.045 A 
ENDBRANCH  10  13
ENDBRANCH   1   9
BRANCH   1  18
HETATM   18  C   UNL     1      -6.447   0.476 -32.294  1.00  0.00     0.240 C 
HETATM   19  N   UNL     1      -5.855   1.597 -32.841  1.00  0.00    -0.359 N 
HETATM   20  H   UNL     1      -5.982   1.761 -33.841  1.00  0.00     0.162 HD
HETATM   21  O   UNL     1      -6.403   0.221 -31.093  1.00  0.00    -0.271 OA
BRANCH  19  22
HETATM   22  C   UNL     1      -5.131   2.577 -32.059  1.00  0.00     0.127 C 
BRANCH  22  23
HETATM   23  C   UNL     1      -3.641   2.630 -32.423  1.00  0.00     0.058 C 
BRANCH  23  24
HETATM   24  C   UNL     1      -3.126   3.973 -32.894  1.00  0.00    -0.054 A 
HETATM   25  C   UNL     1      -1.994   4.569 -32.313  1.00  0.00     0.046 A 
HETATM   26  C   UNL     1      -1.528   5.786 -32.800  1.00  0.00     0.099 A 
HETATM   27  C   UNL     1      -2.165   6.410 -33.868  1.00  0.00     0.098 A 
HETATM   28  C   UNL     1      -3.278   5.837 -34.460  1.00  0.00     0.040 A 
HETATM   29  C   UNL     1      -3.756   4.618 -33.975  1.00  0.00     0.010 A 
BRANCH  26  30
HETATM   30  O   UNL     1      -0.438   6.409 -32.257  1.00  0.00    -0.358 OA
HETATM   31  H   UNL     1      -0.762   7.148 -31.713  1.00  0.00     0.218 HD
ENDBRANCH  26  30
BRANCH  27  32
HETATM   32  O   UNL     1      -1.692   7.600 -34.343  1.00  0.00    -0.358 OA
HETATM   33  H   UNL     1      -2.401   7.922 -34.934  1.00  0.00     0.218 HD
ENDBRANCH  27  32
ENDBRANCH  23  24
ENDBRANCH  22  23
ENDBRANCH  19  22
ENDBRANCH   1  18
TORSDOF 10
ENDMDL
MODEL 3
REMARK VINA RESULT:      -8.7      1.426      4.849
REMARK  10 active torsions:
REMARK  status: ('A' for Active; 'I' for Inactive)
REMARK    1  A    between atoms: C_4  and  C_5 
REMARK    2  A    between atoms: C_5  and  C_6 
REMARK    3  A    between atoms: C_6  and  N_7 
REMARK    4  A    between atoms: C_6  and  C_15 
REMARK       I    between atoms: N_7  and  C_8 
REMARK    5  A    between atoms: C_8  and  C_9 
REMARK       I    between atoms: C_15  and  N_16 
REMARK    6  A    between atoms: N_16  and  C_17 
REMARK    7  A    between atoms: C_17  and  C_18 
REMARK    8  A    between atoms: C_18  and  C_19 
REMARK    9  A    between atoms: C_21  and  O_22 
REMARK   10  A    between atoms: C_23  and  O_24 
ROOT
HETATM    1  C   UNL     1      -7.189   0.482 -32.557  1.00  0.00     0.181 C 
ENDROOT
BRANCH   1   2
HETATM    2  C   UNL     1      -8.642   0.355 -32.066  1.00  0.00     0.073 C 
BRANCH   2   3
HETATM    3  C   UNL     1      -9.651   1.022 -32.975  1.00  0.00    -0.056 A 
HETATM    4  C   UNL     1      -9.328   2.207 -33.650  1.00  0.00     0.007 A 
HETATM    5  C   UNL     1     -10.259   2.816 -34.495  1.00  0.00     0.001 A 
HETATM    6  C   UNL     1     -11.518   2.247 -34.675  1.00  0.00     0.000 A 
HETATM    7  C   UNL     1     -11.847   1.067 -34.013  1.00  0.00     0.001 A 
HETATM    8  C   UNL     1     -10.918   0.454 -33.170  1.00  0.00     0.007 A 
ENDBRANCH   2   3
ENDBRANCH   1   2
BRANCH   1   9
HETATM    9  N   UNL     1      -6.648  -0.815 -32.976  1.00  0.00    -0.342 N 
HETATM   10  C   UNL     1      -6.624  -1.239 -34.284  1.00  0.00     0.276 C 
HETATM   11  O   UNL     1      -6.955  -0.499 -35.208  1.00  0.00    -0.265 OA
HETATM   12  H   UNL     1      -6.333  -1.473 -32.272  1.00  0.00     0.163 HD
BRANCH  10  13
HETATM   13  C   UNL     1      -6.142  -2.591 -34.467  1.00  0.00     0.142 A 
HETATM   14  O   UNL     1      -4.824  -2.878 -34.215  1.00  0.00    -0.317 OA
HETATM   15  C   UNL     1      -4.649  -4.202 -34.467  1.00  0.00     0.143 A 
HETATM   16  C   UNL     1      -5.827  -4.775 -34.882  1.00  0.00     0.027 A 
HETATM   17  C   UNL     1      -6.790  -3.737 -34.883  1.00  0.00     0.045 A 
ENDBRANCH  10  13
ENDBRANCH   1   9
BRANCH   1  18
HETATM   18  C   UNL     1      -6.306   1.102 -31.446  1.00  0.00     0.240 C 
HETATM   19  N   UNL     1      -5.485   2.119 -31.887  1.00  0.00    -0.359 N 
HETATM   20  H   UNL     1      -5.529   2.370 -32.876  1.00  0.00     0.162 HD
HETATM   21  O   UNL     1      -6.371   0.764 -30.266  1.00  0.00    -0.271 OA
BRANCH  19  22
HETATM   22  C   UNL     1      -4.625   2.886 -31.011  1.00  0.00     0.127 C 
BRANCH  22  23
HETATM   23  C   UNL     1      -3.161   2.874 -31.470  1.00  0.00     0.058 C 
BRANCH  23  24
HETATM   24  C   UNL     1      -2.699   4.099 -32.229  1.00  0.00    -0.054 A 
HETATM   25  C   UNL     1      -3.310   4.490 -33.432  1.00  0.00     0.046 A 
HETATM   26  C   UNL     1      -2.882   5.644 -34.081  1.00  0.00     0.099 A 
HETATM   27  C   UNL     1      -1.863   6.422 -33.539  1.00  0.00     0.098 A 
HETATM   28  C   UNL     1      -1.251   6.059 -32.351  1.00  0.00     0.040 A 
HETATM   29  C   UNL     1      -1.671   4.899 -31.695  1.00  0.00     0.010 A 
BRANCH  26  30
HETATM   30  O   UNL     1      -3.438   6.056 -35.260  1.00  0.00    -0.358 OA
HETATM   31  H   UNL     1      -3.808   6.945 -35.116  1.00  0.00     0.218 HD
ENDBRANCH  26  30
BRANCH  27  32
HETATM   32  O   UNL     1      -1.458   7.558 -34.180  1.00  0.00    -0.358 OA
HETATM   33  H   UNL     1      -0.518   7.652 -33.931  1.00  0.00     0.218 HD
ENDBRANCH  27  32
ENDBRANCH  23  24
ENDBRANCH  22  23
ENDBRANCH  19  22
ENDBRANCH   1  18
TORSDOF 10
ENDMDL
MODEL 4
REMARK VINA RESULT:      -8.6      2.112      2.814
REMARK  10 active torsions:
REMARK  status: ('A' for Active; 'I' for Inactive)
REMARK    1  A    between atoms: C_4  and  C_5 
REMARK    2  A    between atoms: C_5  and  C_6 
REMARK    3  A    between atoms: C_6  and  N_7 
REMARK    4  A    between atoms: C_6  and  C_15 
REMARK       I    between atoms: N_7  and  C_8 
REMARK    5  A    between atoms: C_8  and  C_9 
REMARK       I    between atoms: C_15  and  N_16 
REMARK    6  A    between atoms: N_16  and  C_17 
REMARK    7  A    between atoms: C_17  and  C_18 
REMARK    8  A    between atoms: C_18  and  C_19 
REMARK    9  A    between atoms: C_21  and  O_22 
REMARK   10  A    between atoms: C_23  and  O_24 
ROOT
HETATM    1  C   UNL     1      -7.156  -0.425 -33.053  1.00  0.00     0.181 C 
ENDROOT
BRANCH   1   2
HETATM    2  C   UNL     1      -6.183  -0.727 -34.207  1.00  0.00     0.073 C 
BRANCH   2   3
HETATM    3  C   UNL     1      -5.824  -2.192 -34.330  1.00  0.00    -0.056 A 
HETATM    4  C   UNL     1      -6.786  -3.130 -34.726  1.00  0.00     0.007 A 
HETATM    5  C   UNL     1      -6.451  -4.481 -34.847  1.00  0.00     0.001 A 
HETATM    6  C   UNL     1      -5.152  -4.905 -34.575  1.00  0.00     0.000 A 
HETATM    7  C   UNL     1      -4.186  -3.980 -34.186  1.00  0.00     0.001 A 
HETATM    8  C   UNL     1      -4.518  -2.629 -34.067  1.00  0.00     0.007 A 
ENDBRANCH   2   3
ENDBRANCH   1   2
BRANCH   1   9
HETATM    9  N   UNL     1      -8.134   0.601 -33.431  1.00  0.00    -0.342 N 
HETATM   10  C   UNL     1      -9.485   0.482 -33.204  1.00  0.00     0.276 C 
HETATM   11  O   UNL     1      -9.949  -0.457 -32.559  1.00  0.00    -0.265 OA
HETATM   12  H   UNL     1      -7.824   1.418 -33.947  1.00  0.00     0.163 HD
BRANCH  10  13
HETATM   13  C   UNL     1     -10.281   1.561 -33.745  1.00  0.00     0.142 A 
HETATM   14  O   UNL     1      -9.667   2.572 -34.438  1.00  0.00    -0.317 OA
HETATM   15  C   UNL     1     -10.639   3.440 -34.825  1.00  0.00     0.143 A 
HETATM   16  C   UNL     1     -11.870   3.010 -34.391  1.00  0.00     0.027 A 
HETATM   17  C   UNL     1     -11.641   1.799 -33.694  1.00  0.00     0.045 A 
ENDBRANCH  10  13
ENDBRANCH   1   9
BRANCH   1  18
HETATM   18  C   UNL     1      -6.368   0.017 -31.796  1.00  0.00     0.240 C 
HETATM   19  N   UNL     1      -5.162   0.626 -32.078  1.00  0.00    -0.359 N 
HETATM   20  H   UNL     1      -4.901   0.731 -33.060  1.00  0.00     0.162 HD
HETATM   21  O   UNL     1      -6.799  -0.106 -30.651  1.00  0.00    -0.271 OA
BRANCH  19  22
HETATM   22  C   UNL     1      -4.291   1.178 -31.062  1.00  0.00     0.127 C 
BRANCH  22  23
HETATM   23  C   UNL     1      -4.139   2.699 -31.185  1.00  0.00     0.058 C 
BRANCH  23  24
HETATM   24  C   UNL     1      -5.177   3.398 -32.036  1.00  0.00    -0.054 A 
HETATM   25  C   UNL     1      -6.509   3.527 -31.609  1.00  0.00     0.046 A 
HETATM   26  C   UNL     1      -7.426   4.210 -32.403  1.00  0.00     0.099 A 
HETATM   27  C   UNL     1      -7.029   4.779 -33.610  1.00  0.00     0.098 A 
HETATM   28  C   UNL     1      -5.719   4.670 -34.046  1.00  0.00     0.040 A 
HETATM   29  C   UNL     1      -4.794   3.982 -33.259  1.00  0.00     0.010 A 
BRANCH  26  30
HETATM   30  O   UNL     1      -8.735   4.350 -32.034  1.00  0.00    -0.358 OA
HETATM   31  H   UNL     1      -8.791   5.111 -31.430  1.00  0.00     0.218 HD
ENDBRANCH  26  30
BRANCH  27  32
HETATM   32  O   UNL     1      -7.936   5.455 -34.376  1.00  0.00    -0.358 OA
HETATM   33  H   UNL     1      -8.226   4.799 -35.040  1.00  0.00     0.218 HD
ENDBRANCH  27  32
ENDBRANCH  23  24
ENDBRANCH  22  23
ENDBRANCH  19  22
ENDBRANCH   1  18
TORSDOF 10
ENDMDL
MODEL 5
REMARK VINA RESULT:      -8.5      3.435      7.622
REMARK  10 active torsions:
REMARK  status: ('A' for Active; 'I' for Inactive)
REMARK    1  A    between atoms: C_4  and  C_5 
REMARK    2  A    between atoms: C_5  and  C_6 
REMARK    3  A    between atoms: C_6  and  N_7 
REMARK    4  A    between atoms: C_6  and  C_15 
REMARK       I    between atoms: N_7  and  C_8 
REMARK    5  A    between atoms: C_8  and  C_9 
REMARK       I    between atoms: C_15  and  N_16 
REMARK    6  A    between atoms: N_16  and  C_17 
REMARK    7  A    between atoms: C_17  and  C_18 
REMARK    8  A    between atoms: C_18  and  C_19 
REMARK    9  A    between atoms: C_21  and  O_22 
REMARK   10  A    between atoms: C_23  and  O_24 
ROOT
HETATM    1  C   UNL     1      -5.393   2.460 -30.939  1.00  0.00     0.181 C 
ENDROOT
BRANCH   1   2
HETATM    2  C   UNL     1      -5.957   2.891 -32.305  1.00  0.00     0.073 C 
BRANCH   2   3
HETATM    3  C   UNL     1      -7.007   1.949 -32.852  1.00  0.00    -0.056 A 
HETATM    4  C   UNL     1      -7.936   1.343 -31.997  1.00  0.00     0.007 A 
HETATM    5  C   UNL     1      -8.909   0.479 -32.506  1.00  0.00     0.001 A 
HETATM    6  C   UNL     1      -8.964   0.215 -33.873  1.00  0.00     0.000 A 
HETATM    7  C   UNL     1      -8.048   0.817 -34.733  1.00  0.00     0.001 A 
HETATM    8  C   UNL     1      -7.076   1.683 -34.227  1.00  0.00     0.007 A 
ENDBRANCH   2   3
ENDBRANCH   1   2
BRANCH   1   9
HETATM    9  N   UNL     1      -4.976   3.617 -30.141  1.00  0.00    -0.342 N 
HETATM   10  C   UNL     1      -5.848   4.379 -29.398  1.00  0.00     0.276 C 
HETATM   11  O   UNL     1      -7.029   4.064 -29.267  1.00  0.00    -0.265 OA
HETATM   12  H   UNL     1      -4.011   3.927 -30.179  1.00  0.00     0.163 HD
BRANCH  10  13
HETATM   13  C   UNL     1      -5.246   5.534 -28.767  1.00  0.00     0.142 A 
HETATM   14  O   UNL     1      -5.599   5.863 -27.483  1.00  0.00    -0.317 OA
HETATM   15  C   UNL     1      -4.895   6.975 -27.148  1.00  0.00     0.143 A 
HETATM   16  C   UNL     1      -4.096   7.375 -28.193  1.00  0.00     0.027 A 
HETATM   17  C   UNL     1      -4.322   6.446 -29.238  1.00  0.00     0.045 A 
ENDBRANCH  10  13
ENDBRANCH   1   9
BRANCH   1  18
HETATM   18  C   UNL     1      -4.205   1.487 -31.140  1.00  0.00     0.240 C 
HETATM   19  N   UNL     1      -4.585   0.174 -31.333  1.00  0.00    -0.359 N 
HETATM   20  H   UNL     1      -5.584  -0.037 -31.328  1.00  0.00     0.162 HD
HETATM   21  O   UNL     1      -3.033   1.854 -31.187  1.00  0.00    -0.271 OA
BRANCH  19  22
HETATM   22  C   UNL     1      -3.647  -0.895 -31.607  1.00  0.00     0.127 C 
BRANCH  22  23
HETATM   23  C   UNL     1      -3.458  -1.136 -33.110  1.00  0.00     0.058 C 
BRANCH  23  24
HETATM   24  C   UNL     1      -4.372  -2.170 -33.732  1.00  0.00    -0.054 A 
HETATM   25  C   UNL     1      -3.992  -3.518 -33.832  1.00  0.00     0.046 A 
HETATM   26  C   UNL     1      -4.876  -4.446 -34.375  1.00  0.00     0.099 A 
HETATM   27  C   UNL     1      -6.139  -4.051 -34.805  1.00  0.00     0.098 A 
HETATM   28  C   UNL     1      -6.537  -2.728 -34.708  1.00  0.00     0.040 A 
HETATM   29  C   UNL     1      -5.655  -1.788 -34.169  1.00  0.00     0.010 A 
BRANCH  26  30
HETATM   30  O   UNL     1      -4.545  -5.766 -34.504  1.00  0.00    -0.358 OA
HETATM   31  H   UNL     1      -4.880  -6.233 -33.719  1.00  0.00     0.218 HD
ENDBRANCH  26  30
BRANCH  27  32
HETATM   32  O   UNL     1      -7.001  -4.972 -35.327  1.00  0.00    -0.358 OA
HETATM   33  H   UNL     1      -7.592  -4.449 -35.903  1.00  0.00     0.218 HD
ENDBRANCH  27  32
ENDBRANCH  23  24
ENDBRANCH  22  23
ENDBRANCH  19  22
ENDBRANCH   1  18
TORSDOF 10
ENDMDL
MODEL 6
REMARK VINA RESULT:      -8.4      1.151      1.932
REMARK  10 active torsions:
REMARK  status: ('A' for Active; 'I' for Inactive)
REMARK    1  A    between atoms: C_4  and  C_5 
REMARK    2  A    between atoms: C_5  and  C_6 
REMARK    3  A    between atoms: C_6  and  N_7 
REMARK    4  A    between atoms: C_6  and  C_15 
REMARK       I    between atoms: N_7  and  C_8 
REMARK    5  A    between atoms: C_8  and  C_9 
REMARK       I    between atoms: C_15  and  N_16 
REMARK    6  A    between atoms: N_16  and  C_17 
REMARK    7  A    between atoms: C_17  and  C_18 
REMARK    8  A    between atoms: C_18  and  C_19 
REMARK    9  A    between atoms: C_21  and  O_22 
REMARK   10  A    between atoms: C_23  and  O_24 
ROOT
HETATM    1  C   UNL     1      -7.695  -0.114 -33.149  1.00  0.00     0.181 C 
ENDROOT
BRANCH   1   2
HETATM    2  C   UNL     1      -6.569  -0.309 -34.180  1.00  0.00     0.073 C 
BRANCH   2   3
HETATM    3  C   UNL     1      -6.128  -1.748 -34.332  1.00  0.00    -0.056 A 
HETATM    4  C   UNL     1      -7.049  -2.742 -34.691  1.00  0.00     0.007 A 
HETATM    5  C   UNL     1      -6.637  -4.069 -34.838  1.00  0.00     0.001 A 
HETATM    6  C   UNL     1      -5.303  -4.414 -34.631  1.00  0.00     0.000 A 
HETATM    7  C   UNL     1      -4.379  -3.434 -34.279  1.00  0.00     0.001 A 
HETATM    8  C   UNL     1      -4.787  -2.106 -34.134  1.00  0.00     0.007 A 
ENDBRANCH   2   3
ENDBRANCH   1   2
BRANCH   1   9
HETATM    9  N   UNL     1      -8.746   0.770 -33.662  1.00  0.00    -0.342 N 
HETATM   10  C   UNL     1     -10.089   0.539 -33.476  1.00  0.00     0.276 C 
HETATM   11  O   UNL     1     -10.492  -0.376 -32.761  1.00  0.00    -0.265 OA
HETATM   12  H   UNL     1      -8.491   1.561 -34.243  1.00  0.00     0.163 HD
BRANCH  10  13
HETATM   13  C   UNL     1     -10.958   1.478 -34.151  1.00  0.00     0.142 A 
HETATM   14  O   UNL     1     -10.435   2.645 -34.648  1.00  0.00    -0.317 OA
HETATM   15  C   UNL     1     -11.460   3.330 -35.220  1.00  0.00     0.143 A 
HETATM   16  C   UNL     1     -12.637   2.630 -35.098  1.00  0.00     0.027 A 
HETATM   17  C   UNL     1     -12.314   1.436 -34.408  1.00  0.00     0.045 A 
ENDBRANCH  10  13
ENDBRANCH   1   9
BRANCH   1  18
HETATM   18  C   UNL     1      -7.113   0.448 -31.829  1.00  0.00     0.240 C 
HETATM   19  N   UNL     1      -7.066   1.827 -31.782  1.00  0.00    -0.359 N 
HETATM   20  H   UNL     1      -7.409   2.342 -32.594  1.00  0.00     0.162 HD
HETATM   21  O   UNL     1      -6.778  -0.261 -30.882  1.00  0.00    -0.271 OA
BRANCH  19  22
HETATM   22  C   UNL     1      -6.622   2.570 -30.621  1.00  0.00     0.127 C 
BRANCH  22  23
HETATM   23  C   UNL     1      -5.138   2.946 -30.699  1.00  0.00     0.058 C 
BRANCH  23  24
HETATM   24  C   UNL     1      -4.718   3.719 -31.931  1.00  0.00    -0.054 A 
HETATM   25  C   UNL     1      -3.373   3.793 -32.328  1.00  0.00     0.046 A 
HETATM   26  C   UNL     1      -3.031   4.481 -33.488  1.00  0.00     0.099 A 
HETATM   27  C   UNL     1      -4.015   5.084 -34.267  1.00  0.00     0.098 A 
HETATM   28  C   UNL     1      -5.348   5.017 -33.898  1.00  0.00     0.040 A 
HETATM   29  C   UNL     1      -5.700   4.333 -32.733  1.00  0.00     0.010 A 
BRANCH  26  30
HETATM   30  O   UNL     1      -1.734   4.590 -33.906  1.00  0.00    -0.358 OA
HETATM   31  H   UNL     1      -1.447   5.505 -33.739  1.00  0.00     0.218 HD
ENDBRANCH  26  30
BRANCH  27  32
HETATM   32  O   UNL     1      -3.668   5.748 -35.409  1.00  0.00    -0.358 OA
HETATM   33  H   UNL     1      -2.697   5.843 -35.346  1.00  0.00     0.218 HD
ENDBRANCH  27  32
ENDBRANCH  23  24
ENDBRANCH  22  23
ENDBRANCH  19  22
ENDBRANCH   1  18
TORSDOF 10
ENDMDL
MODEL 7
REMARK VINA RESULT:      -8.3      2.571      8.115
REMARK  10 active torsions:
REMARK  status: ('A' for Active; 'I' for Inactive)
REMARK    1  A    between atoms: C_4  and  C_5 
REMARK    2  A    between atoms: C_5  and  C_6 
REMARK    3  A    between atoms: C_6  and  N_7 
REMARK    4  A    between atoms: C_6  and  C_15 
REMARK       I    between atoms: N_7  and  C_8 
REMARK    5  A    between atoms: C_8  and  C_9 
REMARK       I    between atoms: C_15  and  N_16 
REMARK    6  A    between atoms: N_16  and  C_17 
REMARK    7  A    between atoms: C_17  and  C_18 
REMARK    8  A    between atoms: C_18  and  C_19 
REMARK    9  A    between atoms: C_21  and  O_22 
REMARK   10  A    between atoms: C_23  and  O_24 
ROOT
HETATM    1  C   UNL     1      -6.585   1.395 -32.804  1.00  0.00     0.181 C 
ENDROOT
BRANCH   1   2
HETATM    2  C   UNL     1      -6.117   0.091 -32.133  1.00  0.00     0.073 C 
BRANCH   2   3
HETATM    3  C   UNL     1      -5.910  -1.051 -33.104  1.00  0.00    -0.056 A 
HETATM    4  C   UNL     1      -6.989  -1.573 -33.830  1.00  0.00     0.007 A 
HETATM    5  C   UNL     1      -6.794  -2.623 -34.731  1.00  0.00     0.001 A 
HETATM    6  C   UNL     1      -5.521  -3.158 -34.916  1.00  0.00     0.000 A 
HETATM    7  C   UNL     1      -4.441  -2.642 -34.203  1.00  0.00     0.001 A 
HETATM    8  C   UNL     1      -4.632  -1.592 -33.304  1.00  0.00     0.007 A 
ENDBRANCH   2   3
ENDBRANCH   1   2
BRANCH   1   9
HETATM    9  N   UNL     1      -5.748   2.533 -32.410  1.00  0.00    -0.342 N 
HETATM   10  C   UNL     1      -5.458   3.587 -33.244  1.00  0.00     0.276 C 
HETATM   11  O   UNL     1      -5.984   3.696 -34.350  1.00  0.00    -0.265 OA
HETATM   12  H   UNL     1      -5.295   2.526 -31.502  1.00  0.00     0.163 HD
BRANCH  10  13
HETATM   13  C   UNL     1      -4.533   4.552 -32.692  1.00  0.00     0.142 A 
HETATM   14  O   UNL     1      -4.449   5.803 -33.248  1.00  0.00    -0.317 OA
HETATM   15  C   UNL     1      -3.512   6.491 -32.544  1.00  0.00     0.143 A 
HETATM   16  C   UNL     1      -2.985   5.707 -31.545  1.00  0.00     0.027 A 
HETATM   17  C   UNL     1      -3.642   4.456 -31.639  1.00  0.00     0.045 A 
ENDBRANCH  10  13
ENDBRANCH   1   9
BRANCH   1  18
HETATM   18  C   UNL     1      -8.068   1.669 -32.455  1.00  0.00     0.240 C 
HETATM   19  N   UNL     1      -8.771   2.302 -33.459  1.00  0.00    -0.359 N 
HETATM   20  H   UNL     1      -8.270   2.527 -34.320  1.00  0.00     0.162 HD
HETATM   21  O   UNL     1      -8.592   1.304 -31.405  1.00  0.00    -0.271 OA
BRANCH  19  22
HETATM   22  C   UNL     1     -10.186   2.596 -33.378  1.00  0.00     0.127 C 
BRANCH  22  23
HETATM   23  C   UNL     1     -11.050   1.500 -34.015  1.00  0.00     0.058 C 
BRANCH  23  24
HETATM   24  C   UNL     1     -12.542   1.628 -33.799  1.00  0.00    -0.054 A 
HETATM   25  C   UNL     1     -13.458   0.860 -34.536  1.00  0.00     0.046 A 
HETATM   26  C   UNL     1     -14.821   0.978 -34.281  1.00  0.00     0.099 A 
HETATM   27  C   UNL     1     -15.283   1.840 -33.291  1.00  0.00     0.098 A 
HETATM   28  C   UNL     1     -14.396   2.602 -32.548  1.00  0.00     0.040 A 
HETATM   29  C   UNL     1     -13.027   2.493 -32.800  1.00  0.00     0.010 A 
BRANCH  26  30
HETATM   30  O   UNL     1     -15.750   0.260 -34.983  1.00  0.00    -0.358 OA
HETATM   31  H   UNL     1     -15.627   0.462 -35.927  1.00  0.00     0.218 HD
ENDBRANCH  26  30
BRANCH  27  32
HETATM   32  O   UNL     1     -16.622   1.940 -33.044  1.00  0.00    -0.358 OA
HETATM   33  H   UNL     1     -16.673   2.358 -32.162  1.00  0.00     0.218 HD
ENDBRANCH  27  32
ENDBRANCH  23  24
ENDBRANCH  22  23
ENDBRANCH  19  22
ENDBRANCH   1  18
TORSDOF 10
ENDMDL
MODEL 8
REMARK VINA RESULT:      -8.3     15.366     18.488
REMARK  10 active torsions:
REMARK  status: ('A' for Active; 'I' for Inactive)
REMARK    1  A    between atoms: C_4  and  C_5 
REMARK    2  A    between atoms: C_5  and  C_6 
REMARK    3  A    between atoms: C_6  and  N_7 
REMARK    4  A    between atoms: C_6  and  C_15 
REMARK       I    between atoms: N_7  and  C_8 
REMARK    5  A    between atoms: C_8  and  C_9 
REMARK       I    between atoms: C_15  and  N_16 
REMARK    6  A    between atoms: N_16  and  C_17 
REMARK    7  A    between atoms: C_17  and  C_18 
REMARK    8  A    between atoms: C_18  and  C_19 
REMARK    9  A    between atoms: C_21  and  O_22 
REMARK   10  A    between atoms: C_23  and  O_24 
ROOT
HETATM    1  C   UNL     1      -2.737 -13.721 -39.222  1.00  0.00     0.181 C 
ENDROOT
BRANCH   1   2
HETATM    2  C   UNL     1      -1.329 -13.139 -39.007  1.00  0.00     0.073 C 
BRANCH   2   3
HETATM    3  C   UNL     1      -0.362 -14.109 -38.363  1.00  0.00    -0.056 A 
HETATM    4  C   UNL     1      -0.741 -14.848 -37.234  1.00  0.00     0.007 A 
HETATM    5  C   UNL     1       0.150 -15.749 -36.646  1.00  0.00     0.001 A 
HETATM    6  C   UNL     1       1.425 -15.921 -37.181  1.00  0.00     0.000 A 
HETATM    7  C   UNL     1       1.809 -15.196 -38.306  1.00  0.00     0.001 A 
HETATM    8  C   UNL     1       0.920 -14.297 -38.898  1.00  0.00     0.007 A 
ENDBRANCH   2   3
ENDBRANCH   1   2
BRANCH   1   9
HETATM    9  N   UNL     1      -2.981 -14.030 -40.634  1.00  0.00    -0.342 N 
HETATM   10  C   UNL     1      -3.233 -15.299 -41.101  1.00  0.00     0.276 C 
HETATM   11  O   UNL     1      -3.383 -16.249 -40.335  1.00  0.00    -0.265 OA
HETATM   12  H   UNL     1      -2.897 -13.293 -41.326  1.00  0.00     0.163 HD
BRANCH  10  13
HETATM   13  C   UNL     1      -3.345 -15.397 -42.540  1.00  0.00     0.142 A 
HETATM   14  O   UNL     1      -4.084 -14.468 -43.226  1.00  0.00    -0.317 OA
HETATM   15  C   UNL     1      -4.020 -14.799 -44.542  1.00  0.00     0.143 A 
HETATM   16  C   UNL     1      -3.256 -15.928 -44.720  1.00  0.00     0.027 A 
HETATM   17  C   UNL     1      -2.821 -16.315 -43.430  1.00  0.00     0.045 A 
ENDBRANCH  10  13
ENDBRANCH   1   9
BRANCH   1  18
HETATM   18  C   UNL     1      -3.805 -12.733 -38.693  1.00  0.00     0.240 C 
HETATM   19  N   UNL     1      -5.012 -12.806 -39.358  1.00  0.00    -0.359 N 
HETATM   20  H   UNL     1      -5.096 -13.484 -40.117  1.00  0.00     0.162 HD
HETATM   21  O   UNL     1      -3.621 -11.992 -37.729  1.00  0.00    -0.271 OA
BRANCH  19  22
HETATM   22  C   UNL     1      -6.174 -12.023 -38.990  1.00  0.00     0.127 C 
BRANCH  22  23
HETATM   23  C   UNL     1      -7.220 -12.850 -38.232  1.00  0.00     0.058 C 
BRANCH  23  24
HETATM   24  C   UNL     1      -8.513 -13.116 -38.972  1.00  0.00    -0.054 A 
HETATM   25  C   UNL     1      -9.242 -12.075 -39.571  1.00  0.00     0.046 A 
HETATM   26  C   UNL     1     -10.406 -12.364 -40.277  1.00  0.00     0.099 A 
HETATM   27  C   UNL     1     -10.845 -13.678 -40.406  1.00  0.00     0.098 A 
HETATM   28  C   UNL     1     -10.138 -14.720 -39.830  1.00  0.00     0.040 A 
HETATM   29  C   UNL     1      -8.971 -14.439 -39.116  1.00  0.00     0.010 A 
BRANCH  26  30
HETATM   30  O   UNL     1     -11.155 -11.382 -40.864  1.00  0.00    -0.358 OA
HETATM   31  H   UNL     1     -10.988 -11.418 -41.823  1.00  0.00     0.218 HD
ENDBRANCH  26  30
BRANCH  27  32
HETATM   32  O   UNL     1     -11.984 -13.950 -41.109  1.00  0.00    -0.358 OA
HETATM   33  H   UNL     1     -12.512 -14.508 -40.505  1.00  0.00     0.218 HD
ENDBRANCH  27  32
ENDBRANCH  23  24
ENDBRANCH  22  23
ENDBRANCH  19  22
ENDBRANCH   1  18
TORSDOF 10
ENDMDL
MODEL 9
REMARK VINA RESULT:      -8.1      2.150      2.991
REMARK  10 active torsions:
REMARK  status: ('A' for Active; 'I' for Inactive)
REMARK    1  A    between atoms: C_4  and  C_5 
REMARK    2  A    between atoms: C_5  and  C_6 
REMARK    3  A    between atoms: C_6  and  N_7 
REMARK    4  A    between atoms: C_6  and  C_15 
REMARK       I    between atoms: N_7  and  C_8 
REMARK    5  A    between atoms: C_8  and  C_9 
REMARK       I    between atoms: C_15  and  N_16 
REMARK    6  A    between atoms: N_16  and  C_17 
REMARK    7  A    between atoms: C_17  and  C_18 
REMARK    8  A    between atoms: C_18  and  C_19 
REMARK    9  A    between atoms: C_21  and  O_22 
REMARK   10  A    between atoms: C_23  and  O_24 
ROOT
HETATM    1  C   UNL     1      -4.551  -0.473 -32.389  1.00  0.00     0.181 C 
ENDROOT
BRANCH   1   2
HETATM    2  C   UNL     1      -3.901  -1.194 -33.583  1.00  0.00     0.073 C 
BRANCH   2   3
HETATM    3  C   UNL     1      -4.633  -2.449 -34.006  1.00  0.00    -0.056 A 
HETATM    4  C   UNL     1      -5.919  -2.372 -34.558  1.00  0.00     0.007 A 
HETATM    5  C   UNL     1      -6.589  -3.532 -34.955  1.00  0.00     0.001 A 
HETATM    6  C   UNL     1      -5.981  -4.777 -34.806  1.00  0.00     0.000 A 
HETATM    7  C   UNL     1      -4.701  -4.863 -34.264  1.00  0.00     0.001 A 
HETATM    8  C   UNL     1      -4.027  -3.706 -33.869  1.00  0.00     0.007 A 
ENDBRANCH   2   3
ENDBRANCH   1   2
BRANCH   1   9
HETATM    9  N   UNL     1      -5.775   0.229 -32.786  1.00  0.00    -0.342 N 
HETATM   10  C   UNL     1      -6.900   0.297 -31.999  1.00  0.00     0.276 C 
HETATM   11  O   UNL     1      -6.909  -0.140 -30.849  1.00  0.00    -0.265 OA
HETATM   12  H   UNL     1      -5.836   0.636 -33.713  1.00  0.00     0.163 HD
BRANCH  10  13
HETATM   13  C   UNL     1      -8.029   0.951 -32.623  1.00  0.00     0.142 A 
HETATM   14  O   UNL     1      -9.298   0.680 -32.177  1.00  0.00    -0.317 OA
HETATM   15  C   UNL     1     -10.153   1.419 -32.931  1.00  0.00     0.143 A 
HETATM   16  C   UNL     1      -9.461   2.160 -33.860  1.00  0.00     0.027 A 
HETATM   17  C   UNL     1      -8.092   1.858 -33.663  1.00  0.00     0.045 A 
ENDBRANCH  10  13
ENDBRANCH   1   9
BRANCH   1  18
HETATM   18  C   UNL     1      -3.542   0.515 -31.754  1.00  0.00     0.240 C 
HETATM   19  N   UNL     1      -3.783   1.837 -32.068  1.00  0.00    -0.359 N 
HETATM   20  H   UNL     1      -4.580   2.045 -32.671  1.00  0.00     0.162 HD
HETATM   21  O   UNL     1      -2.644   0.166 -30.990  1.00  0.00    -0.271 OA
BRANCH  19  22
HETATM   22  C   UNL     1      -3.008   2.938 -31.533  1.00  0.00     0.127 C 
BRANCH  22  23
HETATM   23  C   UNL     1      -2.916   4.117 -32.509  1.00  0.00     0.058 C 
BRANCH  23  24
HETATM   24  C   UNL     1      -4.132   5.015 -32.574  1.00  0.00    -0.054 A 
HETATM   25  C   UNL     1      -5.219   4.718 -33.413  1.00  0.00     0.046 A 
HETATM   26  C   UNL     1      -6.337   5.547 -33.416  1.00  0.00     0.099 A 
HETATM   27  C   UNL     1      -6.391   6.661 -32.583  1.00  0.00     0.098 A 
HETATM   28  C   UNL     1      -5.334   6.969 -31.744  1.00  0.00     0.040 A 
HETATM   29  C   UNL     1      -4.207   6.145 -31.737  1.00  0.00     0.010 A 
BRANCH  26  30
HETATM   30  O   UNL     1      -7.412   5.304 -34.225  1.00  0.00    -0.358 OA
HETATM   31  H   UNL     1      -7.445   6.013 -34.891  1.00  0.00     0.218 HD
ENDBRANCH  26  30
BRANCH  27  32
HETATM   32  O   UNL     1      -7.497   7.462 -32.589  1.00  0.00    -0.358 OA
HETATM   33  H   UNL     1      -7.395   8.019 -31.792  1.00  0.00     0.218 HD
ENDBRANCH  27  32
ENDBRANCH  23  24
ENDBRANCH  22  23
ENDBRANCH  19  22
ENDBRANCH   1  18
TORSDOF 10
ENDMDL
MODEL 10
REMARK VINA RESULT:      -8.1      3.486      6.271
REMARK  10 active torsions:
REMARK  status: ('A' for Active; 'I' for Inactive)
REMARK    1  A    between atoms: C_4  and  C_5 
REMARK    2  A    between atoms: C_5  and  C_6 
REMARK    3  A    between atoms: C_6  and  N_7 
REMARK    4  A    between atoms: C_6  and  C_15 
REMARK       I    between atoms: N_7  and  C_8 
REMARK    5  A    between atoms: C_8  and  C_9 
REMARK       I    between atoms: C_15  and  N_16 
REMARK    6  A    between atoms: N_16  and  C_17 
REMARK    7  A    between atoms: C_17  and  C_18 
REMARK    8  A    between atoms: C_18  and  C_19 
REMARK    9  A    between atoms: C_21  and  O_22 
REMARK   10  A    between atoms: C_23  and  O_24 
ROOT
HETATM    1  C   UNL     1      -9.266   1.437 -32.816  1.00  0.00     0.181 C 
ENDROOT
BRANCH   1   2
HETATM    2  C   UNL     1      -8.805   1.011 -31.410  1.00  0.00     0.073 C 
BRANCH   2   3
HETATM    3  C   UNL     1      -7.614   1.790 -30.899  1.00  0.00    -0.056 A 
HETATM    4  C   UNL     1      -7.768   3.104 -30.434  1.00  0.00     0.007 A 
HETATM    5  C   UNL     1      -6.668   3.819 -29.955  1.00  0.00     0.001 A 
HETATM    6  C   UNL     1      -5.406   3.230 -29.934  1.00  0.00     0.000 A 
HETATM    7  C   UNL     1      -5.243   1.923 -30.389  1.00  0.00     0.001 A 
HETATM    8  C   UNL     1      -6.341   1.205 -30.865  1.00  0.00     0.007 A 
ENDBRANCH   2   3
ENDBRANCH   1   2
BRANCH   1   9
HETATM    9  N   UNL     1     -10.694   1.175 -33.016  1.00  0.00    -0.342 N 
HETATM   10  C   UNL     1     -11.526   2.006 -33.728  1.00  0.00     0.276 C 
HETATM   11  O   UNL     1     -11.091   2.977 -34.345  1.00  0.00    -0.265 OA
HETATM   12  H   UNL     1     -11.123   0.378 -32.556  1.00  0.00     0.163 HD
BRANCH  10  13
HETATM   13  C   UNL     1     -12.918   1.615 -33.717  1.00  0.00     0.142 A 
HETATM   14  O   UNL     1     -13.757   2.131 -32.763  1.00  0.00    -0.317 OA
HETATM   15  C   UNL     1     -14.988   1.599 -32.983  1.00  0.00     0.143 A 
HETATM   16  C   UNL     1     -14.960   0.744 -34.060  1.00  0.00     0.027 A 
HETATM   17  C   UNL     1     -13.626   0.754 -34.534  1.00  0.00     0.045 A 
ENDBRANCH  10  13
ENDBRANCH   1   9
BRANCH   1  18
HETATM   18  C   UNL     1      -8.426   0.706 -33.892  1.00  0.00     0.240 C 
HETATM   19  N   UNL     1      -8.112  -0.598 -33.566  1.00  0.00    -0.359 N 
HETATM   20  H   UNL     1      -8.450  -0.958 -32.672  1.00  0.00     0.162 HD
HETATM   21  O   UNL     1      -8.117   1.215 -34.968  1.00  0.00    -0.271 OA
BRANCH  19  22
HETATM   22  C   UNL     1      -7.394  -1.490 -34.451  1.00  0.00     0.127 C 
BRANCH  22  23
HETATM   23  C   UNL     1      -5.950  -1.034 -34.697  1.00  0.00     0.058 C 
BRANCH  23  24
HETATM   24  C   UNL     1      -4.905  -1.632 -33.779  1.00  0.00    -0.054 A 
HETATM   25  C   UNL     1      -4.267  -0.860 -32.794  1.00  0.00     0.046 A 
HETATM   26  C   UNL     1      -3.340  -1.456 -31.944  1.00  0.00     0.099 A 
HETATM   27  C   UNL     1      -3.052  -2.813 -32.053  1.00  0.00     0.098 A 
HETATM   28  C   UNL     1      -3.674  -3.593 -33.012  1.00  0.00     0.040 A 
HETATM   29  C   UNL     1      -4.603  -3.004 -33.873  1.00  0.00     0.010 A 
BRANCH  26  30
HETATM   30  O   UNL     1      -2.685  -0.742 -30.979  1.00  0.00    -0.358 OA
HETATM   31  H   UNL     1      -2.316   0.054 -31.401  1.00  0.00     0.218 HD
ENDBRANCH  26  30
BRANCH  27  32
HETATM   32  O   UNL     1      -2.147  -3.388 -31.206  1.00  0.00    -0.358 OA
HETATM   33  H   UNL     1      -2.670  -3.615 -30.413  1.00  0.00     0.218 HD
ENDBRANCH  27  32
ENDBRANCH  23  24
ENDBRANCH  22  23
ENDBRANCH  19  22
ENDBRANCH   1  18
TORSDOF 10
ENDMDL
