MODEL 1
REMARK VINA RESULT:      -9.3      0.000      0.000
REMARK  13 active torsions:
REMARK  status: ('A' for Active; 'I' for Inactive)
REMARK    1  A    between atoms: O_2  and  C_3 
REMARK    2  A    between atoms: C_6  and  C_7 
REMARK    3  A    between atoms: C_7  and  C_8 
REMARK    4  A    between atoms: C_9  and  C_10 
REMARK    5  A    between atoms: N_17  and  C_18 
REMARK    6  A    between atoms: C_18  and  C_19 
REMARK    7  A    between atoms: C_19  and  O_20 
REMARK    8  A    between atoms: C_19  and  C_21 
REMARK    9  A    between atoms: C_21  and  N_22 
REMARK   10  A    between atoms: N_22  and  C_25 
REMARK   11  A    between atoms: C_25  and  C_26 
REMARK   12  A    between atoms: C_26  and  C_27 
REMARK   13  A    between atoms: C_32  and  O_33 
ROOT
HETATM    1  C   UNL     1      -3.289  -0.575 -33.194  1.00  0.00     0.162 C 
ENDROOT
BRANCH   1   2
HETATM    2  N   UNL     1      -4.625  -0.934 -33.644  1.00  0.00    -0.353 N 
HETATM    3  C   UNL     1      -5.020  -2.191 -34.049  1.00  0.00     0.045 A 
HETATM    4  C   UNL     1      -6.396  -2.123 -34.312  1.00  0.00     0.002 A 
HETATM    5  C   UNL     1      -4.291  -3.388 -34.184  1.00  0.00     0.030 A 
HETATM    6  C   UNL     1      -6.797  -0.765 -34.097  1.00  0.00    -0.008 A 
HETATM    7  C   UNL     1      -7.056  -3.317 -34.688  1.00  0.00     0.014 A 
HETATM    8  C   UNL     1      -5.683  -0.067 -33.678  1.00  0.00     0.103 A 
HETATM    9  C   UNL     1      -6.336  -4.508 -34.827  1.00  0.00     0.001 A 
HETATM   10  C   UNL     1      -4.970  -4.539 -34.583  1.00  0.00     0.002 A 
BRANCH   6  11
HETATM   11  C   UNL     1      -8.074  -0.136 -34.229  1.00  0.00     0.018 C 
HETATM   12  C   UNL     1      -8.847   0.320 -33.230  1.00  0.00     0.056 C 
BRANCH  12  13
HETATM   13  C   UNL     1     -10.144   0.983 -33.544  1.00  0.00     0.182 C 
HETATM   14  O   UNL     1     -11.209   0.381 -33.435  1.00  0.00    -0.288 OA
BRANCH  13  15
HETATM   15  C   UNL     1     -10.125   2.381 -34.063  1.00  0.00     0.014 A 
HETATM   16  C   UNL     1      -9.134   3.312 -33.729  1.00  0.00     0.018 A 
HETATM   17  C   UNL     1      -9.161   4.593 -34.291  1.00  0.00     0.037 A 
HETATM   18  C   UNL     1     -10.171   4.966 -35.181  1.00  0.00     0.068 A 
HETATM   19  C   UNL     1     -11.178   4.054 -35.488  1.00  0.00     0.037 A 
HETATM   20  C   UNL     1     -11.156   2.769 -34.929  1.00  0.00     0.018 A 
BRANCH  18  21
HETATM   21  O   UNL     1     -10.062   6.239 -35.666  1.00  0.00    -0.356 OA
HETATM   22  C   UNL     1     -11.237   7.041 -35.641  1.00  0.00     0.210 C 
ENDBRANCH  18  21
ENDBRANCH  13  15
ENDBRANCH  12  13
ENDBRANCH   6  11
ENDBRANCH   1   2
BRANCH   1  23
HETATM   23  C   UNL     1      -3.120  -0.768 -31.679  1.00  0.00     0.162 C 
BRANCH  23  24
HETATM   24  O   UNL     1      -1.750  -1.000 -31.342  1.00  0.00    -0.392 OA
HETATM   25  H   UNL     1      -1.458  -1.843 -31.750  1.00  0.00     0.210 HD
ENDBRANCH  23  24
BRANCH  23  26
HETATM   26  C   UNL     1      -3.536   0.490 -30.892  1.00  0.00     0.265 C 
BRANCH  26  27
HETATM   27  N   UNL     1      -4.971   0.470 -30.454  1.00  0.00    -0.072 N 
HETATM   28  H   UNL     1      -5.537  -0.176 -31.019  1.00  0.00     0.277 HD
HETATM   29  H   UNL     1      -5.013   0.118 -29.486  1.00  0.00     0.277 HD
BRANCH  27  30
HETATM   30  C   UNL     1      -5.643   1.823 -30.453  1.00  0.00     0.237 C 
BRANCH  30  31
HETATM   31  C   UNL     1      -4.632   2.956 -30.638  1.00  0.00     0.068 C 
BRANCH  31  32
HETATM   32  C   UNL     1      -4.693   3.533 -32.011  1.00  0.00    -0.029 A 
HETATM   33  C   UNL     1      -3.697   4.351 -32.636  1.00  0.00     0.001 A 
HETATM   34  C   UNL     1      -4.157   4.664 -33.914  1.00  0.00     0.043 A 
HETATM   35  C   UNL     1      -2.443   4.855 -32.236  1.00  0.00     0.051 A 
HETATM   36  C   UNL     1      -3.427   5.458 -34.805  1.00  0.00     0.033 A 
HETATM   37  N   UNL     1      -5.377   4.052 -34.071  1.00  0.00    -0.365 N 
HETATM   38  C   UNL     1      -2.186   5.951 -34.377  1.00  0.00     0.039 A 
HETATM   39  C   UNL     1      -1.693   5.656 -33.109  1.00  0.00     0.069 A 
HETATM   40  H   UNL     1      -5.934   4.094 -34.915  1.00  0.00     0.165 HD
HETATM   41  C   UNL     1      -5.714   3.373 -32.927  1.00  0.00     0.096 A 
BRANCH  39  42
HETATM   42  O   UNL     1      -0.500   6.083 -32.590  1.00  0.00    -0.356 OA
HETATM   43  C   UNL     1      -0.031   5.418 -31.423  1.00  0.00     0.210 C 
ENDBRANCH  39  42
ENDBRANCH  31  32
ENDBRANCH  30  31
ENDBRANCH  27  30
ENDBRANCH  26  27
ENDBRANCH  23  26
ENDBRANCH   1  23
TORSDOF 13
ENDMDL
MODEL 2
REMARK VINA RESULT:      -9.2      2.710      8.117
REMARK  13 active torsions:
REMARK  status: ('A' for Active; 'I' for Inactive)
REMARK    1  A    between atoms: O_2  and  C_3 
REMARK    2  A    between atoms: C_6  and  C_7 
REMARK    3  A    between atoms: C_7  and  C_8 
REMARK    4  A    between atoms: C_9  and  C_10 
REMARK    5  A    between atoms: N_17  and  C_18 
REMARK    6  A    between atoms: C_18  and  C_19 
REMARK    7  A    between atoms: C_19  and  O_20 
REMARK    8  A    between atoms: C_19  and  C_21 
REMARK    9  A    between atoms: C_21  and  N_22 
REMARK   10  A    between atoms: N_22  and  C_25 
REMARK   11  A    between atoms: C_25  and  C_26 
REMARK   12  A    between atoms: C_26  and  C_27 
REMARK   13  A    between atoms: C_32  and  O_33 
ROOT
HETATM    1  C   UNL     1      -4.786   6.265 -29.672  1.00  0.00     0.162 C 
ENDROOT
BRANCH   1   2
HETATM    2  N   UNL     1      -4.485   5.548 -30.902  1.00  0.00    -0.353 N 
HETATM    3  C   UNL     1      -3.306   5.642 -31.612  1.00  0.00     0.045 A 
HETATM    4  C   UNL     1      -3.394   4.728 -32.673  1.00  0.00     0.002 A 
HETATM    5  C   UNL     1      -2.162   6.433 -31.399  1.00  0.00     0.030 A 
HETATM    6  C   UNL     1      -4.689   4.122 -32.597  1.00  0.00    -0.008 A 
HETATM    7  C   UNL     1      -2.269   4.590 -33.519  1.00  0.00     0.014 A 
HETATM    8  C   UNL     1      -5.327   4.645 -31.491  1.00  0.00     0.103 A 
HETATM    9  C   UNL     1      -1.130   5.377 -33.315  1.00  0.00     0.001 A 
HETATM   10  C   UNL     1      -1.083   6.291 -32.271  1.00  0.00     0.002 A 
BRANCH   6  11
HETATM   11  C   UNL     1      -5.309   3.136 -33.427  1.00  0.00     0.018 C 
HETATM   12  C   UNL     1      -5.663   1.894 -33.064  1.00  0.00     0.056 C 
BRANCH  12  13
HETATM   13  C   UNL     1      -6.333   0.999 -34.049  1.00  0.00     0.182 C 
HETATM   14  O   UNL     1      -7.266   1.397 -34.741  1.00  0.00    -0.288 OA
BRANCH  13  15
HETATM   15  C   UNL     1      -5.892  -0.424 -34.136  1.00  0.00     0.014 A 
HETATM   16  C   UNL     1      -4.710  -0.900 -33.558  1.00  0.00     0.018 A 
HETATM   17  C   UNL     1      -4.387  -2.259 -33.646  1.00  0.00     0.037 A 
HETATM   18  C   UNL     1      -5.224  -3.155 -34.312  1.00  0.00     0.068 A 
HETATM   19  C   UNL     1      -6.385  -2.679 -34.920  1.00  0.00     0.037 A 
HETATM   20  C   UNL     1      -6.715  -1.320 -34.834  1.00  0.00     0.018 A 
BRANCH  18  21
HETATM   21  O   UNL     1      -4.794  -4.452 -34.304  1.00  0.00    -0.356 OA
HETATM   22  C   UNL     1      -3.483  -4.693 -33.808  1.00  0.00     0.210 C 
ENDBRANCH  18  21
ENDBRANCH  13  15
ENDBRANCH  12  13
ENDBRANCH   6  11
ENDBRANCH   1   2
BRANCH   1  23
HETATM   23  C   UNL     1      -5.681   5.442 -28.731  1.00  0.00     0.162 C 
BRANCH  23  24
HETATM   24  O   UNL     1      -5.024   5.199 -27.485  1.00  0.00    -0.392 OA
HETATM   25  H   UNL     1      -4.106   4.899 -27.660  1.00  0.00     0.210 HD
ENDBRANCH  23  24
BRANCH  23  26
HETATM   26  C   UNL     1      -6.980   6.192 -28.378  1.00  0.00     0.265 C 
BRANCH  26  27
HETATM   27  N   UNL     1      -7.762   6.626 -29.583  1.00  0.00    -0.072 N 
HETATM   28  H   UNL     1      -7.988   7.629 -29.555  1.00  0.00     0.277 HD
HETATM   29  H   UNL     1      -7.178   6.486 -30.420  1.00  0.00     0.277 HD
BRANCH  27  30
HETATM   30  C   UNL     1      -9.039   5.853 -29.811  1.00  0.00     0.237 C 
BRANCH  30  31
HETATM   31  C   UNL     1      -9.071   5.211 -31.200  1.00  0.00     0.068 C 
BRANCH  31  32
HETATM   32  C   UNL     1      -8.869   3.736 -31.132  1.00  0.00    -0.029 A 
HETATM   33  C   UNL     1      -9.467   2.755 -31.987  1.00  0.00     0.001 A 
HETATM   34  C   UNL     1      -9.003   1.507 -31.577  1.00  0.00     0.043 A 
HETATM   35  C   UNL     1     -10.360   2.810 -33.076  1.00  0.00     0.051 A 
HETATM   36  C   UNL     1      -9.392   0.315 -32.198  1.00  0.00     0.033 A 
HETATM   37  N   UNL     1      -8.145   1.715 -30.524  1.00  0.00    -0.365 N 
HETATM   38  C   UNL     1     -10.287   0.400 -33.274  1.00  0.00     0.039 A 
HETATM   39  C   UNL     1     -10.769   1.630 -33.714  1.00  0.00     0.069 A 
HETATM   40  H   UNL     1      -7.644   0.981 -30.039  1.00  0.00     0.165 HD
HETATM   41  C   UNL     1      -8.062   3.055 -30.241  1.00  0.00     0.096 A 
BRANCH  39  42
HETATM   42  O   UNL     1     -11.643   1.828 -34.749  1.00  0.00    -0.356 OA
HETATM   43  C   UNL     1     -13.030   1.722 -34.450  1.00  0.00     0.210 C 
ENDBRANCH  39  42
ENDBRANCH  31  32
ENDBRANCH  30  31
ENDBRANCH  27  30
ENDBRANCH  26  27
ENDBRANCH  23  26
ENDBRANCH   1  23
TORSDOF 13
ENDMDL
MODEL 3
REMARK VINA RESULT:      -9.0      2.113      3.718
REMARK  13 active torsions:
REMARK  status: ('A' for Active; 'I' for Inactive)
REMARK    1  A    between atoms: O_2  and  C_3 
REMARK    2  A    between atoms: C_6  and  C_7 
REMARK    3  A    between atoms: C_7  and  C_8 
REMARK    4  A    between atoms: C_9  and  C_10 
REMARK    5  A    between atoms: N_17  and  C_18 
REMARK    6  A    between atoms: C_18  and  C_19 
REMARK    7  A    between atoms: C_19  and  O_20 
REMARK    8  A    between atoms: C_19  and  C_21 
REMARK    9  A    between atoms: C_21  and  N_22 
REMARK   10  A    between atoms: N_22  and  C_25 
REMARK   11  A    between atoms: C_25  and  C_26 
REMARK   12  A    between atoms: C_26  and  C_27 
REMARK   13  A    between atoms: C_32  and  O_33 
ROOT
HETATM    1  C   UNL     1      -3.407  -0.402 -33.198  1.00  0.00     0.162 C 
ENDROOT
BRANCH   1   2
HETATM    2  N   UNL     1      -4.719  -0.896 -33.591  1.00  0.00    -0.353 N 
HETATM    3  C   UNL     1      -4.994  -2.178 -34.018  1.00  0.00     0.045 A 
HETATM    4  C   UNL     1      -6.381  -2.258 -34.208  1.00  0.00     0.002 A 
HETATM    5  C   UNL     1      -4.145  -3.281 -34.230  1.00  0.00     0.030 A 
HETATM    6  C   UNL     1      -6.917  -0.960 -33.926  1.00  0.00    -0.008 A 
HETATM    7  C   UNL     1      -6.924  -3.507 -34.590  1.00  0.00     0.014 A 
HETATM    8  C   UNL     1      -5.866  -0.153 -33.542  1.00  0.00     0.103 A 
HETATM    9  C   UNL     1      -6.086  -4.606 -34.805  1.00  0.00     0.001 A 
HETATM   10  C   UNL     1      -4.713  -4.489 -34.633  1.00  0.00     0.002 A 
BRANCH   6  11
HETATM   11  C   UNL     1      -8.262  -0.474 -33.971  1.00  0.00     0.018 C 
HETATM   12  C   UNL     1      -8.967   0.020 -32.941  1.00  0.00     0.056 C 
BRANCH  12  13
HETATM   13  C   UNL     1     -10.354   0.515 -33.167  1.00  0.00     0.182 C 
HETATM   14  O   UNL     1     -11.315  -0.248 -33.134  1.00  0.00    -0.288 OA
BRANCH  13  15
HETATM   15  C   UNL     1     -10.553   1.954 -33.503  1.00  0.00     0.014 A 
HETATM   16  C   UNL     1     -11.774   2.619 -33.347  1.00  0.00     0.018 A 
HETATM   17  C   UNL     1     -11.870   3.984 -33.644  1.00  0.00     0.037 A 
HETATM   18  C   UNL     1     -10.764   4.698 -34.106  1.00  0.00     0.068 A 
HETATM   19  C   UNL     1      -9.555   4.031 -34.297  1.00  0.00     0.037 A 
HETATM   20  C   UNL     1      -9.452   2.666 -34.000  1.00  0.00     0.018 A 
BRANCH  18  21
HETATM   21  O   UNL     1     -10.997   6.025 -34.338  1.00  0.00    -0.356 OA
HETATM   22  C   UNL     1     -10.258   6.634 -35.390  1.00  0.00     0.210 C 
ENDBRANCH  18  21
ENDBRANCH  13  15
ENDBRANCH  12  13
ENDBRANCH   6  11
ENDBRANCH   1   2
BRANCH   1  23
HETATM   23  C   UNL     1      -3.278  -0.263 -31.673  1.00  0.00     0.162 C 
BRANCH  23  24
HETATM   24  O   UNL     1      -2.009  -0.742 -31.222  1.00  0.00    -0.392 OA
HETATM   25  H   UNL     1      -2.005  -1.722 -31.258  1.00  0.00     0.210 HD
ENDBRANCH  23  24
BRANCH  23  26
HETATM   26  C   UNL     1      -3.351   1.210 -31.225  1.00  0.00     0.265 C 
BRANCH  26  27
HETATM   27  N   UNL     1      -3.350   2.180 -32.371  1.00  0.00    -0.072 N 
HETATM   28  H   UNL     1      -2.468   2.704 -32.431  1.00  0.00     0.277 HD
HETATM   29  H   UNL     1      -3.430   1.649 -33.250  1.00  0.00     0.277 HD
BRANCH  27  30
HETATM   30  C   UNL     1      -4.495   3.165 -32.355  1.00  0.00     0.237 C 
BRANCH  30  31
HETATM   31  C   UNL     1      -4.939   3.493 -30.927  1.00  0.00     0.068 C 
BRANCH  31  32
HETATM   32  C   UNL     1      -6.382   3.186 -30.713  1.00  0.00    -0.029 A 
HETATM   33  C   UNL     1      -7.464   4.125 -30.734  1.00  0.00     0.001 A 
HETATM   34  C   UNL     1      -8.637   3.413 -30.492  1.00  0.00     0.043 A 
HETATM   35  C   UNL     1      -7.557   5.516 -30.938  1.00  0.00     0.051 A 
HETATM   36  C   UNL     1      -9.894   4.026 -30.440  1.00  0.00     0.033 A 
HETATM   37  N   UNL     1      -8.291   2.092 -30.344  1.00  0.00    -0.365 N 
HETATM   38  C   UNL     1      -9.956   5.411 -30.639  1.00  0.00     0.039 A 
HETATM   39  C   UNL     1      -8.805   6.155 -30.887  1.00  0.00     0.069 A 
HETATM   40  H   UNL     1      -8.950   1.342 -30.177  1.00  0.00     0.165 HD
HETATM   41  C   UNL     1      -6.933   1.944 -30.467  1.00  0.00     0.096 A 
BRANCH  39  42
HETATM   42  O   UNL     1      -8.749   7.507 -31.095  1.00  0.00    -0.356 OA
HETATM   43  C   UNL     1      -9.892   8.115 -31.687  1.00  0.00     0.210 C 
ENDBRANCH  39  42
ENDBRANCH  31  32
ENDBRANCH  30  31
ENDBRANCH  27  30
ENDBRANCH  26  27
ENDBRANCH  23  26
ENDBRANCH   1  23
TORSDOF 13
ENDMDL
MODEL 4
REMARK VINA RESULT:      -8.9      2.307      7.741
REMARK  13 active torsions:
REMARK  status: ('A' for Active; 'I' for Inactive)
REMARK    1  A    between atoms: O_2  and  C_3 
REMARK    2  A    between atoms: C_6  and  C_7 
REMARK    3  A    between atoms: C_7  and  C_8 
REMARK    4  A    between atoms: C_9  and  C_10 
REMARK    5  A    between atoms: N_17  and  C_18 
REMARK    6  A    between atoms: C_18  and  C_19 
REMARK    7  A    between atoms: C_19  and  O_20 
REMARK    8  A    between atoms: C_19  and  C_21 
REMARK    9  A    between atoms: C_21  and  N_22 
REMARK   10  A    between atoms: N_22  and  C_25 
REMARK   11  A    between atoms: C_25  and  C_26 
REMARK   12  A    between atoms: C_26  and  C_27 
REMARK   13  A    between atoms: C_32  and  O_33 
ROOT
HETATM    1  C   UNL     1      -4.641  -0.587 -31.491  1.00  0.00     0.162 C 
ENDROOT
BRANCH   1   2
HETATM    2  N   UNL     1      -4.489   0.856 -31.391  1.00  0.00    -0.353 N 
HETATM    3  C   UNL     1      -5.424   1.723 -30.866  1.00  0.00     0.045 A 
HETATM    4  C   UNL     1      -4.849   3.002 -30.876  1.00  0.00     0.002 A 
HETATM    5  C   UNL     1      -6.717   1.489 -30.360  1.00  0.00     0.030 A 
HETATM    6  C   UNL     1      -3.554   2.873 -31.474  1.00  0.00    -0.008 A 
HETATM    7  C   UNL     1      -5.597   4.067 -30.323  1.00  0.00     0.014 A 
HETATM    8  C   UNL     1      -3.365   1.538 -31.768  1.00  0.00     0.103 A 
HETATM    9  C   UNL     1      -6.883   3.841 -29.822  1.00  0.00     0.001 A 
HETATM   10  C   UNL     1      -7.437   2.568 -29.848  1.00  0.00     0.002 A 
BRANCH   6  11
HETATM   11  C   UNL     1      -2.547   3.853 -31.744  1.00  0.00     0.018 C 
HETATM   12  C   UNL     1      -2.547   4.742 -32.749  1.00  0.00     0.056 C 
BRANCH  12  13
HETATM   13  C   UNL     1      -1.430   5.720 -32.870  1.00  0.00     0.182 C 
HETATM   14  O   UNL     1      -0.813   5.856 -33.923  1.00  0.00    -0.288 OA
BRANCH  13  15
HETATM   15  C   UNL     1      -1.022   6.492 -31.660  1.00  0.00     0.014 A 
HETATM   16  C   UNL     1      -1.862   7.405 -31.011  1.00  0.00     0.018 A 
HETATM   17  C   UNL     1      -1.422   8.058 -29.854  1.00  0.00     0.037 A 
HETATM   18  C   UNL     1      -0.148   7.821 -29.335  1.00  0.00     0.068 A 
HETATM   19  C   UNL     1       0.704   6.939 -29.999  1.00  0.00     0.037 A 
HETATM   20  C   UNL     1       0.269   6.281 -31.156  1.00  0.00     0.018 A 
BRANCH  18  21
HETATM   21  O   UNL     1       0.141   8.513 -28.193  1.00  0.00    -0.356 OA
HETATM   22  C   UNL     1       1.509   8.578 -27.807  1.00  0.00     0.210 C 
ENDBRANCH  18  21
ENDBRANCH  13  15
ENDBRANCH  12  13
ENDBRANCH   6  11
ENDBRANCH   1   2
BRANCH   1  23
HETATM   23  C   UNL     1      -3.583  -1.216 -32.411  1.00  0.00     0.162 C 
BRANCH  23  24
HETATM   24  O   UNL     1      -3.212  -2.517 -31.949  1.00  0.00    -0.392 OA
HETATM   25  H   UNL     1      -3.032  -2.476 -30.986  1.00  0.00     0.210 HD
ENDBRANCH  23  24
BRANCH  23  26
HETATM   26  C   UNL     1      -4.117  -1.417 -33.843  1.00  0.00     0.265 C 
BRANCH  26  27
HETATM   27  N   UNL     1      -5.225  -2.425 -33.927  1.00  0.00    -0.072 N 
HETATM   28  H   UNL     1      -5.010  -3.180 -34.591  1.00  0.00     0.277 HD
HETATM   29  H   UNL     1      -5.330  -2.874 -33.006  1.00  0.00     0.277 HD
BRANCH  27  30
HETATM   30  C   UNL     1      -6.573  -1.843 -34.282  1.00  0.00     0.237 C 
BRANCH  30  31
HETATM   31  C   UNL     1      -6.469  -0.364 -34.656  1.00  0.00     0.068 C 
BRANCH  31  32
HETATM   32  C   UNL     1      -7.580   0.435 -34.068  1.00  0.00    -0.029 A 
HETATM   33  C   UNL     1      -7.593   1.853 -33.859  1.00  0.00     0.001 A 
HETATM   34  C   UNL     1      -8.823   2.179 -33.292  1.00  0.00     0.043 A 
HETATM   35  C   UNL     1      -6.673   2.892 -34.102  1.00  0.00     0.051 A 
HETATM   36  C   UNL     1      -9.173   3.491 -32.952  1.00  0.00     0.033 A 
HETATM   37  N   UNL     1      -9.540   1.013 -33.171  1.00  0.00    -0.365 N 
HETATM   38  C   UNL     1      -8.236   4.503 -33.198  1.00  0.00     0.039 A 
HETATM   39  C   UNL     1      -6.998   4.215 -33.767  1.00  0.00     0.069 A 
HETATM   40  H   UNL     1     -10.483   0.956 -32.805  1.00  0.00     0.165 HD
HETATM   41  C   UNL     1      -8.798  -0.046 -33.628  1.00  0.00     0.096 A 
BRANCH  39  42
HETATM   42  O   UNL     1      -6.011   5.121 -34.049  1.00  0.00    -0.356 OA
HETATM   43  C   UNL     1      -5.797   6.157 -33.096  1.00  0.00     0.210 C 
ENDBRANCH  39  42
ENDBRANCH  31  32
ENDBRANCH  30  31
ENDBRANCH  27  30
ENDBRANCH  26  27
ENDBRANCH  23  26
ENDBRANCH   1  23
TORSDOF 13
ENDMDL
MODEL 5
REMARK VINA RESULT:      -8.9      3.014      4.347
REMARK  13 active torsions:
REMARK  status: ('A' for Active; 'I' for Inactive)
REMARK    1  A    between atoms: O_2  and  C_3 
REMARK    2  A    between atoms: C_6  and  C_7 
REMARK    3  A    between atoms: C_7  and  C_8 
REMARK    4  A    between atoms: C_9  and  C_10 
REMARK    5  A    between atoms: N_17  and  C_18 
REMARK    6  A    between atoms: C_18  and  C_19 
REMARK    7  A    between atoms: C_19  and  O_20 
REMARK    8  A    between atoms: C_19  and  C_21 
REMARK    9  A    between atoms: C_21  and  N_22 
REMARK   10  A    between atoms: N_22  and  C_25 
REMARK   11  A    between atoms: C_25  and  C_26 
REMARK   12  A    between atoms: C_26  and  C_27 
REMARK   13  A    between atoms: C_32  and  O_33 
ROOT
HETATM    1  C   UNL     1      -5.363   0.870 -30.666  1.00  0.00     0.162 C 
ENDROOT
BRANCH   1   2
HETATM    2  N   UNL     1      -6.202   0.364 -31.742  1.00  0.00    -0.353 N 
HETATM    3  C   UNL     1      -5.821  -0.576 -32.677  1.00  0.00     0.045 A 
HETATM    4  C   UNL     1      -6.947  -0.845 -33.469  1.00  0.00     0.002 A 
HETATM    5  C   UNL     1      -4.592  -1.230 -32.878  1.00  0.00     0.030 A 
HETATM    6  C   UNL     1      -8.000   0.007 -33.003  1.00  0.00    -0.008 A 
HETATM    7  C   UNL     1      -6.827  -1.835 -34.472  1.00  0.00     0.014 A 
HETATM    8  C   UNL     1      -7.506   0.728 -31.935  1.00  0.00     0.103 A 
HETATM    9  C   UNL     1      -5.606  -2.486 -34.679  1.00  0.00     0.001 A 
HETATM   10  C   UNL     1      -4.502  -2.181 -33.895  1.00  0.00     0.002 A 
BRANCH   6  11
HETATM   11  C   UNL     1      -9.349   0.156 -33.453  1.00  0.00     0.018 C 
HETATM   12  C   UNL     1     -10.460  -0.017 -32.719  1.00  0.00     0.056 C 
BRANCH  12  13
HETATM   13  C   UNL     1     -11.796   0.210 -33.337  1.00  0.00     0.182 C 
HETATM   14  O   UNL     1     -12.625  -0.693 -33.413  1.00  0.00    -0.288 OA
BRANCH  13  15
HETATM   15  C   UNL     1     -12.091   1.547 -33.930  1.00  0.00     0.014 A 
HETATM   16  C   UNL     1     -12.202   2.717 -33.171  1.00  0.00     0.018 A 
HETATM   17  C   UNL     1     -12.437   3.942 -33.805  1.00  0.00     0.037 A 
HETATM   18  C   UNL     1     -12.572   4.018 -35.193  1.00  0.00     0.068 A 
HETATM   19  C   UNL     1     -12.498   2.850 -35.949  1.00  0.00     0.037 A 
HETATM   20  C   UNL     1     -12.261   1.621 -35.319  1.00  0.00     0.018 A 
BRANCH  18  21
HETATM   21  O   UNL     1     -12.781   5.279 -35.678  1.00  0.00    -0.356 OA
HETATM   22  C   UNL     1     -13.321   6.236 -34.774  1.00  0.00     0.210 C 
ENDBRANCH  18  21
ENDBRANCH  13  15
ENDBRANCH  12  13
ENDBRANCH   6  11
ENDBRANCH   1   2
BRANCH   1  23
HETATM   23  C   UNL     1      -5.077   2.372 -30.817  1.00  0.00     0.162 C 
BRANCH  23  24
HETATM   24  O   UNL     1      -5.170   3.038 -29.556  1.00  0.00    -0.392 OA
HETATM   25  H   UNL     1      -6.107   3.045 -29.265  1.00  0.00     0.210 HD
ENDBRANCH  23  24
BRANCH  23  26
HETATM   26  C   UNL     1      -3.645   2.634 -31.322  1.00  0.00     0.265 C 
BRANCH  26  27
HETATM   27  N   UNL     1      -3.179   4.040 -31.086  1.00  0.00    -0.072 N 
HETATM   28  H   UNL     1      -3.944   4.720 -31.183  1.00  0.00     0.277 HD
HETATM   29  H   UNL     1      -2.848   4.117 -30.113  1.00  0.00     0.277 HD
BRANCH  27  30
HETATM   30  C   UNL     1      -2.034   4.476 -31.970  1.00  0.00     0.237 C 
BRANCH  30  31
HETATM   31  C   UNL     1      -1.510   5.858 -31.575  1.00  0.00     0.068 C 
BRANCH  31  32
HETATM   32  C   UNL     1      -0.588   5.786 -30.406  1.00  0.00    -0.029 A 
HETATM   33  C   UNL     1      -0.410   6.790 -29.399  1.00  0.00     0.001 A 
HETATM   34  C   UNL     1       0.539   6.311 -28.498  1.00  0.00     0.043 A 
HETATM   35  C   UNL     1      -0.970   8.063 -29.167  1.00  0.00     0.051 A 
HETATM   36  C   UNL     1       0.957   7.045 -27.382  1.00  0.00     0.033 A 
HETATM   37  N   UNL     1       0.916   5.061 -28.925  1.00  0.00    -0.365 N 
HETATM   38  C   UNL     1       0.389   8.311 -27.180  1.00  0.00     0.039 A 
HETATM   39  C   UNL     1      -0.565   8.820 -28.058  1.00  0.00     0.069 A 
HETATM   40  H   UNL     1       1.583   4.469 -28.447  1.00  0.00     0.165 HD
HETATM   41  C   UNL     1       0.249   4.737 -30.079  1.00  0.00     0.096 A 
BRANCH  39  42
HETATM   42  O   UNL     1      -1.182  10.038 -27.958  1.00  0.00    -0.356 OA
HETATM   43  C   UNL     1      -0.616  10.973 -27.046  1.00  0.00     0.210 C 
ENDBRANCH  39  42
ENDBRANCH  31  32
ENDBRANCH  30  31
ENDBRANCH  27  30
ENDBRANCH  26  27
ENDBRANCH  23  26
ENDBRANCH   1  23
TORSDOF 13
ENDMDL
MODEL 6
REMARK VINA RESULT:      -8.8      2.030      8.305
REMARK  13 active torsions:
REMARK  status: ('A' for Active; 'I' for Inactive)
REMARK    1  A    between atoms: O_2  and  C_3 
REMARK    2  A    between atoms: C_6  and  C_7 
REMARK    3  A    between atoms: C_7  and  C_8 
REMARK    4  A    between atoms: C_9  and  C_10 
REMARK    5  A    between atoms: N_17  and  C_18 
REMARK    6  A    between atoms: C_18  and  C_19 
REMARK    7  A    between atoms: C_19  and  O_20 
REMARK    8  A    between atoms: C_19  and  C_21 
REMARK    9  A    between atoms: C_21  and  N_22 
REMARK   10  A    between atoms: N_22  and  C_25 
REMARK   11  A    between atoms: C_25  and  C_26 
REMARK   12  A    between atoms: C_26  and  C_27 
REMARK   13  A    between atoms: C_32  and  O_33 
ROOT
HETATM    1  C   UNL     1      -4.760  -0.682 -31.654  1.00  0.00     0.162 C 
ENDROOT
BRANCH   1   2
HETATM    2  N   UNL     1      -4.665   0.769 -31.615  1.00  0.00    -0.353 N 
HETATM    3  C   UNL     1      -5.652   1.622 -31.167  1.00  0.00     0.045 A 
HETATM    4  C   UNL     1      -5.123   2.920 -31.215  1.00  0.00     0.002 A 
HETATM    5  C   UNL     1      -6.954   1.361 -30.701  1.00  0.00     0.030 A 
HETATM    6  C   UNL     1      -3.802   2.814 -31.756  1.00  0.00    -0.008 A 
HETATM    7  C   UNL     1      -5.932   3.979 -30.740  1.00  0.00     0.014 A 
HETATM    8  C   UNL     1      -3.553   1.476 -31.981  1.00  0.00     0.103 A 
HETATM    9  C   UNL     1      -7.228   3.727 -30.279  1.00  0.00     0.001 A 
HETATM   10  C   UNL     1      -7.733   2.434 -30.267  1.00  0.00     0.002 A 
BRANCH   6  11
HETATM   11  C   UNL     1      -2.822   3.819 -32.032  1.00  0.00     0.018 C 
HETATM   12  C   UNL     1      -2.425   4.236 -33.245  1.00  0.00     0.056 C 
BRANCH  12  13
HETATM   13  C   UNL     1      -1.410   5.321 -33.357  1.00  0.00     0.182 C 
HETATM   14  O   UNL     1      -1.015   5.713 -34.452  1.00  0.00    -0.288 OA
BRANCH  13  15
HETATM   15  C   UNL     1      -0.823   5.882 -32.106  1.00  0.00     0.014 A 
HETATM   16  C   UNL     1       0.241   5.286 -31.420  1.00  0.00     0.018 A 
HETATM   17  C   UNL     1       0.765   5.897 -30.276  1.00  0.00     0.037 A 
HETATM   18  C   UNL     1       0.237   7.097 -29.796  1.00  0.00     0.068 A 
HETATM   19  C   UNL     1      -0.846   7.676 -30.456  1.00  0.00     0.037 A 
HETATM   20  C   UNL     1      -1.374   7.069 -31.603  1.00  0.00     0.018 A 
BRANCH  18  21
HETATM   21  O   UNL     1       0.857   7.589 -28.682  1.00  0.00    -0.356 OA
HETATM   22  C   UNL     1       0.658   6.878 -27.466  1.00  0.00     0.210 C 
ENDBRANCH  18  21
ENDBRANCH  13  15
ENDBRANCH  12  13
ENDBRANCH   6  11
ENDBRANCH   1   2
BRANCH   1  23
HETATM   23  C   UNL     1      -3.870  -1.289 -32.750  1.00  0.00     0.162 C 
BRANCH  23  24
HETATM   24  O   UNL     1      -3.460  -2.613 -32.400  1.00  0.00    -0.392 OA
HETATM   25  H   UNL     1      -2.490  -2.692 -32.527  1.00  0.00     0.210 HD
ENDBRANCH  23  24
BRANCH  23  26
HETATM   26  C   UNL     1      -4.624  -1.426 -34.087  1.00  0.00     0.265 C 
BRANCH  26  27
HETATM   27  N   UNL     1      -5.897  -2.211 -33.974  1.00  0.00    -0.072 N 
HETATM   28  H   UNL     1      -5.989  -2.907 -34.724  1.00  0.00     0.277 HD
HETATM   29  H   UNL     1      -5.879  -2.740 -33.090  1.00  0.00     0.277 HD
BRANCH  27  30
HETATM   30  C   UNL     1      -7.150  -1.367 -33.948  1.00  0.00     0.237 C 
BRANCH  30  31
HETATM   31  C   UNL     1      -7.172  -0.352 -35.093  1.00  0.00     0.068 C 
BRANCH  31  32
HETATM   32  C   UNL     1      -7.462   1.026 -34.605  1.00  0.00    -0.029 A 
HETATM   33  C   UNL     1      -8.728   1.521 -34.153  1.00  0.00     0.001 A 
HETATM   34  C   UNL     1      -8.547   2.853 -33.786  1.00  0.00     0.043 A 
HETATM   35  C   UNL     1     -10.014   0.960 -34.019  1.00  0.00     0.051 A 
HETATM   36  C   UNL     1      -9.589   3.649 -33.298  1.00  0.00     0.033 A 
HETATM   37  N   UNL     1      -7.223   3.158 -33.990  1.00  0.00    -0.365 N 
HETATM   38  C   UNL     1     -10.859   3.067 -33.183  1.00  0.00     0.039 A 
HETATM   39  C   UNL     1     -11.077   1.738 -33.536  1.00  0.00     0.069 A 
HETATM   40  H   UNL     1      -6.805   4.058 -33.789  1.00  0.00     0.165 HD
HETATM   41  C   UNL     1      -6.560   2.067 -34.491  1.00  0.00     0.096 A 
BRANCH  39  42
HETATM   42  O   UNL     1     -12.270   1.071 -33.465  1.00  0.00    -0.356 OA
HETATM   43  C   UNL     1     -13.071   1.057 -34.641  1.00  0.00     0.210 C 
ENDBRANCH  39  42
ENDBRANCH  31  32
ENDBRANCH  30  31
ENDBRANCH  27  30
ENDBRANCH  26  27
ENDBRANCH  23  26
ENDBRANCH   1  23
TORSDOF 13
ENDMDL
MODEL 7
REMARK VINA RESULT:      -8.7      2.717      8.255
REMARK  13 active torsions:
REMARK  status: ('A' for Active; 'I' for Inactive)
REMARK    1  A    between atoms: O_2  and  C_3 
REMARK    2  A    between atoms: C_6  and  C_7 
REMARK    3  A    between atoms: C_7  and  C_8 
REMARK    4  A    between atoms: C_9  and  C_10 
REMARK    5  A    between atoms: N_17  and  C_18 
REMARK    6  A    between atoms: C_18  and  C_19 
REMARK    7  A    between atoms: C_19  and  O_20 
REMARK    8  A    between atoms: C_19  and  C_21 
REMARK    9  A    between atoms: C_21  and  N_22 
REMARK   10  A    between atoms: N_22  and  C_25 
REMARK   11  A    between atoms: C_25  and  C_26 
REMARK   12  A    between atoms: C_26  and  C_27 
REMARK   13  A    between atoms: C_32  and  O_33 
ROOT
HETATM    1  C   UNL     1      -4.559   7.375 -30.675  1.00  0.00     0.162 C 
ENDROOT
BRANCH   1   2
HETATM    2  N   UNL     1      -4.009   6.185 -31.306  1.00  0.00    -0.353 N 
HETATM    3  C   UNL     1      -3.132   6.179 -32.370  1.00  0.00     0.045 A 
HETATM    4  C   UNL     1      -2.784   4.841 -32.607  1.00  0.00     0.002 A 
HETATM    5  C   UNL     1      -2.596   7.236 -33.129  1.00  0.00     0.030 A 
HETATM    6  C   UNL     1      -3.527   4.045 -31.675  1.00  0.00    -0.008 A 
HETATM    7  C   UNL     1      -1.836   4.575 -33.622  1.00  0.00     0.014 A 
HETATM    8  C   UNL     1      -4.260   4.908 -30.887  1.00  0.00     0.103 A 
HETATM    9  C   UNL     1      -1.302   5.621 -34.381  1.00  0.00     0.001 A 
HETATM   10  C   UNL     1      -1.684   6.933 -34.140  1.00  0.00     0.002 A 
BRANCH   6  11
HETATM   11  C   UNL     1      -3.567   2.629 -31.481  1.00  0.00     0.018 C 
HETATM   12  C   UNL     1      -3.816   1.700 -32.418  1.00  0.00     0.056 C 
BRANCH  12  13
HETATM   13  C   UNL     1      -3.789   0.256 -32.051  1.00  0.00     0.182 C 
HETATM   14  O   UNL     1      -3.149  -0.143 -31.083  1.00  0.00    -0.288 OA
BRANCH  13  15
HETATM   15  C   UNL     1      -4.503  -0.716 -32.928  1.00  0.00     0.014 A 
HETATM   16  C   UNL     1      -4.040  -2.014 -33.175  1.00  0.00     0.018 A 
HETATM   17  C   UNL     1      -4.790  -2.883 -33.976  1.00  0.00     0.037 A 
HETATM   18  C   UNL     1      -5.998  -2.474 -34.544  1.00  0.00     0.068 A 
HETATM   19  C   UNL     1      -6.445  -1.172 -34.329  1.00  0.00     0.037 A 
HETATM   20  C   UNL     1      -5.700  -0.297 -33.527  1.00  0.00     0.018 A 
BRANCH  18  21
HETATM   21  O   UNL     1      -6.633  -3.431 -35.286  1.00  0.00    -0.356 OA
HETATM   22  C   UNL     1      -6.070  -4.738 -35.268  1.00  0.00     0.210 C 
ENDBRANCH  18  21
ENDBRANCH  13  15
ENDBRANCH  12  13
ENDBRANCH   6  11
ENDBRANCH   1   2
BRANCH   1  23
HETATM   23  C   UNL     1      -5.271   7.049 -29.353  1.00  0.00     0.162 C 
BRANCH  23  24
HETATM   24  O   UNL     1      -4.844   7.931 -28.312  1.00  0.00    -0.392 OA
HETATM   25  H   UNL     1      -5.612   8.453 -27.999  1.00  0.00     0.210 HD
ENDBRANCH  23  24
BRANCH  23  26
HETATM   26  C   UNL     1      -6.797   7.242 -29.463  1.00  0.00     0.265 C 
BRANCH  26  27
HETATM   27  N   UNL     1      -7.578   6.301 -28.593  1.00  0.00    -0.072 N 
HETATM   28  H   UNL     1      -7.325   6.393 -27.601  1.00  0.00     0.277 HD
HETATM   29  H   UNL     1      -8.576   6.546 -28.660  1.00  0.00     0.277 HD
BRANCH  27  30
HETATM   30  C   UNL     1      -7.461   4.847 -28.985  1.00  0.00     0.237 C 
BRANCH  30  31
HETATM   31  C   UNL     1      -8.010   4.594 -30.390  1.00  0.00     0.068 C 
BRANCH  31  32
HETATM   32  C   UNL     1      -8.027   3.142 -30.725  1.00  0.00    -0.029 A 
HETATM   33  C   UNL     1      -8.937   2.483 -31.614  1.00  0.00     0.001 A 
HETATM   34  C   UNL     1      -8.593   1.133 -31.636  1.00  0.00     0.043 A 
HETATM   35  C   UNL     1     -10.021   2.909 -32.407  1.00  0.00     0.051 A 
HETATM   36  C   UNL     1      -9.284   0.191 -32.407  1.00  0.00     0.033 A 
HETATM   37  N   UNL     1      -7.510   0.973 -30.806  1.00  0.00    -0.365 N 
HETATM   38  C   UNL     1     -10.363   0.642 -33.180  1.00  0.00     0.039 A 
HETATM   39  C   UNL     1     -10.733   1.984 -33.186  1.00  0.00     0.069 A 
HETATM   40  H   UNL     1      -7.036   0.092 -30.646  1.00  0.00     0.165 HD
HETATM   41  C   UNL     1      -7.164   2.175 -30.245  1.00  0.00     0.096 A 
BRANCH  39  42
HETATM   42  O   UNL     1     -11.765   2.532 -33.899  1.00  0.00    -0.356 OA
HETATM   43  C   UNL     1     -12.766   3.220 -33.157  1.00  0.00     0.210 C 
ENDBRANCH  39  42
ENDBRANCH  31  32
ENDBRANCH  30  31
ENDBRANCH  27  30
ENDBRANCH  26  27
ENDBRANCH  23  26
ENDBRANCH   1  23
TORSDOF 13
ENDMDL
MODEL 8
REMARK VINA RESULT:      -8.6      1.797      2.958
REMARK  13 active torsions:
REMARK  status: ('A' for Active; 'I' for Inactive)
REMARK    1  A    between atoms: O_2  and  C_3 
REMARK    2  A    between atoms: C_6  and  C_7 
REMARK    3  A    between atoms: C_7  and  C_8 
REMARK    4  A    between atoms: C_9  and  C_10 
REMARK    5  A    between atoms: N_17  and  C_18 
REMARK    6  A    between atoms: C_18  and  C_19 
REMARK    7  A    between atoms: C_19  and  O_20 
REMARK    8  A    between atoms: C_19  and  C_21 
REMARK    9  A    between atoms: C_21  and  N_22 
REMARK   10  A    between atoms: N_22  and  C_25 
REMARK   11  A    between atoms: C_25  and  C_26 
REMARK   12  A    between atoms: C_26  and  C_27 
REMARK   13  A    between atoms: C_32  and  O_33 
ROOT
HETATM    1  C   UNL     1      -3.145  -0.287 -32.966  1.00  0.00     0.162 C 
ENDROOT
BRANCH   1   2
HETATM    2  N   UNL     1      -4.485  -0.419 -33.517  1.00  0.00    -0.353 N 
HETATM    3  C   UNL     1      -5.052  -1.594 -33.962  1.00  0.00     0.045 A 
HETATM    4  C   UNL     1      -6.374  -1.298 -34.326  1.00  0.00     0.002 A 
HETATM    5  C   UNL     1      -4.525  -2.896 -34.054  1.00  0.00     0.030 A 
HETATM    6  C   UNL     1      -6.558   0.108 -34.127  1.00  0.00    -0.008 A 
HETATM    7  C   UNL     1      -7.194  -2.366 -34.761  1.00  0.00     0.014 A 
HETATM    8  C   UNL     1      -5.377   0.612 -33.621  1.00  0.00     0.103 A 
HETATM    9  C   UNL     1      -6.674  -3.661 -34.857  1.00  0.00     0.001 A 
HETATM   10  C   UNL     1      -5.354  -3.919 -34.514  1.00  0.00     0.002 A 
BRANCH   6  11
HETATM   11  C   UNL     1      -7.700   0.942 -34.347  1.00  0.00     0.018 C 
HETATM   12  C   UNL     1      -8.127   1.937 -33.554  1.00  0.00     0.056 C 
BRANCH  12  13
HETATM   13  C   UNL     1      -9.323   2.733 -33.947  1.00  0.00     0.182 C 
HETATM   14  O   UNL     1      -9.215   3.885 -34.357  1.00  0.00    -0.288 OA
BRANCH  13  15
HETATM   15  C   UNL     1     -10.674   2.127 -33.768  1.00  0.00     0.014 A 
HETATM   16  C   UNL     1     -11.858   2.874 -33.760  1.00  0.00     0.018 A 
HETATM   17  C   UNL     1     -13.092   2.227 -33.631  1.00  0.00     0.037 A 
HETATM   18  C   UNL     1     -13.166   0.839 -33.500  1.00  0.00     0.068 A 
HETATM   19  C   UNL     1     -11.987   0.095 -33.471  1.00  0.00     0.037 A 
HETATM   20  C   UNL     1     -10.749   0.736 -33.603  1.00  0.00     0.018 A 
BRANCH  18  21
HETATM   21  O   UNL     1     -14.435   0.341 -33.401  1.00  0.00    -0.356 OA
HETATM   22  C   UNL     1     -15.326   0.632 -34.471  1.00  0.00     0.210 C 
ENDBRANCH  18  21
ENDBRANCH  13  15
ENDBRANCH  12  13
ENDBRANCH   6  11
ENDBRANCH   1   2
BRANCH   1  23
HETATM   23  C   UNL     1      -3.169   0.044 -31.465  1.00  0.00     0.162 C 
BRANCH  23  24
HETATM   24  O   UNL     1      -1.952  -0.360 -30.833  1.00  0.00    -0.392 OA
HETATM   25  H   UNL     1      -1.334  -0.700 -31.515  1.00  0.00     0.210 HD
ENDBRANCH  23  24
BRANCH  23  26
HETATM   26  C   UNL     1      -3.285   1.561 -31.216  1.00  0.00     0.265 C 
BRANCH  26  27
HETATM   27  N   UNL     1      -4.569   1.956 -30.548  1.00  0.00    -0.072 N 
HETATM   28  H   UNL     1      -5.331   1.298 -30.757  1.00  0.00     0.277 HD
HETATM   29  H   UNL     1      -4.432   1.922 -29.527  1.00  0.00     0.277 HD
BRANCH  27  30
HETATM   30  C   UNL     1      -5.039   3.354 -30.876  1.00  0.00     0.237 C 
BRANCH  30  31
HETATM   31  C   UNL     1      -4.540   3.809 -32.249  1.00  0.00     0.068 C 
BRANCH  31  32
HETATM   32  C   UNL     1      -3.982   5.191 -32.205  1.00  0.00    -0.029 A 
HETATM   33  C   UNL     1      -2.633   5.554 -31.890  1.00  0.00     0.001 A 
HETATM   34  C   UNL     1      -2.547   6.943 -31.969  1.00  0.00     0.043 A 
HETATM   35  C   UNL     1      -1.473   4.832 -31.547  1.00  0.00     0.051 A 
HETATM   36  C   UNL     1      -1.361   7.641 -31.717  1.00  0.00     0.033 A 
HETATM   37  N   UNL     1      -3.787   7.410 -32.331  1.00  0.00    -0.365 N 
HETATM   38  C   UNL     1      -0.224   6.897 -31.371  1.00  0.00     0.039 A 
HETATM   39  C   UNL     1      -0.271   5.508 -31.286  1.00  0.00     0.069 A 
HETATM   40  H   UNL     1      -4.011   8.386 -32.481  1.00  0.00     0.165 HD
HETATM   41  C   UNL     1      -4.663   6.364 -32.468  1.00  0.00     0.096 A 
BRANCH  39  42
HETATM   42  O   UNL     1       0.773   4.685 -30.957  1.00  0.00    -0.356 OA
HETATM   43  C   UNL     1       1.044   4.513 -29.571  1.00  0.00     0.210 C 
ENDBRANCH  39  42
ENDBRANCH  31  32
ENDBRANCH  30  31
ENDBRANCH  27  30
ENDBRANCH  26  27
ENDBRANCH  23  26
ENDBRANCH   1  23
TORSDOF 13
ENDMDL
MODEL 9
REMARK VINA RESULT:      -8.5      4.070      8.017
REMARK  13 active torsions:
REMARK  status: ('A' for Active; 'I' for Inactive)
REMARK    1  A    between atoms: O_2  and  C_3 
REMARK    2  A    between atoms: C_6  and  C_7 
REMARK    3  A    between atoms: C_7  and  C_8 
REMARK    4  A    between atoms: C_9  and  C_10 
REMARK    5  A    between atoms: N_17  and  C_18 
REMARK    6  A    between atoms: C_18  and  C_19 
REMARK    7  A    between atoms: C_19  and  O_20 
REMARK    8  A    between atoms: C_19  and  C_21 
REMARK    9  A    between atoms: C_21  and  N_22 
REMARK   10  A    between atoms: N_22  and  C_25 
REMARK   11  A    between atoms: C_25  and  C_26 
REMARK   12  A    between atoms: C_26  and  C_27 
REMARK   13  A    between atoms: C_32  and  O_33 
ROOT
HETATM    1  C   UNL     1      -4.510   7.723 -31.133  1.00  0.00     0.162 C 
ENDROOT
BRANCH   1   2
HETATM    2  N   UNL     1      -4.398   6.711 -32.173  1.00  0.00    -0.353 N 
HETATM    3  C   UNL     1      -3.289   6.500 -32.964  1.00  0.00     0.045 A 
HETATM    4  C   UNL     1      -3.565   5.382 -33.765  1.00  0.00     0.002 A 
HETATM    5  C   UNL     1      -2.058   7.180 -33.027  1.00  0.00     0.030 A 
HETATM    6  C   UNL     1      -4.900   4.966 -33.457  1.00  0.00    -0.008 A 
HETATM    7  C   UNL     1      -2.544   4.922 -34.630  1.00  0.00     0.014 A 
HETATM    8  C   UNL     1      -5.376   5.802 -32.468  1.00  0.00     0.103 A 
HETATM    9  C   UNL     1      -1.320   5.595 -34.699  1.00  0.00     0.001 A 
HETATM   10  C   UNL     1      -1.085   6.714 -33.911  1.00  0.00     0.002 A 
BRANCH   6  11
HETATM   11  C   UNL     1      -5.689   3.895 -33.982  1.00  0.00     0.018 C 
HETATM   12  C   UNL     1      -6.304   2.934 -33.274  1.00  0.00     0.056 C 
BRANCH  12  13
HETATM   13  C   UNL     1      -7.118   1.904 -33.978  1.00  0.00     0.182 C 
HETATM   14  O   UNL     1      -8.220   2.175 -34.448  1.00  0.00    -0.288 OA
BRANCH  13  15
HETATM   15  C   UNL     1      -6.599   0.507 -34.045  1.00  0.00     0.014 A 
HETATM   16  C   UNL     1      -7.271  -0.532 -34.699  1.00  0.00     0.018 A 
HETATM   17  C   UNL     1      -6.697  -1.808 -34.756  1.00  0.00     0.037 A 
HETATM   18  C   UNL     1      -5.462  -2.067 -34.160  1.00  0.00     0.068 A 
HETATM   19  C   UNL     1      -4.807  -1.044 -33.477  1.00  0.00     0.037 A 
HETATM   20  C   UNL     1      -5.375   0.236 -33.418  1.00  0.00     0.018 A 
BRANCH  18  21
HETATM   21  O   UNL     1      -5.015  -3.350 -34.309  1.00  0.00    -0.356 OA
HETATM   22  C   UNL     1      -5.855  -4.246 -35.028  1.00  0.00     0.210 C 
ENDBRANCH  18  21
ENDBRANCH  13  15
ENDBRANCH  12  13
ENDBRANCH   6  11
ENDBRANCH   1   2
BRANCH   1  23
HETATM   23  C   UNL     1      -4.731   7.101 -29.745  1.00  0.00     0.162 C 
BRANCH  23  24
HETATM   24  O   UNL     1      -3.706   6.152 -29.442  1.00  0.00    -0.392 OA
HETATM   25  H   UNL     1      -3.888   5.753 -28.565  1.00  0.00     0.210 HD
ENDBRANCH  23  24
BRANCH  23  26
HETATM   26  C   UNL     1      -4.665   8.159 -28.627  1.00  0.00     0.265 C 
BRANCH  26  27
HETATM   27  N   UNL     1      -4.292   9.525 -29.123  1.00  0.00    -0.072 N 
HETATM   28  H   UNL     1      -3.644   9.482 -29.920  1.00  0.00     0.277 HD
HETATM   29  H   UNL     1      -5.143   9.992 -29.469  1.00  0.00     0.277 HD
BRANCH  27  30
HETATM   30  C   UNL     1      -3.699  10.431 -28.070  1.00  0.00     0.237 C 
BRANCH  30  31
HETATM   31  C   UNL     1      -2.369  11.034 -28.528  1.00  0.00     0.068 C 
BRANCH  31  32
HETATM   32  C   UNL     1      -1.208  10.387 -27.853  1.00  0.00    -0.029 A 
HETATM   33  C   UNL     1      -0.676   9.087 -28.134  1.00  0.00     0.001 A 
HETATM   34  C   UNL     1       0.404   8.885 -27.277  1.00  0.00     0.043 A 
HETATM   35  C   UNL     1      -1.011   8.060 -29.039  1.00  0.00     0.051 A 
HETATM   36  C   UNL     1       1.160   7.707 -27.280  1.00  0.00     0.033 A 
HETATM   37  N   UNL     1       0.538  10.019 -26.513  1.00  0.00    -0.365 N 
HETATM   38  C   UNL     1       0.800   6.701 -28.186  1.00  0.00     0.039 A 
HETATM   39  C   UNL     1      -0.271   6.868 -29.060  1.00  0.00     0.069 A 
HETATM   40  H   UNL     1       1.258  10.158 -25.815  1.00  0.00     0.165 HD
HETATM   41  C   UNL     1      -0.433  10.929 -26.846  1.00  0.00     0.096 A 
BRANCH  39  42
HETATM   42  O   UNL     1      -0.709   5.954 -29.981  1.00  0.00    -0.356 OA
HETATM   43  C   UNL     1       0.288   5.263 -30.725  1.00  0.00     0.210 C 
ENDBRANCH  39  42
ENDBRANCH  31  32
ENDBRANCH  30  31
ENDBRANCH  27  30
ENDBRANCH  26  27
ENDBRANCH  23  26
ENDBRANCH   1  23
TORSDOF 13
ENDMDL
MODEL 10
REMARK VINA RESULT:      -8.5      2.445      7.078
REMARK  13 active torsions:
REMARK  status: ('A' for Active; 'I' for Inactive)
REMARK    1  A    between atoms: O_2  and  C_3 
REMARK    2  A    between atoms: C_6  and  C_7 
REMARK    3  A    between atoms: C_7  and  C_8 
REMARK    4  A    between atoms: C_9  and  C_10 
REMARK    5  A    between atoms: N_17  and  C_18 
REMARK    6  A    between atoms: C_18  and  C_19 
REMARK    7  A    between atoms: C_19  and  O_20 
REMARK    8  A    between atoms: C_19  and  C_21 
REMARK    9  A    between atoms: C_21  and  N_22 
REMARK   10  A    between atoms: N_22  and  C_25 
REMARK   11  A    between atoms: C_25  and  C_26 
REMARK   12  A    between atoms: C_26  and  C_27 
REMARK   13  A    between atoms: C_32  and  O_33 
ROOT
HETATM    1  C   UNL     1     -11.032   4.667 -35.449  1.00  0.00     0.162 C 
ENDROOT
BRANCH   1   2
HETATM    2  N   UNL     1     -10.842   3.444 -34.683  1.00  0.00    -0.353 N 
HETATM    3  C   UNL     1     -11.797   2.469 -34.486  1.00  0.00     0.045 A 
HETATM    4  C   UNL     1     -11.180   1.430 -33.775  1.00  0.00     0.002 A 
HETATM    5  C   UNL     1     -13.143   2.402 -34.893  1.00  0.00     0.030 A 
HETATM    6  C   UNL     1      -9.834   1.844 -33.511  1.00  0.00    -0.008 A 
HETATM    7  C   UNL     1     -11.946   0.273 -33.501  1.00  0.00     0.014 A 
HETATM    8  C   UNL     1      -9.662   3.083 -34.093  1.00  0.00     0.103 A 
HETATM    9  C   UNL     1     -13.284   0.200 -33.900  1.00  0.00     0.001 A 
HETATM   10  C   UNL     1     -13.875   1.256 -34.581  1.00  0.00     0.002 A 
BRANCH   6  11
HETATM   11  C   UNL     1      -8.772   1.184 -32.817  1.00  0.00     0.018 C 
HETATM   12  C   UNL     1      -7.458   1.416 -32.961  1.00  0.00     0.056 C 
BRANCH  12  13
HETATM   13  C   UNL     1      -6.479   0.657 -32.133  1.00  0.00     0.182 C 
HETATM   14  O   UNL     1      -6.225   0.993 -30.979  1.00  0.00    -0.288 OA
BRANCH  13  15
HETATM   15  C   UNL     1      -5.754  -0.488 -32.755  1.00  0.00     0.014 A 
HETATM   16  C   UNL     1      -4.572  -1.025 -32.232  1.00  0.00     0.018 A 
HETATM   17  C   UNL     1      -3.974  -2.130 -32.849  1.00  0.00     0.037 A 
HETATM   18  C   UNL     1      -4.534  -2.705 -33.991  1.00  0.00     0.068 A 
HETATM   19  C   UNL     1      -5.691  -2.151 -34.536  1.00  0.00     0.037 A 
HETATM   20  C   UNL     1      -6.296  -1.047 -33.921  1.00  0.00     0.018 A 
BRANCH  18  21
HETATM   21  O   UNL     1      -3.854  -3.788 -34.476  1.00  0.00    -0.356 OA
HETATM   22  C   UNL     1      -3.589  -4.845 -33.562  1.00  0.00     0.210 C 
ENDBRANCH  18  21
ENDBRANCH  13  15
ENDBRANCH  12  13
ENDBRANCH   6  11
ENDBRANCH   1   2
BRANCH   1  23
HETATM   23  C   UNL     1     -11.333   5.872 -34.545  1.00  0.00     0.162 C 
BRANCH  23  24
HETATM   24  O   UNL     1     -12.089   5.475 -33.399  1.00  0.00    -0.392 OA
HETATM   25  H   UNL     1     -11.876   6.073 -32.652  1.00  0.00     0.210 HD
ENDBRANCH  23  24
BRANCH  23  26
HETATM   26  C   UNL     1     -10.042   6.510 -33.994  1.00  0.00     0.265 C 
BRANCH  26  27
HETATM   27  N   UNL     1     -10.044   6.655 -32.500  1.00  0.00    -0.072 N 
HETATM   28  H   UNL     1     -10.521   7.514 -32.197  1.00  0.00     0.277 HD
HETATM   29  H   UNL     1     -10.575   5.871 -32.095  1.00  0.00     0.277 HD
BRANCH  27  30
HETATM   30  C   UNL     1      -8.672   6.620 -31.868  1.00  0.00     0.237 C 
BRANCH  30  31
HETATM   31  C   UNL     1      -7.632   6.008 -32.809  1.00  0.00     0.068 C 
BRANCH  31  32
HETATM   32  C   UNL     1      -6.659   5.150 -32.075  1.00  0.00    -0.029 A 
HETATM   33  C   UNL     1      -5.328   4.823 -32.492  1.00  0.00     0.001 A 
HETATM   34  C   UNL     1      -4.774   4.004 -31.510  1.00  0.00     0.043 A 
HETATM   35  C   UNL     1      -4.540   5.147 -33.614  1.00  0.00     0.051 A 
HETATM   36  C   UNL     1      -3.474   3.493 -31.599  1.00  0.00     0.033 A 
HETATM   37  N   UNL     1      -5.719   3.848 -30.525  1.00  0.00    -0.365 N 
HETATM   38  C   UNL     1      -2.716   3.826 -32.730  1.00  0.00     0.039 A 
HETATM   39  C   UNL     1      -3.235   4.645 -33.730  1.00  0.00     0.069 A 
HETATM   40  H   UNL     1      -5.580   3.315 -29.676  1.00  0.00     0.165 HD
HETATM   41  C   UNL     1      -6.863   4.528 -30.858  1.00  0.00     0.096 A 
BRANCH  39  42
HETATM   42  O   UNL     1      -2.586   5.032 -34.871  1.00  0.00    -0.356 OA
HETATM   43  C   UNL     1      -1.287   5.590 -34.715  1.00  0.00     0.210 C 
ENDBRANCH  39  42
ENDBRANCH  31  32
ENDBRANCH  30  31
ENDBRANCH  27  30
ENDBRANCH  26  27
ENDBRANCH  23  26
ENDBRANCH   1  23
TORSDOF 13
ENDMDL
