MODEL 1
REMARK VINA RESULT:      -9.5      0.000      0.000
REMARK  7 active torsions:
REMARK  status: ('A' for Active; 'I' for Inactive)
REMARK    1  A    between atoms: N_8  and  C_9 
REMARK    2  A    between atoms: C_9  and  C_10 
REMARK    3  A    between atoms: C_13  and  C_14 
REMARK       I    between atoms: C_14  and  N_15 
REMARK    4  A    between atoms: N_15  and  N_16 
REMARK    5  A    between atoms: C_17  and  C_18 
REMARK    6  A    between atoms: C_19  and  O_20 
REMARK    7  A    between atoms: C_22  and  O_23 
ROOT
HETATM    1  C   UNL     1      -2.589   4.585 -32.873  1.00  0.00    -0.040 A 
HETATM    2  C   UNL     1      -2.831   3.541 -31.969  1.00  0.00     0.010 A 
HETATM    3  C   UNL     1      -4.065   2.885 -31.953  1.00  0.00     0.017 A 
HETATM    4  C   UNL     1      -5.080   3.260 -32.841  1.00  0.00     0.033 A 
HETATM    5  C   UNL     1      -4.837   4.287 -33.761  1.00  0.00     0.017 A 
HETATM    6  C   UNL     1      -3.604   4.947 -33.772  1.00  0.00     0.010 A 
ENDROOT
BRANCH   4   7
HETATM    7  C   UNL     1      -6.368   2.508 -32.796  1.00  0.00     0.271 C 
HETATM    8  N   UNL     1      -7.177   2.610 -33.920  1.00  0.00    -0.243 N 
HETATM    9  H   UNL     1      -6.953   3.242 -34.678  1.00  0.00     0.192 HD
HETATM   10  O   UNL     1      -6.660   1.865 -31.791  1.00  0.00    -0.266 OA
BRANCH   8  11
HETATM   11  N   UNL     1      -8.345   1.911 -33.956  1.00  0.00    -0.183 NA
HETATM   12  C   UNL     1      -9.428   2.609 -34.081  1.00  0.00     0.153 C 
BRANCH  12  13
HETATM   13  C   UNL     1     -10.745   1.943 -34.143  1.00  0.00     0.016 A 
HETATM   14  C   UNL     1     -11.034   0.794 -33.393  1.00  0.00     0.080 A 
HETATM   15  C   UNL     1     -12.286   0.190 -33.485  1.00  0.00     0.074 A 
HETATM   16  C   UNL     1     -13.245   0.736 -34.332  1.00  0.00     0.068 A 
HETATM   17  C   UNL     1     -12.971   1.876 -35.083  1.00  0.00     0.037 A 
HETATM   18  C   UNL     1     -11.718   2.485 -34.990  1.00  0.00     0.018 A 
BRANCH  14  19
HETATM   19  O   UNL     1     -10.138   0.203 -32.544  1.00  0.00    -0.360 OA
HETATM   20  H   UNL     1      -9.912  -0.690 -32.894  1.00  0.00     0.217 HD
ENDBRANCH  14  19
BRANCH  16  21
HETATM   21  O   UNL     1     -14.481   0.177 -34.458  1.00  0.00    -0.361 OA
HETATM   22  H   UNL     1     -14.426  -0.757 -34.191  1.00  0.00     0.217 HD
ENDBRANCH  16  21
ENDBRANCH  12  13
ENDBRANCH   8  11
ENDBRANCH   4   7
BRANCH   1  23
HETATM   23  C   UNL     1      -1.243   5.273 -32.901  1.00  0.00     0.171 C 
BRANCH  23  24
HETATM   24  N   UNL     1      -0.945   5.961 -31.668  1.00  0.00    -0.309 N 
HETATM   25  C   UNL     1      -1.498   7.171 -31.240  1.00  0.00     0.050 A 
HETATM   26  C   UNL     1      -0.907   7.479 -30.036  1.00  0.00     0.017 A 
HETATM   27  C   UNL     1      -2.460   8.004 -31.790  1.00  0.00     0.031 A 
HETATM   28  C   UNL     1      -0.001   6.488 -29.707  1.00  0.00     0.045 A 
HETATM   29  C   UNL     1      -1.180   8.587 -29.289  1.00  0.00    -0.023 A 
HETATM   30  C   UNL     1       0.722   6.587 -28.520  1.00  0.00     0.018 A 
HETATM   31  C   UNL     1       0.009   5.473 -30.741  1.00  0.00     0.259 A 
HETATM   32  C   UNL     1       0.472   7.718 -27.717  1.00  0.00     0.002 A 
HETATM   33  C   UNL     1      -0.463   8.709 -28.085  1.00  0.00     0.012 A 
HETATM   34  O   UNL     1       0.645   4.431 -30.846  1.00  0.00    -0.267 OA
HETATM   35  C   UNL     1      -2.147   9.461 -29.819  1.00  0.00     0.012 A 
HETATM   36  C   UNL     1      -2.772   9.165 -31.050  1.00  0.00     0.003 A 
ENDBRANCH  23  24
ENDBRANCH   1  23
TORSDOF 7
ENDMDL
MODEL 2
REMARK VINA RESULT:      -9.3      5.857      8.308
REMARK  7 active torsions:
REMARK  status: ('A' for Active; 'I' for Inactive)
REMARK    1  A    between atoms: N_8  and  C_9 
REMARK    2  A    between atoms: C_9  and  C_10 
REMARK    3  A    between atoms: C_13  and  C_14 
REMARK       I    between atoms: C_14  and  N_15 
REMARK    4  A    between atoms: N_15  and  N_16 
REMARK    5  A    between atoms: C_17  and  C_18 
REMARK    6  A    between atoms: C_19  and  O_20 
REMARK    7  A    between atoms: C_22  and  O_23 
ROOT
HETATM    1  C   UNL     1      -6.981   1.190 -33.073  1.00  0.00    -0.040 A 
HETATM    2  C   UNL     1      -7.669   1.808 -34.127  1.00  0.00     0.010 A 
HETATM    3  C   UNL     1      -9.065   1.847 -34.139  1.00  0.00     0.017 A 
HETATM    4  C   UNL     1      -9.801   1.269 -33.098  1.00  0.00     0.033 A 
HETATM    5  C   UNL     1      -9.120   0.670 -32.031  1.00  0.00     0.017 A 
HETATM    6  C   UNL     1      -7.721   0.627 -32.023  1.00  0.00     0.010 A 
ENDROOT
BRANCH   4   7
HETATM    7  C   UNL     1     -11.290   1.362 -33.151  1.00  0.00     0.271 C 
HETATM    8  N   UNL     1     -11.845   2.558 -32.717  1.00  0.00    -0.243 N 
HETATM    9  H   UNL     1     -11.279   3.280 -32.291  1.00  0.00     0.192 HD
HETATM   10  O   UNL     1     -11.943   0.399 -33.547  1.00  0.00    -0.266 OA
BRANCH   8  11
HETATM   11  N   UNL     1     -13.196   2.718 -32.782  1.00  0.00    -0.183 NA
HETATM   12  C   UNL     1     -13.712   3.579 -31.965  1.00  0.00     0.153 C 
BRANCH  12  13
HETATM   13  C   UNL     1     -15.166   3.835 -31.968  1.00  0.00     0.016 A 
HETATM   14  C   UNL     1     -16.105   2.794 -31.988  1.00  0.00     0.080 A 
HETATM   15  C   UNL     1     -17.469   3.076 -31.998  1.00  0.00     0.074 A 
HETATM   16  C   UNL     1     -17.891   4.402 -31.993  1.00  0.00     0.068 A 
HETATM   17  C   UNL     1     -16.970   5.445 -31.973  1.00  0.00     0.037 A 
HETATM   18  C   UNL     1     -15.601   5.165 -31.960  1.00  0.00     0.018 A 
BRANCH  14  19
HETATM   19  O   UNL     1     -15.762   1.469 -31.999  1.00  0.00    -0.360 OA
HETATM   20  H   UNL     1     -15.028   1.337 -32.643  1.00  0.00     0.217 HD
ENDBRANCH  14  19
BRANCH  16  21
HETATM   21  O   UNL     1     -19.215   4.726 -32.006  1.00  0.00    -0.361 OA
HETATM   22  H   UNL     1     -19.298   5.685 -31.875  1.00  0.00     0.217 HD
ENDBRANCH  16  21
ENDBRANCH  12  13
ENDBRANCH   8  11
ENDBRANCH   4   7
BRANCH   1  23
HETATM   23  C   UNL     1      -5.469   1.175 -33.054  1.00  0.00     0.171 C 
BRANCH  23  24
HETATM   24  N   UNL     1      -4.927  -0.163 -33.019  1.00  0.00    -0.309 N 
HETATM   25  C   UNL     1      -5.304  -1.230 -33.840  1.00  0.00     0.050 A 
HETATM   26  C   UNL     1      -4.567  -2.322 -33.440  1.00  0.00     0.017 A 
HETATM   27  C   UNL     1      -6.204  -1.329 -34.889  1.00  0.00     0.031 A 
HETATM   28  C   UNL     1      -3.743  -1.957 -32.393  1.00  0.00     0.045 A 
HETATM   29  C   UNL     1      -4.641  -3.564 -33.998  1.00  0.00    -0.023 A 
HETATM   30  C   UNL     1      -2.898  -2.907 -31.823  1.00  0.00     0.018 A 
HETATM   31  C   UNL     1      -3.940  -0.555 -32.082  1.00  0.00     0.259 A 
HETATM   32  C   UNL     1      -2.943  -4.206 -32.367  1.00  0.00     0.002 A 
HETATM   33  C   UNL     1      -3.797  -4.541 -33.439  1.00  0.00     0.012 A 
HETATM   34  O   UNL     1      -3.415   0.170 -31.246  1.00  0.00    -0.267 OA
HETATM   35  C   UNL     1      -5.551  -3.706 -35.063  1.00  0.00     0.012 A 
HETATM   36  C   UNL     1      -6.315  -2.599 -35.495  1.00  0.00     0.003 A 
ENDBRANCH  23  24
ENDBRANCH   1  23
TORSDOF 7
ENDMDL
MODEL 3
REMARK VINA RESULT:      -9.2      1.199      2.173
REMARK  7 active torsions:
REMARK  status: ('A' for Active; 'I' for Inactive)
REMARK    1  A    between atoms: N_8  and  C_9 
REMARK    2  A    between atoms: C_9  and  C_10 
REMARK    3  A    between atoms: C_13  and  C_14 
REMARK       I    between atoms: C_14  and  N_15 
REMARK    4  A    between atoms: N_15  and  N_16 
REMARK    5  A    between atoms: C_17  and  C_18 
REMARK    6  A    between atoms: C_19  and  O_20 
REMARK    7  A    between atoms: C_22  and  O_23 
ROOT
HETATM    1  C   UNL     1      -2.493   5.207 -33.081  1.00  0.00    -0.040 A 
HETATM    2  C   UNL     1      -2.655   4.057 -32.297  1.00  0.00     0.010 A 
HETATM    3  C   UNL     1      -3.805   3.271 -32.415  1.00  0.00     0.017 A 
HETATM    4  C   UNL     1      -4.814   3.620 -33.319  1.00  0.00     0.033 A 
HETATM    5  C   UNL     1      -4.648   4.755 -34.122  1.00  0.00     0.017 A 
HETATM    6  C   UNL     1      -3.499   5.544 -33.999  1.00  0.00     0.010 A 
ENDROOT
BRANCH   4   7
HETATM    7  C   UNL     1      -6.008   2.731 -33.421  1.00  0.00     0.271 C 
HETATM    8  N   UNL     1      -7.172   3.319 -33.898  1.00  0.00    -0.243 N 
HETATM    9  H   UNL     1      -7.231   4.315 -34.065  1.00  0.00     0.192 HD
HETATM   10  O   UNL     1      -5.920   1.557 -33.071  1.00  0.00    -0.266 OA
BRANCH   8  11
HETATM   11  N   UNL     1      -8.283   2.548 -34.054  1.00  0.00    -0.183 NA
HETATM   12  C   UNL     1      -9.421   3.156 -33.962  1.00  0.00     0.153 C 
BRANCH  12  13
HETATM   13  C   UNL     1     -10.685   2.409 -34.130  1.00  0.00     0.016 A 
HETATM   14  C   UNL     1     -10.977   1.262 -33.378  1.00  0.00     0.080 A 
HETATM   15  C   UNL     1     -12.176   0.580 -33.571  1.00  0.00     0.074 A 
HETATM   16  C   UNL     1     -13.079   1.046 -34.521  1.00  0.00     0.068 A 
HETATM   17  C   UNL     1     -12.802   2.184 -35.275  1.00  0.00     0.037 A 
HETATM   18  C   UNL     1     -11.601   2.871 -35.081  1.00  0.00     0.018 A 
BRANCH  14  19
HETATM   19  O   UNL     1     -10.133   0.746 -32.431  1.00  0.00    -0.360 OA
HETATM   20  H   UNL     1      -9.470   0.171 -32.878  1.00  0.00     0.217 HD
ENDBRANCH  14  19
BRANCH  16  21
HETATM   21  O   UNL     1     -14.263   0.410 -34.747  1.00  0.00    -0.361 OA
HETATM   22  H   UNL     1     -14.956   1.081 -34.864  1.00  0.00     0.217 HD
ENDBRANCH  16  21
ENDBRANCH  12  13
ENDBRANCH   8  11
ENDBRANCH   4   7
BRANCH   1  23
HETATM   23  C   UNL     1      -1.234   6.038 -32.966  1.00  0.00     0.171 C 
BRANCH  23  24
HETATM   24  N   UNL     1      -1.142   6.733 -31.705  1.00  0.00    -0.309 N 
HETATM   25  C   UNL     1      -0.430   6.313 -30.578  1.00  0.00     0.050 A 
HETATM   26  C   UNL     1      -0.647   7.250 -29.593  1.00  0.00     0.017 A 
HETATM   27  C   UNL     1       0.383   5.215 -30.343  1.00  0.00     0.031 A 
HETATM   28  C   UNL     1      -1.475   8.242 -30.084  1.00  0.00     0.045 A 
HETATM   29  C   UNL     1      -0.120   7.203 -28.337  1.00  0.00    -0.023 A 
HETATM   30  C   UNL     1      -1.833   9.306 -29.259  1.00  0.00     0.018 A 
HETATM   31  C   UNL     1      -1.824   7.950 -31.460  1.00  0.00     0.259 A 
HETATM   32  C   UNL     1      -1.312   9.298 -27.949  1.00  0.00     0.002 A 
HETATM   33  C   UNL     1      -0.467   8.268 -27.484  1.00  0.00     0.012 A 
HETATM   34  O   UNL     1      -2.517   8.560 -32.266  1.00  0.00    -0.267 OA
HETATM   35  C   UNL     1       0.705   6.098 -28.057  1.00  0.00     0.012 A 
HETATM   36  C   UNL     1       0.947   5.125 -29.052  1.00  0.00     0.003 A 
ENDBRANCH  23  24
ENDBRANCH   1  23
TORSDOF 7
ENDMDL
MODEL 4
REMARK VINA RESULT:      -9.1      3.664      4.827
REMARK  7 active torsions:
REMARK  status: ('A' for Active; 'I' for Inactive)
REMARK    1  A    between atoms: N_8  and  C_9 
REMARK    2  A    between atoms: C_9  and  C_10 
REMARK    3  A    between atoms: C_13  and  C_14 
REMARK       I    between atoms: C_14  and  N_15 
REMARK    4  A    between atoms: N_15  and  N_16 
REMARK    5  A    between atoms: C_17  and  C_18 
REMARK    6  A    between atoms: C_19  and  O_20 
REMARK    7  A    between atoms: C_22  and  O_23 
ROOT
HETATM    1  C   UNL     1      -4.968   6.182 -30.199  1.00  0.00    -0.040 A 
HETATM    2  C   UNL     1      -4.893   5.915 -31.574  1.00  0.00     0.010 A 
HETATM    3  C   UNL     1      -5.299   4.678 -32.082  1.00  0.00     0.017 A 
HETATM    4  C   UNL     1      -5.788   3.685 -31.225  1.00  0.00     0.033 A 
HETATM    5  C   UNL     1      -5.887   3.953 -29.855  1.00  0.00     0.017 A 
HETATM    6  C   UNL     1      -5.474   5.190 -29.347  1.00  0.00     0.010 A 
ENDROOT
BRANCH   4   7
HETATM    7  C   UNL     1      -6.230   2.392 -31.826  1.00  0.00     0.271 C 
HETATM    8  N   UNL     1      -5.565   1.991 -32.977  1.00  0.00    -0.243 N 
HETATM    9  H   UNL     1      -4.895   2.593 -33.437  1.00  0.00     0.192 HD
HETATM   10  O   UNL     1      -7.148   1.765 -31.304  1.00  0.00    -0.266 OA
BRANCH   8  11
HETATM   11  N   UNL     1      -5.895   0.799 -33.546  1.00  0.00    -0.183 NA
HETATM   12  C   UNL     1      -5.125  -0.204 -33.266  1.00  0.00     0.153 C 
BRANCH  12  13
HETATM   13  C   UNL     1      -5.407  -1.542 -33.822  1.00  0.00     0.016 A 
HETATM   14  C   UNL     1      -6.711  -1.970 -34.110  1.00  0.00     0.080 A 
HETATM   15  C   UNL     1      -6.937  -3.243 -34.627  1.00  0.00     0.074 A 
HETATM   16  C   UNL     1      -5.855  -4.089 -34.851  1.00  0.00     0.068 A 
HETATM   17  C   UNL     1      -4.556  -3.678 -34.570  1.00  0.00     0.037 A 
HETATM   18  C   UNL     1      -4.326  -2.400 -34.054  1.00  0.00     0.018 A 
BRANCH  14  19
HETATM   19  O   UNL     1      -7.820  -1.192 -33.911  1.00  0.00    -0.360 OA
HETATM   20  H   UNL     1      -8.554  -1.538 -34.471  1.00  0.00     0.217 HD
ENDBRANCH  14  19
BRANCH  16  21
HETATM   21  O   UNL     1      -6.028  -5.345 -35.351  1.00  0.00    -0.361 OA
HETATM   22  H   UNL     1      -6.949  -5.614 -35.196  1.00  0.00     0.217 HD
ENDBRANCH  16  21
ENDBRANCH  12  13
ENDBRANCH   8  11
ENDBRANCH   4   7
BRANCH   1  23
HETATM   23  C   UNL     1      -4.551   7.532 -29.661  1.00  0.00     0.171 C 
BRANCH  23  24
HETATM   24  N   UNL     1      -3.263   7.497 -29.010  1.00  0.00    -0.309 N 
HETATM   25  C   UNL     1      -2.025   7.323 -29.634  1.00  0.00     0.050 A 
HETATM   26  C   UNL     1      -1.072   7.312 -28.640  1.00  0.00     0.017 A 
HETATM   27  C   UNL     1      -1.660   7.189 -30.965  1.00  0.00     0.031 A 
HETATM   28  C   UNL     1      -1.691   7.477 -27.415  1.00  0.00     0.045 A 
HETATM   29  C   UNL     1       0.268   7.168 -28.841  1.00  0.00    -0.023 A 
HETATM   30  C   UNL     1      -0.920   7.499 -26.255  1.00  0.00     0.018 A 
HETATM   31  C   UNL     1      -3.123   7.603 -27.604  1.00  0.00     0.259 A 
HETATM   32  C   UNL     1       0.472   7.351 -26.415  1.00  0.00     0.002 A 
HETATM   33  C   UNL     1       1.069   7.188 -27.684  1.00  0.00     0.012 A 
HETATM   34  O   UNL     1      -4.033   7.771 -26.802  1.00  0.00    -0.267 OA
HETATM   35  C   UNL     1       0.677   7.020 -30.180  1.00  0.00     0.012 A 
HETATM   36  C   UNL     1      -0.281   7.033 -31.218  1.00  0.00     0.003 A 
ENDBRANCH  23  24
ENDBRANCH   1  23
TORSDOF 7
ENDMDL
MODEL 5
REMARK VINA RESULT:      -8.9      3.667     11.178
REMARK  7 active torsions:
REMARK  status: ('A' for Active; 'I' for Inactive)
REMARK    1  A    between atoms: N_8  and  C_9 
REMARK    2  A    between atoms: C_9  and  C_10 
REMARK    3  A    between atoms: C_13  and  C_14 
REMARK       I    between atoms: C_14  and  N_15 
REMARK    4  A    between atoms: N_15  and  N_16 
REMARK    5  A    between atoms: C_17  and  C_18 
REMARK    6  A    between atoms: C_19  and  O_20 
REMARK    7  A    between atoms: C_22  and  O_23 
ROOT
HETATM    1  C   UNL     1      -6.574   2.549 -31.376  1.00  0.00    -0.040 A 
HETATM    2  C   UNL     1      -6.243   2.977 -30.082  1.00  0.00     0.010 A 
HETATM    3  C   UNL     1      -5.383   4.062 -29.889  1.00  0.00     0.017 A 
HETATM    4  C   UNL     1      -4.838   4.739 -30.986  1.00  0.00     0.033 A 
HETATM    5  C   UNL     1      -5.183   4.332 -32.280  1.00  0.00     0.017 A 
HETATM    6  C   UNL     1      -6.039   3.242 -32.472  1.00  0.00     0.010 A 
ENDROOT
BRANCH   4   7
HETATM    7  C   UNL     1      -3.946   5.906 -30.721  1.00  0.00     0.271 C 
HETATM    8  N   UNL     1      -3.843   6.311 -29.396  1.00  0.00    -0.243 N 
HETATM    9  H   UNL     1      -4.422   5.905 -28.673  1.00  0.00     0.192 HD
HETATM   10  O   UNL     1      -3.372   6.454 -31.658  1.00  0.00    -0.266 OA
BRANCH   8  11
HETATM   11  N   UNL     1      -3.010   7.342 -29.087  1.00  0.00    -0.183 NA
HETATM   12  C   UNL     1      -2.118   7.107 -28.179  1.00  0.00     0.153 C 
BRANCH  12  13
HETATM   13  C   UNL     1      -1.159   8.157 -27.782  1.00  0.00     0.016 A 
HETATM   14  C   UNL     1      -1.578   9.424 -27.348  1.00  0.00     0.080 A 
HETATM   15  C   UNL     1      -0.642  10.391 -26.990  1.00  0.00     0.074 A 
HETATM   16  C   UNL     1       0.714  10.089 -27.072  1.00  0.00     0.068 A 
HETATM   17  C   UNL     1       1.144   8.837 -27.501  1.00  0.00     0.037 A 
HETATM   18  C   UNL     1       0.208   7.864 -27.858  1.00  0.00     0.018 A 
BRANCH  14  19
HETATM   19  O   UNL     1      -2.893   9.789 -27.248  1.00  0.00    -0.360 OA
HETATM   20  H   UNL     1      -3.456   9.011 -27.470  1.00  0.00     0.217 HD
ENDBRANCH  14  19
BRANCH  16  21
HETATM   21  O   UNL     1       1.666  11.005 -26.736  1.00  0.00    -0.361 OA
HETATM   22  H   UNL     1       1.264  11.665 -26.147  1.00  0.00     0.217 HD
ENDBRANCH  16  21
ENDBRANCH  12  13
ENDBRANCH   8  11
ENDBRANCH   4   7
BRANCH   1  23
HETATM   23  C   UNL     1      -7.526   1.391 -31.576  1.00  0.00     0.171 C 
BRANCH  23  24
HETATM   24  N   UNL     1      -6.933   0.308 -32.324  1.00  0.00    -0.309 N 
HETATM   25  C   UNL     1      -5.654  -0.225 -32.135  1.00  0.00     0.050 A 
HETATM   26  C   UNL     1      -5.485  -1.207 -33.084  1.00  0.00     0.017 A 
HETATM   27  C   UNL     1      -4.651   0.056 -31.221  1.00  0.00     0.031 A 
HETATM   28  C   UNL     1      -6.629  -1.297 -33.856  1.00  0.00     0.045 A 
HETATM   29  C   UNL     1      -4.366  -1.971 -33.231  1.00  0.00    -0.023 A 
HETATM   30  C   UNL     1      -6.689  -2.231 -34.887  1.00  0.00     0.018 A 
HETATM   31  C   UNL     1      -7.605  -0.327 -33.397  1.00  0.00     0.259 A 
HETATM   32  C   UNL     1      -5.552  -3.042 -35.076  1.00  0.00     0.002 A 
HETATM   33  C   UNL     1      -4.403  -2.924 -34.266  1.00  0.00     0.012 A 
HETATM   34  O   UNL     1      -8.740  -0.077 -33.783  1.00  0.00    -0.267 OA
HETATM   35  C   UNL     1      -3.321  -1.710 -32.325  1.00  0.00     0.012 A 
HETATM   36  C   UNL     1      -3.471  -0.710 -31.339  1.00  0.00     0.003 A 
ENDBRANCH  23  24
ENDBRANCH   1  23
TORSDOF 7
ENDMDL
MODEL 6
REMARK VINA RESULT:      -8.9      5.432      7.874
REMARK  7 active torsions:
REMARK  status: ('A' for Active; 'I' for Inactive)
REMARK    1  A    between atoms: N_8  and  C_9 
REMARK    2  A    between atoms: C_9  and  C_10 
REMARK    3  A    between atoms: C_13  and  C_14 
REMARK       I    between atoms: C_14  and  N_15 
REMARK    4  A    between atoms: N_15  and  N_16 
REMARK    5  A    between atoms: C_17  and  C_18 
REMARK    6  A    between atoms: C_19  and  O_20 
REMARK    7  A    between atoms: C_22  and  O_23 
ROOT
HETATM    1  C   UNL     1      -5.496   1.534 -32.249  1.00  0.00    -0.040 A 
HETATM    2  C   UNL     1      -6.231   1.052 -31.157  1.00  0.00     0.010 A 
HETATM    3  C   UNL     1      -7.516   1.535 -30.896  1.00  0.00     0.017 A 
HETATM    4  C   UNL     1      -8.091   2.507 -31.722  1.00  0.00     0.033 A 
HETATM    5  C   UNL     1      -7.371   2.975 -32.828  1.00  0.00     0.017 A 
HETATM    6  C   UNL     1      -6.082   2.495 -33.085  1.00  0.00     0.010 A 
ENDROOT
BRANCH   4   7
HETATM    7  C   UNL     1      -9.476   2.968 -31.411  1.00  0.00     0.271 C 
HETATM    8  N   UNL     1     -10.268   3.310 -32.499  1.00  0.00    -0.243 N 
HETATM    9  H   UNL     1      -9.891   3.345 -33.437  1.00  0.00     0.192 HD
HETATM   10  O   UNL     1      -9.841   3.041 -30.240  1.00  0.00    -0.266 OA
BRANCH   8  11
HETATM   11  N   UNL     1     -11.555   3.696 -32.280  1.00  0.00    -0.183 NA
HETATM   12  C   UNL     1     -12.471   2.826 -32.562  1.00  0.00     0.153 C 
BRANCH  12  13
HETATM   13  C   UNL     1     -13.897   3.144 -32.347  1.00  0.00     0.016 A 
HETATM   14  C   UNL     1     -14.904   2.177 -32.486  1.00  0.00     0.080 A 
HETATM   15  C   UNL     1     -16.239   2.518 -32.282  1.00  0.00     0.074 A 
HETATM   16  C   UNL     1     -16.564   3.828 -31.945  1.00  0.00     0.068 A 
HETATM   17  C   UNL     1     -15.575   4.797 -31.804  1.00  0.00     0.037 A 
HETATM   18  C   UNL     1     -14.235   4.457 -32.005  1.00  0.00     0.018 A 
BRANCH  14  19
HETATM   19  O   UNL     1     -14.657   0.873 -32.819  1.00  0.00    -0.360 OA
HETATM   20  H   UNL     1     -14.628   0.797 -33.801  1.00  0.00     0.217 HD
ENDBRANCH  14  19
BRANCH  16  21
HETATM   21  O   UNL     1     -17.857   4.208 -31.740  1.00  0.00    -0.361 OA
HETATM   22  H   UNL     1     -17.861   5.127 -31.422  1.00  0.00     0.217 HD
ENDBRANCH  16  21
ENDBRANCH  12  13
ENDBRANCH   8  11
ENDBRANCH   4   7
BRANCH   1  23
HETATM   23  C   UNL     1      -4.116   0.987 -32.540  1.00  0.00     0.171 C 
BRANCH  23  24
HETATM   24  N   UNL     1      -4.131  -0.422 -32.851  1.00  0.00    -0.309 N 
HETATM   25  C   UNL     1      -5.044  -1.076 -33.683  1.00  0.00     0.050 A 
HETATM   26  C   UNL     1      -4.716  -2.413 -33.666  1.00  0.00     0.017 A 
HETATM   27  C   UNL     1      -6.106  -0.618 -34.447  1.00  0.00     0.031 A 
HETATM   28  C   UNL     1      -3.620  -2.603 -32.845  1.00  0.00     0.045 A 
HETATM   29  C   UNL     1      -5.370  -3.390 -34.357  1.00  0.00    -0.023 A 
HETATM   30  C   UNL     1      -3.105  -3.886 -32.674  1.00  0.00     0.018 A 
HETATM   31  C   UNL     1      -3.200  -1.331 -32.290  1.00  0.00     0.259 A 
HETATM   32  C   UNL     1      -3.752  -4.927 -33.369  1.00  0.00     0.002 A 
HETATM   33  C   UNL     1      -4.868  -4.695 -34.201  1.00  0.00     0.012 A 
HETATM   34  O   UNL     1      -2.280  -1.042 -31.534  1.00  0.00    -0.267 OA
HETATM   35  C   UNL     1      -6.460  -2.964 -35.139  1.00  0.00     0.012 A 
HETATM   36  C   UNL     1      -6.814  -1.597 -35.177  1.00  0.00     0.003 A 
ENDBRANCH  23  24
ENDBRANCH   1  23
TORSDOF 7
ENDMDL
MODEL 7
REMARK VINA RESULT:      -8.8      3.485      4.657
REMARK  7 active torsions:
REMARK  status: ('A' for Active; 'I' for Inactive)
REMARK    1  A    between atoms: N_8  and  C_9 
REMARK    2  A    between atoms: C_9  and  C_10 
REMARK    3  A    between atoms: C_13  and  C_14 
REMARK       I    between atoms: C_14  and  N_15 
REMARK    4  A    between atoms: N_15  and  N_16 
REMARK    5  A    between atoms: C_17  and  C_18 
REMARK    6  A    between atoms: C_19  and  O_20 
REMARK    7  A    between atoms: C_22  and  O_23 
ROOT
HETATM    1  C   UNL     1      -4.758   6.791 -31.278  1.00  0.00    -0.040 A 
HETATM    2  C   UNL     1      -5.497   5.818 -30.591  1.00  0.00     0.010 A 
HETATM    3  C   UNL     1      -5.949   4.671 -31.249  1.00  0.00     0.017 A 
HETATM    4  C   UNL     1      -5.672   4.476 -32.607  1.00  0.00     0.033 A 
HETATM    5  C   UNL     1      -4.915   5.433 -33.294  1.00  0.00     0.017 A 
HETATM    6  C   UNL     1      -4.467   6.583 -32.635  1.00  0.00     0.010 A 
ENDROOT
BRANCH   4   7
HETATM    7  C   UNL     1      -6.159   3.222 -33.253  1.00  0.00     0.271 C 
HETATM    8  N   UNL     1      -5.370   2.093 -33.073  1.00  0.00    -0.243 N 
HETATM    9  H   UNL     1      -4.467   2.146 -32.621  1.00  0.00     0.192 HD
HETATM   10  O   UNL     1      -7.195   3.243 -33.912  1.00  0.00    -0.266 OA
BRANCH   8  11
HETATM   11  N   UNL     1      -5.785   0.909 -33.601  1.00  0.00    -0.183 NA
HETATM   12  C   UNL     1      -5.066  -0.129 -33.320  1.00  0.00     0.153 C 
BRANCH  12  13
HETATM   13  C   UNL     1      -5.440  -1.462 -33.834  1.00  0.00     0.016 A 
HETATM   14  C   UNL     1      -6.778  -1.832 -34.039  1.00  0.00     0.080 A 
HETATM   15  C   UNL     1      -7.092  -3.101 -34.518  1.00  0.00     0.074 A 
HETATM   16  C   UNL     1      -6.065  -4.000 -34.788  1.00  0.00     0.068 A 
HETATM   17  C   UNL     1      -4.733  -3.647 -34.590  1.00  0.00     0.037 A 
HETATM   18  C   UNL     1      -4.416  -2.373 -34.112  1.00  0.00     0.018 A 
BRANCH  14  19
HETATM   19  O   UNL     1      -7.836  -1.000 -33.791  1.00  0.00    -0.360 OA
HETATM   20  H   UNL     1      -7.549  -0.303 -33.156  1.00  0.00     0.217 HD
ENDBRANCH  14  19
BRANCH  16  21
HETATM   21  O   UNL     1      -6.324  -5.255 -35.254  1.00  0.00    -0.361 OA
HETATM   22  H   UNL     1      -5.520  -5.598 -35.679  1.00  0.00     0.217 HD
ENDBRANCH  16  21
ENDBRANCH  12  13
ENDBRANCH   8  11
ENDBRANCH   4   7
BRANCH   1  23
HETATM   23  C   UNL     1      -4.249   8.016 -30.552  1.00  0.00     0.171 C 
BRANCH  23  24
HETATM   24  N   UNL     1      -3.060   7.749 -29.778  1.00  0.00    -0.309 N 
HETATM   25  C   UNL     1      -3.015   7.412 -28.422  1.00  0.00     0.050 A 
HETATM   26  C   UNL     1      -1.686   7.286 -28.084  1.00  0.00     0.017 A 
HETATM   27  C   UNL     1      -4.008   7.199 -27.478  1.00  0.00     0.031 A 
HETATM   28  C   UNL     1      -0.908   7.535 -29.199  1.00  0.00     0.045 A 
HETATM   29  C   UNL     1      -1.219   6.961 -26.846  1.00  0.00    -0.023 A 
HETATM   30  C   UNL     1       0.480   7.463 -29.097  1.00  0.00     0.018 A 
HETATM   31  C   UNL     1      -1.760   7.841 -30.332  1.00  0.00     0.259 A 
HETATM   32  C   UNL     1       1.007   7.131 -27.833  1.00  0.00     0.002 A 
HETATM   33  C   UNL     1       0.180   6.882 -26.717  1.00  0.00     0.012 A 
HETATM   34  O   UNL     1      -1.493   8.108 -31.497  1.00  0.00    -0.267 OA
HETATM   35  C   UNL     1      -2.198   6.744 -25.858  1.00  0.00     0.012 A 
HETATM   36  C   UNL     1      -3.568   6.863 -26.180  1.00  0.00     0.003 A 
ENDBRANCH  23  24
ENDBRANCH   1  23
TORSDOF 7
ENDMDL
MODEL 8
REMARK VINA RESULT:      -8.4      6.771      8.941
REMARK  7 active torsions:
REMARK  status: ('A' for Active; 'I' for Inactive)
REMARK    1  A    between atoms: N_8  and  C_9 
REMARK    2  A    between atoms: C_9  and  C_10 
REMARK    3  A    between atoms: C_13  and  C_14 
REMARK       I    between atoms: C_14  and  N_15 
REMARK    4  A    between atoms: N_15  and  N_16 
REMARK    5  A    between atoms: C_17  and  C_18 
REMARK    6  A    between atoms: C_19  and  O_20 
REMARK    7  A    between atoms: C_22  and  O_23 
ROOT
HETATM    1  C   UNL     1      -7.946   0.619 -34.253  1.00  0.00    -0.040 A 
HETATM    2  C   UNL     1      -8.055   2.013 -34.363  1.00  0.00     0.010 A 
HETATM    3  C   UNL     1      -8.861   2.737 -33.481  1.00  0.00     0.017 A 
HETATM    4  C   UNL     1      -9.575   2.081 -32.472  1.00  0.00     0.033 A 
HETATM    5  C   UNL     1      -9.453   0.692 -32.341  1.00  0.00     0.017 A 
HETATM    6  C   UNL     1      -8.650  -0.032 -33.229  1.00  0.00     0.010 A 
ENDROOT
BRANCH   4   7
HETATM    7  C   UNL     1     -10.401   2.906 -31.542  1.00  0.00     0.271 C 
HETATM    8  N   UNL     1     -11.622   3.349 -32.036  1.00  0.00    -0.243 N 
HETATM    9  H   UNL     1     -11.883   3.209 -33.003  1.00  0.00     0.192 HD
HETATM   10  O   UNL     1      -9.973   3.167 -30.421  1.00  0.00    -0.266 OA
BRANCH   8  11
HETATM   11  N   UNL     1     -12.439   4.070 -31.220  1.00  0.00    -0.183 NA
HETATM   12  C   UNL     1     -13.496   4.576 -31.767  1.00  0.00     0.153 C 
BRANCH  12  13
HETATM   13  C   UNL     1     -14.453   5.363 -30.963  1.00  0.00     0.016 A 
HETATM   14  C   UNL     1     -14.053   6.093 -29.835  1.00  0.00     0.080 A 
HETATM   15  C   UNL     1     -14.986   6.817 -29.097  1.00  0.00     0.074 A 
HETATM   16  C   UNL     1     -16.321   6.804 -29.488  1.00  0.00     0.068 A 
HETATM   17  C   UNL     1     -16.733   6.084 -30.605  1.00  0.00     0.037 A 
HETATM   18  C   UNL     1     -15.798   5.359 -31.349  1.00  0.00     0.018 A 
BRANCH  14  19
HETATM   19  O   UNL     1     -12.758   6.147 -29.392  1.00  0.00    -0.360 OA
HETATM   20  H   UNL     1     -12.158   5.930 -30.142  1.00  0.00     0.217 HD
ENDBRANCH  14  19
BRANCH  16  21
HETATM   21  O   UNL     1     -17.271   7.494 -28.794  1.00  0.00    -0.361 OA
HETATM   22  H   UNL     1     -18.112   7.012 -28.862  1.00  0.00     0.217 HD
ENDBRANCH  16  21
ENDBRANCH  12  13
ENDBRANCH   8  11
ENDBRANCH   4   7
BRANCH   1  23
HETATM   23  C   UNL     1      -7.051  -0.153 -35.195  1.00  0.00     0.171 C 
BRANCH  23  24
HETATM   24  N   UNL     1      -6.066  -0.947 -34.499  1.00  0.00    -0.309 N 
HETATM   25  C   UNL     1      -5.874  -2.326 -34.629  1.00  0.00     0.050 A 
HETATM   26  C   UNL     1      -4.865  -2.673 -33.759  1.00  0.00     0.017 A 
HETATM   27  C   UNL     1      -6.478  -3.282 -35.429  1.00  0.00     0.031 A 
HETATM   28  C   UNL     1      -4.427  -1.542 -33.095  1.00  0.00     0.045 A 
HETATM   29  C   UNL     1      -4.376  -3.934 -33.588  1.00  0.00    -0.023 A 
HETATM   30  C   UNL     1      -3.402  -1.651 -32.158  1.00  0.00     0.018 A 
HETATM   31  C   UNL     1      -5.181  -0.389 -33.545  1.00  0.00     0.259 A 
HETATM   32  C   UNL     1      -2.868  -2.938 -31.948  1.00  0.00     0.002 A 
HETATM   33  C   UNL     1      -3.339  -4.070 -32.647  1.00  0.00     0.012 A 
HETATM   34  O   UNL     1      -5.114   0.794 -33.233  1.00  0.00    -0.267 OA
HETATM   35  C   UNL     1      -4.971  -4.935 -34.379  1.00  0.00     0.012 A 
HETATM   36  C   UNL     1      -6.005  -4.604 -35.282  1.00  0.00     0.003 A 
ENDBRANCH  23  24
ENDBRANCH   1  23
TORSDOF 7
ENDMDL
MODEL 9
REMARK VINA RESULT:      -8.3      1.601      2.102
REMARK  7 active torsions:
REMARK  status: ('A' for Active; 'I' for Inactive)
REMARK    1  A    between atoms: N_8  and  C_9 
REMARK    2  A    between atoms: C_9  and  C_10 
REMARK    3  A    between atoms: C_13  and  C_14 
REMARK       I    between atoms: C_14  and  N_15 
REMARK    4  A    between atoms: N_15  and  N_16 
REMARK    5  A    between atoms: C_17  and  C_18 
REMARK    6  A    between atoms: C_19  and  O_20 
REMARK    7  A    between atoms: C_22  and  O_23 
ROOT
HETATM    1  C   UNL     1      -1.474   4.938 -32.259  1.00  0.00    -0.040 A 
HETATM    2  C   UNL     1      -2.429   4.229 -31.515  1.00  0.00     0.010 A 
HETATM    3  C   UNL     1      -3.686   3.948 -32.055  1.00  0.00     0.017 A 
HETATM    4  C   UNL     1      -4.014   4.371 -33.349  1.00  0.00     0.033 A 
HETATM    5  C   UNL     1      -3.057   5.059 -34.105  1.00  0.00     0.017 A 
HETATM    6  C   UNL     1      -1.801   5.345 -33.561  1.00  0.00     0.010 A 
ENDROOT
BRANCH   4   7
HETATM    7  C   UNL     1      -5.362   4.021 -33.884  1.00  0.00     0.271 C 
HETATM    8  N   UNL     1      -5.859   2.774 -33.528  1.00  0.00    -0.243 N 
HETATM    9  H   UNL     1      -5.293   2.104 -33.025  1.00  0.00     0.192 HD
HETATM   10  O   UNL     1      -5.951   4.818 -34.610  1.00  0.00    -0.266 OA
BRANCH   8  11
HETATM   11  N   UNL     1      -7.103   2.416 -33.950  1.00  0.00    -0.183 NA
HETATM   12  C   UNL     1      -8.051   3.269 -33.730  1.00  0.00     0.153 C 
BRANCH  12  13
HETATM   13  C   UNL     1      -9.434   2.981 -34.163  1.00  0.00     0.016 A 
HETATM   14  C   UNL     1     -10.204   3.916 -34.869  1.00  0.00     0.080 A 
HETATM   15  C   UNL     1     -11.507   3.610 -35.253  1.00  0.00     0.074 A 
HETATM   16  C   UNL     1     -12.039   2.367 -34.925  1.00  0.00     0.068 A 
HETATM   17  C   UNL     1     -11.286   1.429 -34.224  1.00  0.00     0.037 A 
HETATM   18  C   UNL     1      -9.978   1.733 -33.840  1.00  0.00     0.018 A 
BRANCH  14  19
HETATM   19  O   UNL     1      -9.746   5.157 -35.221  1.00  0.00    -0.360 OA
HETATM   20  H   UNL     1      -9.378   5.598 -34.420  1.00  0.00     0.217 HD
ENDBRANCH  14  19
BRANCH  16  21
HETATM   21  O   UNL     1     -13.310   2.024 -35.276  1.00  0.00    -0.361 OA
HETATM   22  H   UNL     1     -13.308   1.101 -35.581  1.00  0.00     0.217 HD
ENDBRANCH  16  21
ENDBRANCH  12  13
ENDBRANCH   8  11
ENDBRANCH   4   7
BRANCH   1  23
HETATM   23  C   UNL     1      -0.106   5.216 -31.676  1.00  0.00     0.171 C 
BRANCH  23  24
HETATM   24  N   UNL     1      -0.167   6.002 -30.467  1.00  0.00    -0.309 N 
HETATM   25  C   UNL     1      -0.848   7.212 -30.300  1.00  0.00     0.050 A 
HETATM   26  C   UNL     1      -0.607   7.632 -29.011  1.00  0.00     0.017 A 
HETATM   27  C   UNL     1      -1.651   7.957 -31.149  1.00  0.00     0.031 A 
HETATM   28  C   UNL     1       0.205   6.711 -28.376  1.00  0.00     0.045 A 
HETATM   29  C   UNL     1      -1.100   8.775 -28.454  1.00  0.00    -0.023 A 
HETATM   30  C   UNL     1       0.582   6.928 -27.053  1.00  0.00     0.018 A 
HETATM   31  C   UNL     1       0.519   5.627 -29.286  1.00  0.00     0.259 A 
HETATM   32  C   UNL     1       0.097   8.100 -26.437  1.00  0.00     0.002 A 
HETATM   33  C   UNL     1      -0.733   9.016 -27.118  1.00  0.00     0.012 A 
HETATM   34  O   UNL     1       1.188   4.613 -29.135  1.00  0.00    -0.267 OA
HETATM   35  C   UNL     1      -1.915   9.563 -29.289  1.00  0.00     0.012 A 
HETATM   36  C   UNL     1      -2.181   9.151 -30.614  1.00  0.00     0.003 A 
ENDBRANCH  23  24
ENDBRANCH   1  23
TORSDOF 7
ENDMDL
MODEL 10
REMARK VINA RESULT:      -8.3     18.885     21.582
REMARK  7 active torsions:
REMARK  status: ('A' for Active; 'I' for Inactive)
REMARK    1  A    between atoms: N_8  and  C_9 
REMARK    2  A    between atoms: C_9  and  C_10 
REMARK    3  A    between atoms: C_13  and  C_14 
REMARK       I    between atoms: C_14  and  N_15 
REMARK    4  A    between atoms: N_15  and  N_16 
REMARK    5  A    between atoms: C_17  and  C_18 
REMARK    6  A    between atoms: C_19  and  O_20 
REMARK    7  A    between atoms: C_22  and  O_23 
ROOT
HETATM    1  C   UNL     1      -5.013 -12.708 -37.931  1.00  0.00    -0.040 A 
HETATM    2  C   UNL     1      -6.288 -13.232 -37.675  1.00  0.00     0.010 A 
HETATM    3  C   UNL     1      -6.584 -13.811 -36.439  1.00  0.00     0.017 A 
HETATM    4  C   UNL     1      -5.612 -13.877 -35.434  1.00  0.00     0.033 A 
HETATM    5  C   UNL     1      -4.343 -13.335 -35.675  1.00  0.00     0.017 A 
HETATM    6  C   UNL     1      -4.046 -12.761 -36.916  1.00  0.00     0.010 A 
ENDROOT
BRANCH   4   7
HETATM    7  C   UNL     1      -5.991 -14.484 -34.125  1.00  0.00     0.271 C 
HETATM    8  N   UNL     1      -5.020 -14.459 -33.133  1.00  0.00    -0.243 N 
HETATM    9  H   UNL     1      -4.078 -14.144 -33.323  1.00  0.00     0.192 HD
HETATM   10  O   UNL     1      -7.106 -14.981 -33.988  1.00  0.00    -0.266 OA
BRANCH   8  11
HETATM   11  N   UNL     1      -5.323 -14.959 -31.903  1.00  0.00    -0.183 NA
HETATM   12  C   UNL     1      -4.513 -15.850 -31.430  1.00  0.00     0.153 C 
BRANCH  12  13
HETATM   13  C   UNL     1      -4.746 -16.443 -30.098  1.00  0.00     0.016 A 
HETATM   14  C   UNL     1      -6.020 -16.857 -29.680  1.00  0.00     0.080 A 
HETATM   15  C   UNL     1      -6.202 -17.405 -28.413  1.00  0.00     0.074 A 
HETATM   16  C   UNL     1      -5.108 -17.533 -27.563  1.00  0.00     0.068 A 
HETATM   17  C   UNL     1      -3.838 -17.127 -27.964  1.00  0.00     0.037 A 
HETATM   18  C   UNL     1      -3.653 -16.580 -29.236  1.00  0.00     0.018 A 
BRANCH  14  19
HETATM   19  O   UNL     1      -7.139 -16.756 -30.462  1.00  0.00    -0.360 OA
HETATM   20  H   UNL     1      -6.863 -16.715 -31.407  1.00  0.00     0.217 HD
ENDBRANCH  14  19
BRANCH  16  21
HETATM   21  O   UNL     1      -5.238 -18.059 -26.313  1.00  0.00    -0.361 OA
HETATM   22  H   UNL     1      -4.428 -17.866 -25.811  1.00  0.00     0.217 HD
ENDBRANCH  16  21
ENDBRANCH  12  13
ENDBRANCH   8  11
ENDBRANCH   4   7
BRANCH   1  23
HETATM   23  C   UNL     1      -4.708 -12.059 -39.263  1.00  0.00     0.171 C 
BRANCH  23  24
HETATM   24  N   UNL     1      -4.454 -13.026 -40.306  1.00  0.00    -0.309 N 
HETATM   25  C   UNL     1      -3.296 -13.794 -40.458  1.00  0.00     0.050 A 
HETATM   26  C   UNL     1      -3.461 -14.546 -41.598  1.00  0.00     0.017 A 
HETATM   27  C   UNL     1      -2.141 -13.902 -39.699  1.00  0.00     0.031 A 
HETATM   28  C   UNL     1      -4.694 -14.264 -42.156  1.00  0.00     0.045 A 
HETATM   29  C   UNL     1      -2.550 -15.433 -42.092  1.00  0.00    -0.023 A 
HETATM   30  C   UNL     1      -5.083 -14.913 -43.325  1.00  0.00     0.018 A 
HETATM   31  C   UNL     1      -5.381 -13.276 -41.346  1.00  0.00     0.259 A 
HETATM   32  C   UNL     1      -4.170 -15.837 -43.872  1.00  0.00     0.002 A 
HETATM   33  C   UNL     1      -2.920 -16.102 -43.273  1.00  0.00     0.012 A 
HETATM   34  O   UNL     1      -6.484 -12.757 -41.467  1.00  0.00    -0.267 OA
HETATM   35  C   UNL     1      -1.360 -15.565 -41.353  1.00  0.00     0.012 A 
HETATM   36  C   UNL     1      -1.168 -14.807 -40.176  1.00  0.00     0.003 A 
ENDBRANCH  23  24
ENDBRANCH   1  23
TORSDOF 7
ENDMDL
