MODEL 1
REMARK VINA RESULT:      -8.0      0.000      0.000
REMARK  9 active torsions:
REMARK  status: ('A' for Active; 'I' for Inactive)
REMARK    1  A    between atoms: C_2  and  C_3 
REMARK    2  A    between atoms: C_7  and  C_8 
REMARK    3  A    between atoms: C_8  and  C_9 
REMARK       I    between atoms: C_9  and  N_10 
REMARK    4  A    between atoms: N_10  and  C_11 
REMARK    5  A    between atoms: C_11  and  C_12 
REMARK    6  A    between atoms: C_12  and  N_13 
REMARK    7  A    between atoms: C_21  and  C_22 
REMARK    8  A    between atoms: C_32  and  C_33 
REMARK    9  A    between atoms: C_33  and  O_34 
ROOT
HETATM    1  C   UNL     1      -7.122   4.731 -29.846  1.00  0.00     0.037 C 
HETATM    2  N   UNL     1      -8.338   4.354 -30.377  1.00  0.00    -0.232 NA
HETATM    3  C   UNL     1      -8.396   4.111 -31.640  1.00  0.00     0.169 C 
HETATM    4  N   UNL     1      -7.152   3.857 -32.566  1.00  0.00    -0.321 N 
HETATM    5  C   UNL     1      -7.567   3.274 -33.644  1.00  0.00     0.011 C 
HETATM    6  C   UNL     1      -5.867   3.955 -31.844  1.00  0.00     0.151 C 
HETATM    7  S   UNL     1      -9.900   3.829 -32.468  1.00  0.00    -0.086 SA
HETATM    8  C   UNL     1      -8.998   3.593 -34.024  1.00  0.00     0.135 C 
HETATM    9  C   UNL     1      -6.009   4.810 -30.609  1.00  0.00     0.138 C 
ENDROOT
BRANCH   5  10
HETATM   10  C   UNL     1      -6.813   2.140 -34.289  1.00  0.00     0.156 C 
BRANCH  10  11
HETATM   11  C   UNL     1      -6.571   1.063 -33.232  1.00  0.00     0.223 C 
HETATM   12  N   UNL     1      -5.276   0.712 -32.988  1.00  0.00    -0.359 N 
HETATM   13  H   UNL     1      -4.547   1.173 -33.532  1.00  0.00     0.162 HD
HETATM   14  O   UNL     1      -7.519   0.526 -32.659  1.00  0.00    -0.273 OA
BRANCH  12  15
HETATM   15  C   UNL     1      -4.840  -0.510 -32.290  1.00  0.00     0.150 C 
BRANCH  15  16
HETATM   16  C   UNL     1      -4.039  -1.583 -33.074  1.00  0.00     0.254 C 
BRANCH  16  17
HETATM   17  N   UNL     1      -4.885  -2.745 -33.569  1.00  0.00    -0.070 N 
HETATM   18  H   UNL     1      -5.334  -3.134 -32.717  1.00  0.00     0.279 HD
HETATM   19  C   UNL     1      -5.982  -2.361 -34.535  1.00  0.00     0.235 C 
HETATM   20  C   UNL     1      -6.867  -3.572 -34.806  1.00  0.00     0.028 C 
HETATM   21  C   UNL     1      -6.063  -4.753 -35.332  1.00  0.00     0.003 C 
HETATM   22  C   UNL     1      -4.898  -5.082 -34.406  1.00  0.00     0.028 C 
HETATM   23  C   UNL     1      -4.028  -3.860 -34.135  1.00  0.00     0.235 C 
ENDBRANCH  16  17
ENDBRANCH  15  16
ENDBRANCH  12  15
ENDBRANCH  10  11
ENDBRANCH   5  10
BRANCH   6  24
HETATM   24  C   UNL     1      -4.654   4.292 -32.716  1.00  0.00    -0.027 A 
HETATM   25  C   UNL     1      -3.367   3.790 -32.395  1.00  0.00    -0.053 A 
HETATM   26  C   UNL     1      -3.107   2.856 -31.239  1.00  0.00     0.049 C 
HETATM   27  C   UNL     1      -2.259   4.157 -33.183  1.00  0.00     0.014 A 
HETATM   28  C   UNL     1      -2.389   5.030 -34.265  1.00  0.00    -0.061 A 
HETATM   29  C   UNL     1      -1.179   5.485 -35.031  1.00  0.00     0.048 C 
HETATM   30  C   UNL     1      -3.646   5.551 -34.561  1.00  0.00     0.007 A 
HETATM   31  C   UNL     1      -4.761   5.189 -33.801  1.00  0.00     0.010 A 
ENDBRANCH   6  24
BRANCH   9  32
HETATM   32  C   UNL     1      -5.664   6.241 -30.783  1.00  0.00     0.277 C 
HETATM   33  O   UNL     1      -6.416   6.971 -31.421  1.00  0.00    -0.264 OA
BRANCH  32  34
HETATM   34  O   UNL     1      -4.555   6.588 -30.111  1.00  0.00    -0.325 OA
HETATM   35  C   UNL     1      -3.562   7.215 -30.933  1.00  0.00     0.213 C 
ENDBRANCH  32  34
ENDBRANCH   9  32
BRANCH   1  36
HETATM   36  C   UNL     1      -7.189   5.221 -28.407  1.00  0.00     0.052 C 
HETATM   37  C   UNL     1      -8.216   6.337 -28.210  1.00  0.00     0.011 C 
ENDBRANCH   1  36
TORSDOF 9
ENDMDL
MODEL 2
REMARK VINA RESULT:      -8.0      2.890      7.266
REMARK  9 active torsions:
REMARK  status: ('A' for Active; 'I' for Inactive)
REMARK    1  A    between atoms: C_2  and  C_3 
REMARK    2  A    between atoms: C_7  and  C_8 
REMARK    3  A    between atoms: C_8  and  C_9 
REMARK       I    between atoms: C_9  and  N_10 
REMARK    4  A    between atoms: N_10  and  C_11 
REMARK    5  A    between atoms: C_11  and  C_12 
REMARK    6  A    between atoms: C_12  and  N_13 
REMARK    7  A    between atoms: C_21  and  C_22 
REMARK    8  A    between atoms: C_32  and  C_33 
REMARK    9  A    between atoms: C_33  and  O_34 
ROOT
HETATM    1  C   UNL     1     -10.039   3.233 -33.328  1.00  0.00     0.037 C 
HETATM    2  N   UNL     1      -9.792   4.586 -33.228  1.00  0.00    -0.232 NA
HETATM    3  C   UNL     1      -8.577   4.965 -33.035  1.00  0.00     0.169 C 
HETATM    4  N   UNL     1      -7.307   4.066 -33.256  1.00  0.00    -0.321 N 
HETATM    5  C   UNL     1      -6.277   4.843 -33.355  1.00  0.00     0.011 C 
HETATM    6  C   UNL     1      -7.641   2.694 -33.689  1.00  0.00     0.151 C 
HETATM    7  S   UNL     1      -8.159   6.618 -32.689  1.00  0.00    -0.086 SA
HETATM    8  C   UNL     1      -6.405   6.158 -32.614  1.00  0.00     0.135 C 
HETATM    9  C   UNL     1      -9.041   2.323 -33.264  1.00  0.00     0.138 C 
ENDROOT
BRANCH   5  10
HETATM   10  C   UNL     1      -5.183   4.609 -34.363  1.00  0.00     0.156 C 
BRANCH  10  11
HETATM   11  C   UNL     1      -3.844   4.927 -33.700  1.00  0.00     0.223 C 
HETATM   12  N   UNL     1      -3.162   6.014 -34.163  1.00  0.00    -0.359 N 
HETATM   13  H   UNL     1      -3.574   6.540 -34.934  1.00  0.00     0.162 HD
HETATM   14  O   UNL     1      -3.401   4.203 -32.807  1.00  0.00    -0.273 OA
BRANCH  12  15
HETATM   15  C   UNL     1      -1.737   6.294 -33.922  1.00  0.00     0.150 C 
BRANCH  15  16
HETATM   16  C   UNL     1      -1.346   7.437 -32.946  1.00  0.00     0.254 C 
BRANCH  16  17
HETATM   17  N   UNL     1      -0.454   6.989 -31.799  1.00  0.00    -0.070 N 
HETATM   18  H   UNL     1       0.490   7.352 -32.034  1.00  0.00     0.279 HD
HETATM   19  C   UNL     1      -0.839   7.544 -30.446  1.00  0.00     0.235 C 
HETATM   20  C   UNL     1       0.230   7.178 -29.424  1.00  0.00     0.028 C 
HETATM   21  C   UNL     1       0.455   5.674 -29.355  1.00  0.00     0.003 C 
HETATM   22  C   UNL     1       0.749   5.098 -30.735  1.00  0.00     0.028 C 
HETATM   23  C   UNL     1      -0.321   5.480 -31.749  1.00  0.00     0.235 C 
ENDBRANCH  16  17
ENDBRANCH  15  16
ENDBRANCH  12  15
ENDBRANCH  10  11
ENDBRANCH   5  10
BRANCH   6  24
HETATM   24  C   UNL     1      -6.580   1.636 -33.377  1.00  0.00    -0.027 A 
HETATM   25  C   UNL     1      -6.413   0.505 -34.216  1.00  0.00    -0.053 A 
HETATM   26  C   UNL     1      -7.201   0.291 -35.485  1.00  0.00     0.049 C 
HETATM   27  C   UNL     1      -5.465  -0.481 -33.878  1.00  0.00     0.014 A 
HETATM   28  C   UNL     1      -4.696  -0.387 -32.716  1.00  0.00    -0.061 A 
HETATM   29  C   UNL     1      -3.762  -1.497 -32.326  1.00  0.00     0.048 C 
HETATM   30  C   UNL     1      -4.882   0.706 -31.874  1.00  0.00     0.007 A 
HETATM   31  C   UNL     1      -5.808   1.702 -32.197  1.00  0.00     0.010 A 
ENDBRANCH   6  24
BRANCH   9  32
HETATM   32  C   UNL     1      -9.144   1.607 -31.971  1.00  0.00     0.277 C 
HETATM   33  O   UNL     1      -9.353   2.242 -30.942  1.00  0.00    -0.264 OA
BRANCH  32  34
HETATM   34  O   UNL     1      -9.075   0.274 -32.115  1.00  0.00    -0.325 OA
HETATM   35  C   UNL     1     -10.231  -0.292 -32.748  1.00  0.00     0.213 C 
ENDBRANCH  32  34
ENDBRANCH   9  32
BRANCH   1  36
HETATM   36  C   UNL     1     -11.515   2.861 -33.320  1.00  0.00     0.052 C 
HETATM   37  C   UNL     1     -11.986   2.285 -34.656  1.00  0.00     0.011 C 
ENDBRANCH   1  36
TORSDOF 9
ENDMDL
MODEL 3
REMARK VINA RESULT:      -7.7      4.575      7.884
REMARK  9 active torsions:
REMARK  status: ('A' for Active; 'I' for Inactive)
REMARK    1  A    between atoms: C_2  and  C_3 
REMARK    2  A    between atoms: C_7  and  C_8 
REMARK    3  A    between atoms: C_8  and  C_9 
REMARK       I    between atoms: C_9  and  N_10 
REMARK    4  A    between atoms: N_10  and  C_11 
REMARK    5  A    between atoms: C_11  and  C_12 
REMARK    6  A    between atoms: C_12  and  N_13 
REMARK    7  A    between atoms: C_21  and  C_22 
REMARK    8  A    between atoms: C_32  and  C_33 
REMARK    9  A    between atoms: C_33  and  O_34 
ROOT
HETATM    1  C   UNL     1      -7.221   4.399 -31.849  1.00  0.00     0.037 C 
HETATM    2  N   UNL     1      -8.325   5.040 -32.372  1.00  0.00    -0.232 NA
HETATM    3  C   UNL     1      -9.007   4.425 -33.274  1.00  0.00     0.169 C 
HETATM    4  N   UNL     1      -8.918   2.887 -33.579  1.00  0.00    -0.321 N 
HETATM    5  C   UNL     1      -9.980   2.546 -34.236  1.00  0.00     0.011 C 
HETATM    6  C   UNL     1      -7.927   2.189 -32.736  1.00  0.00     0.151 C 
HETATM    7  S   UNL     1     -10.293   5.197 -34.157  1.00  0.00    -0.086 SA
HETATM    8  C   UNL     1     -10.594   3.655 -35.065  1.00  0.00     0.135 C 
HETATM    9  C   UNL     1      -6.877   3.149 -32.235  1.00  0.00     0.138 C 
ENDROOT
BRANCH   5  10
HETATM   10  C   UNL     1     -10.721   1.263 -33.961  1.00  0.00     0.156 C 
BRANCH  10  11
HETATM   11  C   UNL     1     -12.215   1.525 -34.144  1.00  0.00     0.223 C 
HETATM   12  N   UNL     1     -12.913   1.935 -33.046  1.00  0.00    -0.359 N 
HETATM   13  H   UNL     1     -12.405   2.027 -32.167  1.00  0.00     0.162 HD
HETATM   14  O   UNL     1     -12.754   1.338 -35.235  1.00  0.00    -0.273 OA
BRANCH  12  15
HETATM   15  C   UNL     1     -14.379   1.908 -32.908  1.00  0.00     0.150 C 
BRANCH  15  16
HETATM   16  C   UNL     1     -15.055   2.824 -31.852  1.00  0.00     0.254 C 
BRANCH  16  17
HETATM   17  N   UNL     1     -16.324   3.502 -32.346  1.00  0.00    -0.070 N 
HETATM   18  H   UNL     1     -16.234   3.520 -33.380  1.00  0.00     0.279 HD
HETATM   19  C   UNL     1     -17.603   2.773 -32.004  1.00  0.00     0.235 C 
HETATM   20  C   UNL     1     -18.775   3.447 -32.708  1.00  0.00     0.028 C 
HETATM   21  C   UNL     1     -18.875   4.924 -32.353  1.00  0.00     0.003 C 
HETATM   22  C   UNL     1     -17.554   5.641 -32.607  1.00  0.00     0.028 C 
HETATM   23  C   UNL     1     -16.390   4.952 -31.907  1.00  0.00     0.235 C 
ENDBRANCH  16  17
ENDBRANCH  15  16
ENDBRANCH  12  15
ENDBRANCH  10  11
ENDBRANCH   5  10
BRANCH   6  24
HETATM   24  C   UNL     1      -7.372   0.888 -33.323  1.00  0.00    -0.027 A 
HETATM   25  C   UNL     1      -6.804  -0.104 -32.484  1.00  0.00    -0.053 A 
HETATM   26  C   UNL     1      -6.761   0.009 -30.979  1.00  0.00     0.049 C 
HETATM   27  C   UNL     1      -6.253  -1.268 -33.054  1.00  0.00     0.014 A 
HETATM   28  C   UNL     1      -6.227  -1.462 -34.436  1.00  0.00    -0.061 A 
HETATM   29  C   UNL     1      -5.547  -2.666 -35.026  1.00  0.00     0.048 C 
HETATM   30  C   UNL     1      -6.754  -0.474 -35.264  1.00  0.00     0.007 A 
HETATM   31  C   UNL     1      -7.318   0.682 -34.719  1.00  0.00     0.010 A 
ENDBRANCH   6  24
BRANCH   9  32
HETATM   32  C   UNL     1      -5.650   3.237 -33.061  1.00  0.00     0.277 C 
HETATM   33  O   UNL     1      -4.624   2.683 -32.682  1.00  0.00    -0.264 OA
BRANCH  32  34
HETATM   34  O   UNL     1      -5.858   3.877 -34.223  1.00  0.00    -0.325 OA
HETATM   35  C   UNL     1      -4.858   4.862 -34.519  1.00  0.00     0.213 C 
ENDBRANCH  32  34
ENDBRANCH   9  32
BRANCH   1  36
HETATM   36  C   UNL     1      -6.342   5.276 -30.969  1.00  0.00     0.052 C 
HETATM   37  C   UNL     1      -5.955   4.597 -29.656  1.00  0.00     0.011 C 
ENDBRANCH   1  36
TORSDOF 9
ENDMDL
MODEL 4
REMARK VINA RESULT:      -7.7      2.576      7.795
REMARK  9 active torsions:
REMARK  status: ('A' for Active; 'I' for Inactive)
REMARK    1  A    between atoms: C_2  and  C_3 
REMARK    2  A    between atoms: C_7  and  C_8 
REMARK    3  A    between atoms: C_8  and  C_9 
REMARK       I    between atoms: C_9  and  N_10 
REMARK    4  A    between atoms: N_10  and  C_11 
REMARK    5  A    between atoms: C_11  and  C_12 
REMARK    6  A    between atoms: C_12  and  N_13 
REMARK    7  A    between atoms: C_21  and  C_22 
REMARK    8  A    between atoms: C_32  and  C_33 
REMARK    9  A    between atoms: C_33  and  O_34 
ROOT
HETATM    1  C   UNL     1      -8.825   2.917 -32.646  1.00  0.00     0.037 C 
HETATM    2  N   UNL     1      -8.253   3.805 -31.759  1.00  0.00    -0.232 NA
HETATM    3  C   UNL     1      -7.085   3.525 -31.296  1.00  0.00     0.169 C 
HETATM    4  N   UNL     1      -6.103   2.463 -31.908  1.00  0.00    -0.321 N 
HETATM    5  C   UNL     1      -4.914   2.710 -31.462  1.00  0.00     0.011 C 
HETATM    6  C   UNL     1      -6.668   1.766 -33.082  1.00  0.00     0.151 C 
HETATM    7  S   UNL     1      -6.341   4.449 -30.022  1.00  0.00    -0.086 SA
HETATM    8  C   UNL     1      -4.876   3.382 -30.105  1.00  0.00     0.135 C 
HETATM    9  C   UNL     1      -8.176   1.803 -33.054  1.00  0.00     0.138 C 
ENDROOT
BRANCH   5  10
HETATM   10  C   UNL     1      -3.691   2.629 -32.337  1.00  0.00     0.156 C 
BRANCH  10  11
HETATM   11  C   UNL     1      -2.987   3.985 -32.304  1.00  0.00     0.223 C 
HETATM   12  N   UNL     1      -3.621   5.029 -32.911  1.00  0.00    -0.359 N 
HETATM   13  H   UNL     1      -4.515   4.843 -33.365  1.00  0.00     0.162 HD
HETATM   14  O   UNL     1      -1.882   4.104 -31.774  1.00  0.00    -0.273 OA
BRANCH  12  15
HETATM   15  C   UNL     1      -2.991   6.303 -33.297  1.00  0.00     0.150 C 
BRANCH  15  16
HETATM   16  C   UNL     1      -2.840   7.424 -32.233  1.00  0.00     0.254 C 
BRANCH  16  17
HETATM   17  N   UNL     1      -1.797   7.127 -31.168  1.00  0.00    -0.070 N 
HETATM   18  H   UNL     1      -2.021   6.172 -30.830  1.00  0.00     0.279 HD
HETATM   19  C   UNL     1      -0.370   7.118 -31.668  1.00  0.00     0.235 C 
HETATM   20  C   UNL     1       0.553   6.629 -30.558  1.00  0.00     0.028 C 
HETATM   21  C   UNL     1       0.420   7.472 -29.298  1.00  0.00     0.003 C 
HETATM   22  C   UNL     1      -1.033   7.561 -28.847  1.00  0.00     0.028 C 
HETATM   23  C   UNL     1      -1.947   8.041 -29.968  1.00  0.00     0.235 C 
ENDBRANCH  16  17
ENDBRANCH  15  16
ENDBRANCH  12  15
ENDBRANCH  10  11
ENDBRANCH   5  10
BRANCH   6  24
HETATM   24  C   UNL     1      -6.071   0.386 -33.371  1.00  0.00    -0.027 A 
HETATM   25  C   UNL     1      -6.341  -0.281 -34.593  1.00  0.00    -0.053 A 
HETATM   26  C   UNL     1      -7.162   0.326 -35.704  1.00  0.00     0.049 C 
HETATM   27  C   UNL     1      -5.821  -1.572 -34.812  1.00  0.00     0.014 A 
HETATM   28  C   UNL     1      -5.064  -2.229 -33.841  1.00  0.00    -0.061 A 
HETATM   29  C   UNL     1      -4.603  -3.643 -34.058  1.00  0.00     0.048 C 
HETATM   30  C   UNL     1      -4.826  -1.589 -32.627  1.00  0.00     0.007 A 
HETATM   31  C   UNL     1      -5.320  -0.303 -32.394  1.00  0.00     0.010 A 
ENDBRANCH   6  24
BRANCH   9  32
HETATM   32  C   UNL     1      -8.829   0.628 -32.432  1.00  0.00     0.277 C 
HETATM   33  O   UNL     1      -8.768   0.474 -31.216  1.00  0.00    -0.264 OA
BRANCH  32  34
HETATM   34  O   UNL     1      -9.514  -0.109 -33.320  1.00  0.00    -0.325 OA
HETATM   35  C   UNL     1     -10.771  -0.585 -32.820  1.00  0.00     0.213 C 
ENDBRANCH  32  34
ENDBRANCH   9  32
BRANCH   1  36
HETATM   36  C   UNL     1     -10.287   3.199 -32.962  1.00  0.00     0.052 C 
HETATM   37  C   UNL     1     -10.590   3.142 -34.459  1.00  0.00     0.011 C 
ENDBRANCH   1  36
TORSDOF 9
ENDMDL
MODEL 5
REMARK VINA RESULT:      -7.6      3.063      5.938
REMARK  9 active torsions:
REMARK  status: ('A' for Active; 'I' for Inactive)
REMARK    1  A    between atoms: C_2  and  C_3 
REMARK    2  A    between atoms: C_7  and  C_8 
REMARK    3  A    between atoms: C_8  and  C_9 
REMARK       I    between atoms: C_9  and  N_10 
REMARK    4  A    between atoms: N_10  and  C_11 
REMARK    5  A    between atoms: C_11  and  C_12 
REMARK    6  A    between atoms: C_12  and  N_13 
REMARK    7  A    between atoms: C_21  and  C_22 
REMARK    8  A    between atoms: C_32  and  C_33 
REMARK    9  A    between atoms: C_33  and  O_34 
ROOT
HETATM    1  C   UNL     1      -2.647   5.549 -31.243  1.00  0.00     0.037 C 
HETATM    2  N   UNL     1      -3.324   6.358 -30.354  1.00  0.00    -0.232 NA
HETATM    3  C   UNL     1      -4.592   6.180 -30.220  1.00  0.00     0.169 C 
HETATM    4  N   UNL     1      -5.378   4.907 -30.699  1.00  0.00    -0.321 N 
HETATM    5  C   UNL     1      -6.512   4.878 -30.078  1.00  0.00     0.011 C 
HETATM    6  C   UNL     1      -4.512   3.914 -31.367  1.00  0.00     0.151 C 
HETATM    7  S   UNL     1      -5.593   7.259 -29.292  1.00  0.00    -0.086 SA
HETATM    8  C   UNL     1      -7.043   6.236 -29.668  1.00  0.00     0.135 C 
HETATM    9  C   UNL     1      -3.277   4.570 -31.932  1.00  0.00     0.138 C 
ENDROOT
BRANCH   5  10
HETATM   10  C   UNL     1      -7.100   3.603 -29.531  1.00  0.00     0.156 C 
BRANCH  10  11
HETATM   11  C   UNL     1      -8.388   3.302 -30.297  1.00  0.00     0.223 C 
HETATM   12  N   UNL     1      -9.444   4.141 -30.092  1.00  0.00    -0.359 N 
HETATM   13  H   UNL     1      -9.321   4.907 -29.430  1.00  0.00     0.162 HD
HETATM   14  O   UNL     1      -8.459   2.322 -31.040  1.00  0.00    -0.273 OA
BRANCH  12  15
HETATM   15  C   UNL     1     -10.845   3.850 -30.441  1.00  0.00     0.150 C 
BRANCH  15  16
HETATM   16  C   UNL     1     -11.368   4.234 -31.852  1.00  0.00     0.254 C 
BRANCH  16  17
HETATM   17  N   UNL     1     -11.762   3.042 -32.709  1.00  0.00    -0.070 N 
HETATM   18  H   UNL     1     -11.782   2.236 -32.056  1.00  0.00     0.279 HD
HETATM   19  C   UNL     1     -13.126   3.151 -33.352  1.00  0.00     0.235 C 
HETATM   20  C   UNL     1     -13.477   1.828 -34.022  1.00  0.00     0.028 C 
HETATM   21  C   UNL     1     -12.424   1.412 -35.040  1.00  0.00     0.003 C 
HETATM   22  C   UNL     1     -11.034   1.395 -34.416  1.00  0.00     0.028 C 
HETATM   23  C   UNL     1     -10.699   2.719 -33.740  1.00  0.00     0.235 C 
ENDBRANCH  16  17
ENDBRANCH  15  16
ENDBRANCH  12  15
ENDBRANCH  10  11
ENDBRANCH   5  10
BRANCH   6  24
HETATM   24  C   UNL     1      -5.231   2.970 -32.336  1.00  0.00    -0.027 A 
HETATM   25  C   UNL     1      -4.916   1.588 -32.372  1.00  0.00    -0.053 A 
HETATM   26  C   UNL     1      -3.922   0.940 -31.440  1.00  0.00     0.049 C 
HETATM   27  C   UNL     1      -5.554   0.751 -33.309  1.00  0.00     0.014 A 
HETATM   28  C   UNL     1      -6.476   1.254 -34.228  1.00  0.00    -0.061 A 
HETATM   29  C   UNL     1      -7.071   0.362 -35.281  1.00  0.00     0.048 C 
HETATM   30  C   UNL     1      -6.762   2.617 -34.217  1.00  0.00     0.007 A 
HETATM   31  C   UNL     1      -6.151   3.463 -33.287  1.00  0.00     0.010 A 
ENDBRANCH   6  24
BRANCH   9  32
HETATM   32  C   UNL     1      -3.369   4.984 -33.351  1.00  0.00     0.277 C 
HETATM   33  O   UNL     1      -4.091   5.927 -33.662  1.00  0.00    -0.264 OA
BRANCH  32  34
HETATM   34  O   UNL     1      -2.540   4.288 -34.144  1.00  0.00    -0.325 OA
HETATM   35  C   UNL     1      -1.721   5.116 -34.981  1.00  0.00     0.213 C 
ENDBRANCH  32  34
ENDBRANCH   9  32
BRANCH   1  36
HETATM   36  C   UNL     1      -1.212   5.975 -31.514  1.00  0.00     0.052 C 
HETATM   37  C   UNL     1      -1.100   7.439 -31.938  1.00  0.00     0.011 C 
ENDBRANCH   1  36
TORSDOF 9
ENDMDL
MODEL 6
REMARK VINA RESULT:      -7.6      2.797      7.442
REMARK  9 active torsions:
REMARK  status: ('A' for Active; 'I' for Inactive)
REMARK    1  A    between atoms: C_2  and  C_3 
REMARK    2  A    between atoms: C_7  and  C_8 
REMARK    3  A    between atoms: C_8  and  C_9 
REMARK       I    between atoms: C_9  and  N_10 
REMARK    4  A    between atoms: N_10  and  C_11 
REMARK    5  A    between atoms: C_11  and  C_12 
REMARK    6  A    between atoms: C_12  and  N_13 
REMARK    7  A    between atoms: C_21  and  C_22 
REMARK    8  A    between atoms: C_32  and  C_33 
REMARK    9  A    between atoms: C_33  and  O_34 
ROOT
HETATM    1  C   UNL     1      -6.732   1.646 -33.215  1.00  0.00     0.037 C 
HETATM    2  N   UNL     1      -7.861   2.231 -32.682  1.00  0.00    -0.232 NA
HETATM    3  C   UNL     1      -7.724   3.348 -32.056  1.00  0.00     0.169 C 
HETATM    4  N   UNL     1      -6.464   4.282 -32.147  1.00  0.00    -0.321 N 
HETATM    5  C   UNL     1      -6.806   5.459 -31.732  1.00  0.00     0.011 C 
HETATM    6  C   UNL     1      -5.403   3.734 -33.016  1.00  0.00     0.151 C 
HETATM    7  S   UNL     1      -9.025   4.085 -31.166  1.00  0.00    -0.086 SA
HETATM    8  C   UNL     1      -7.938   5.470 -30.727  1.00  0.00     0.135 C 
HETATM    9  C   UNL     1      -5.518   2.234 -33.124  1.00  0.00     0.138 C 
ENDROOT
BRANCH   5  10
HETATM   10  C   UNL     1      -6.343   6.720 -32.413  1.00  0.00     0.156 C 
BRANCH  10  11
HETATM   11  C   UNL     1      -5.617   7.583 -31.382  1.00  0.00     0.223 C 
HETATM   12  N   UNL     1      -4.254   7.531 -31.375  1.00  0.00    -0.359 N 
HETATM   13  H   UNL     1      -3.800   6.909 -32.043  1.00  0.00     0.162 HD
HETATM   14  O   UNL     1      -6.254   8.268 -30.580  1.00  0.00    -0.273 OA
BRANCH  12  15
HETATM   15  C   UNL     1      -3.388   7.991 -30.276  1.00  0.00     0.150 C 
BRANCH  15  16
HETATM   16  C   UNL     1      -3.240   7.105 -29.009  1.00  0.00     0.254 C 
BRANCH  16  17
HETATM   17  N   UNL     1      -1.800   6.889 -28.573  1.00  0.00    -0.070 N 
HETATM   18  H   UNL     1      -1.571   5.922 -28.873  1.00  0.00     0.279 HD
HETATM   19  C   UNL     1      -0.799   7.822 -29.214  1.00  0.00     0.235 C 
HETATM   20  C   UNL     1       0.613   7.385 -28.842  1.00  0.00     0.028 C 
HETATM   21  C   UNL     1       0.808   7.325 -27.333  1.00  0.00     0.003 C 
HETATM   22  C   UNL     1      -0.260   6.460 -26.675  1.00  0.00     0.028 C 
HETATM   23  C   UNL     1      -1.666   6.901 -27.063  1.00  0.00     0.235 C 
ENDBRANCH  16  17
ENDBRANCH  15  16
ENDBRANCH  12  15
ENDBRANCH  10  11
ENDBRANCH   5  10
BRANCH   6  24
HETATM   24  C   UNL     1      -3.989   4.244 -32.719  1.00  0.00    -0.027 A 
HETATM   25  C   UNL     1      -3.209   4.854 -33.734  1.00  0.00    -0.053 A 
HETATM   26  C   UNL     1      -3.717   5.102 -35.133  1.00  0.00     0.049 C 
HETATM   27  C   UNL     1      -1.893   5.267 -33.448  1.00  0.00     0.014 A 
HETATM   28  C   UNL     1      -1.321   5.068 -32.190  1.00  0.00    -0.061 A 
HETATM   29  C   UNL     1       0.115   5.428 -31.937  1.00  0.00     0.048 C 
HETATM   30  C   UNL     1      -2.075   4.439 -31.202  1.00  0.00     0.007 A 
HETATM   31  C   UNL     1      -3.387   4.034 -31.460  1.00  0.00     0.010 A 
ENDBRANCH   6  24
BRANCH   9  32
HETATM   32  C   UNL     1      -4.697   1.462 -32.161  1.00  0.00     0.277 C 
HETATM   33  O   UNL     1      -5.062   1.367 -30.994  1.00  0.00    -0.264 OA
BRANCH  32  34
HETATM   34  O   UNL     1      -3.647   0.865 -32.746  1.00  0.00    -0.325 OA
HETATM   35  C   UNL     1      -3.156  -0.269 -32.016  1.00  0.00     0.213 C 
ENDBRANCH  32  34
ENDBRANCH   9  32
BRANCH   1  36
HETATM   36  C   UNL     1      -6.941   0.229 -33.729  1.00  0.00     0.052 C 
HETATM   37  C   UNL     1      -7.234   0.180 -35.228  1.00  0.00     0.011 C 
ENDBRANCH   1  36
TORSDOF 9
ENDMDL
MODEL 7
REMARK VINA RESULT:      -7.4      2.478      5.972
REMARK  9 active torsions:
REMARK  status: ('A' for Active; 'I' for Inactive)
REMARK    1  A    between atoms: C_2  and  C_3 
REMARK    2  A    between atoms: C_7  and  C_8 
REMARK    3  A    between atoms: C_8  and  C_9 
REMARK       I    between atoms: C_9  and  N_10 
REMARK    4  A    between atoms: N_10  and  C_11 
REMARK    5  A    between atoms: C_11  and  C_12 
REMARK    6  A    between atoms: C_12  and  N_13 
REMARK    7  A    between atoms: C_21  and  C_22 
REMARK    8  A    between atoms: C_32  and  C_33 
REMARK    9  A    between atoms: C_33  and  O_34 
ROOT
HETATM    1  C   UNL     1      -6.717   0.803 -32.883  1.00  0.00     0.037 C 
HETATM    2  N   UNL     1      -7.866   1.209 -32.235  1.00  0.00    -0.232 NA
HETATM    3  C   UNL     1      -7.837   2.330 -31.602  1.00  0.00     0.169 C 
HETATM    4  N   UNL     1      -6.745   3.443 -31.790  1.00  0.00    -0.321 N 
HETATM    5  C   UNL     1      -7.218   4.553 -31.322  1.00  0.00     0.011 C 
HETATM    6  C   UNL     1      -5.701   3.067 -32.765  1.00  0.00     0.151 C 
HETATM    7  S   UNL     1      -9.143   2.857 -30.580  1.00  0.00    -0.086 SA
HETATM    8  C   UNL     1      -8.239   4.387 -30.216  1.00  0.00     0.135 C 
HETATM    9  C   UNL     1      -5.601   1.567 -32.892  1.00  0.00     0.138 C 
ENDROOT
BRANCH   5  10
HETATM   10  C   UNL     1      -7.015   5.874 -32.017  1.00  0.00     0.156 C 
BRANCH  10  11
HETATM   11  C   UNL     1      -8.334   6.276 -32.676  1.00  0.00     0.223 C 
HETATM   12  N   UNL     1      -8.885   5.391 -33.556  1.00  0.00    -0.359 N 
HETATM   13  H   UNL     1      -8.380   4.524 -33.736  1.00  0.00     0.162 HD
HETATM   14  O   UNL     1      -8.846   7.369 -32.432  1.00  0.00    -0.273 OA
BRANCH  12  15
HETATM   15  C   UNL     1      -9.933   5.708 -34.540  1.00  0.00     0.150 C 
BRANCH  15  16
HETATM   16  C   UNL     1     -10.512   4.568 -35.421  1.00  0.00     0.254 C 
BRANCH  16  17
HETATM   17  N   UNL     1     -11.281   3.515 -34.639  1.00  0.00    -0.070 N 
HETATM   18  H   UNL     1     -11.409   3.923 -33.693  1.00  0.00     0.279 HD
HETATM   19  C   UNL     1     -12.650   3.192 -35.194  1.00  0.00     0.235 C 
HETATM   20  C   UNL     1     -13.385   2.273 -34.226  1.00  0.00     0.028 C 
HETATM   21  C   UNL     1     -12.596   1.003 -33.941  1.00  0.00     0.003 C 
HETATM   22  C   UNL     1     -11.183   1.327 -33.473  1.00  0.00     0.028 C 
HETATM   23  C   UNL     1     -10.462   2.254 -34.444  1.00  0.00     0.235 C 
ENDBRANCH  16  17
ENDBRANCH  15  16
ENDBRANCH  12  15
ENDBRANCH  10  11
ENDBRANCH   5  10
BRANCH   6  24
HETATM   24  C   UNL     1      -4.358   3.782 -32.590  1.00  0.00    -0.027 A 
HETATM   25  C   UNL     1      -3.798   4.544 -33.647  1.00  0.00    -0.053 A 
HETATM   26  C   UNL     1      -4.491   4.761 -34.970  1.00  0.00     0.049 C 
HETATM   27  C   UNL     1      -2.537   5.148 -33.478  1.00  0.00     0.014 A 
HETATM   28  C   UNL     1      -1.805   4.995 -32.299  1.00  0.00    -0.061 A 
HETATM   29  C   UNL     1      -0.421   5.567 -32.178  1.00  0.00     0.048 C 
HETATM   30  C   UNL     1      -2.338   4.219 -31.273  1.00  0.00     0.007 A 
HETATM   31  C   UNL     1      -3.594   3.622 -31.414  1.00  0.00     0.010 A 
ENDBRANCH   6  24
BRANCH   9  32
HETATM   32  C   UNL     1      -4.587   0.921 -32.026  1.00  0.00     0.277 C 
HETATM   33  O   UNL     1      -4.813   0.784 -30.828  1.00  0.00    -0.264 OA
BRANCH  32  34
HETATM   34  O   UNL     1      -3.530   0.470 -32.720  1.00  0.00    -0.325 OA
HETATM   35  C   UNL     1      -3.006  -0.768 -32.223  1.00  0.00     0.213 C 
ENDBRANCH  32  34
ENDBRANCH   9  32
BRANCH   1  36
HETATM   36  C   UNL     1      -6.760  -0.626 -33.403  1.00  0.00     0.052 C 
HETATM   37  C   UNL     1      -6.742  -0.700 -34.930  1.00  0.00     0.011 C 
ENDBRANCH   1  36
TORSDOF 9
ENDMDL
MODEL 8
REMARK VINA RESULT:      -7.4      2.568      7.391
REMARK  9 active torsions:
REMARK  status: ('A' for Active; 'I' for Inactive)
REMARK    1  A    between atoms: C_2  and  C_3 
REMARK    2  A    between atoms: C_7  and  C_8 
REMARK    3  A    between atoms: C_8  and  C_9 
REMARK       I    between atoms: C_9  and  N_10 
REMARK    4  A    between atoms: N_10  and  C_11 
REMARK    5  A    between atoms: C_11  and  C_12 
REMARK    6  A    between atoms: C_12  and  N_13 
REMARK    7  A    between atoms: C_21  and  C_22 
REMARK    8  A    between atoms: C_32  and  C_33 
REMARK    9  A    between atoms: C_33  and  O_34 
ROOT
HETATM    1  C   UNL     1      -8.797   4.764 -33.228  1.00  0.00     0.037 C 
HETATM    2  N   UNL     1      -8.041   5.353 -32.235  1.00  0.00    -0.232 NA
HETATM    3  C   UNL     1      -7.140   4.637 -31.658  1.00  0.00     0.169 C 
HETATM    4  N   UNL     1      -6.579   3.278 -32.211  1.00  0.00    -0.321 N 
HETATM    5  C   UNL     1      -5.453   3.038 -31.620  1.00  0.00     0.011 C 
HETATM    6  C   UNL     1      -7.218   2.864 -33.477  1.00  0.00     0.151 C 
HETATM    7  S   UNL     1      -6.263   5.190 -30.261  1.00  0.00    -0.086 SA
HETATM    8  C   UNL     1      -5.328   3.635 -30.234  1.00  0.00     0.135 C 
HETATM    9  C   UNL     1      -8.584   3.487 -33.618  1.00  0.00     0.138 C 
ENDROOT
BRANCH   5  10
HETATM   10  C   UNL     1      -4.258   2.489 -32.354  1.00  0.00     0.156 C 
BRANCH  10  11
HETATM   11  C   UNL     1      -3.208   3.595 -32.455  1.00  0.00     0.223 C 
HETATM   12  N   UNL     1      -3.363   4.510 -33.455  1.00  0.00    -0.359 N 
HETATM   13  H   UNL     1      -4.156   4.394 -34.086  1.00  0.00     0.162 HD
HETATM   14  O   UNL     1      -2.254   3.625 -31.677  1.00  0.00    -0.273 OA
BRANCH  12  15
HETATM   15  C   UNL     1      -2.318   5.425 -33.944  1.00  0.00     0.150 C 
BRANCH  15  16
HETATM   16  C   UNL     1      -2.373   6.922 -33.536  1.00  0.00     0.254 C 
BRANCH  16  17
HETATM   17  N   UNL     1      -1.566   7.252 -32.290  1.00  0.00    -0.070 N 
HETATM   18  H   UNL     1      -1.250   8.231 -32.426  1.00  0.00     0.279 HD
HETATM   19  C   UNL     1      -2.348   7.192 -30.998  1.00  0.00     0.235 C 
HETATM   20  C   UNL     1      -1.486   7.720 -29.858  1.00  0.00     0.028 C 
HETATM   21  C   UNL     1      -0.174   6.956 -29.740  1.00  0.00     0.003 C 
HETATM   22  C   UNL     1       0.571   6.934 -31.069  1.00  0.00     0.028 C 
HETATM   23  C   UNL     1      -0.306   6.414 -32.202  1.00  0.00     0.235 C 
ENDBRANCH  16  17
ENDBRANCH  15  16
ENDBRANCH  12  15
ENDBRANCH  10  11
ENDBRANCH   5  10
BRANCH   6  24
HETATM   24  C   UNL     1      -7.171   1.361 -33.769  1.00  0.00    -0.027 A 
HETATM   25  C   UNL     1      -7.254   0.413 -32.718  1.00  0.00    -0.053 A 
HETATM   26  C   UNL     1      -7.456   0.795 -31.272  1.00  0.00     0.049 C 
HETATM   27  C   UNL     1      -7.156  -0.962 -33.009  1.00  0.00     0.014 A 
HETATM   28  C   UNL     1      -6.951  -1.420 -34.311  1.00  0.00    -0.061 A 
HETATM   29  C   UNL     1      -6.752  -2.884 -34.585  1.00  0.00     0.048 C 
HETATM   30  C   UNL     1      -6.836  -0.489 -35.341  1.00  0.00     0.007 A 
HETATM   31  C   UNL     1      -6.944   0.879 -35.077  1.00  0.00     0.010 A 
ENDBRANCH   6  24
BRANCH   9  32
HETATM   32  C   UNL     1      -9.714   2.658 -33.138  1.00  0.00     0.277 C 
HETATM   33  O   UNL     1     -10.005   2.663 -31.945  1.00  0.00    -0.264 OA
BRANCH  32  34
HETATM   34  O   UNL     1     -10.362   2.043 -34.139  1.00  0.00    -0.325 OA
HETATM   35  C   UNL     1     -11.688   1.621 -33.788  1.00  0.00     0.213 C 
ENDBRANCH  32  34
ENDBRANCH   9  32
BRANCH   1  36
HETATM   36  C   UNL     1      -9.983   5.597 -33.692  1.00  0.00     0.052 C 
HETATM   37  C   UNL     1     -10.157   5.582 -35.210  1.00  0.00     0.011 C 
ENDBRANCH   1  36
TORSDOF 9
ENDMDL
MODEL 9
REMARK VINA RESULT:      -7.1      4.967      8.763
REMARK  9 active torsions:
REMARK  status: ('A' for Active; 'I' for Inactive)
REMARK    1  A    between atoms: C_2  and  C_3 
REMARK    2  A    between atoms: C_7  and  C_8 
REMARK    3  A    between atoms: C_8  and  C_9 
REMARK       I    between atoms: C_9  and  N_10 
REMARK    4  A    between atoms: N_10  and  C_11 
REMARK    5  A    between atoms: C_11  and  C_12 
REMARK    6  A    between atoms: C_12  and  N_13 
REMARK    7  A    between atoms: C_21  and  C_22 
REMARK    8  A    between atoms: C_32  and  C_33 
REMARK    9  A    between atoms: C_33  and  O_34 
ROOT
HETATM    1  C   UNL     1      -0.928   6.927 -30.962  1.00  0.00     0.037 C 
HETATM    2  N   UNL     1      -1.102   8.080 -30.224  1.00  0.00    -0.232 NA
HETATM    3  C   UNL     1      -2.303   8.515 -30.061  1.00  0.00     0.169 C 
HETATM    4  N   UNL     1      -3.607   7.678 -30.315  1.00  0.00    -0.321 N 
HETATM    5  C   UNL     1      -4.584   8.259 -29.698  1.00  0.00     0.011 C 
HETATM    6  C   UNL     1      -3.328   6.312 -30.803  1.00  0.00     0.151 C 
HETATM    7  S   UNL     1      -2.644  10.058 -29.331  1.00  0.00    -0.086 SA
HETATM    8  C   UNL     1      -4.422   9.755 -29.526  1.00  0.00     0.135 C 
HETATM    9  C   UNL     1      -1.978   6.246 -31.473  1.00  0.00     0.138 C 
ENDROOT
BRANCH   5  10
HETATM   10  C   UNL     1      -5.633   7.487 -28.940  1.00  0.00     0.156 C 
BRANCH  10  11
HETATM   11  C   UNL     1      -5.045   7.074 -27.592  1.00  0.00     0.223 C 
HETATM   12  N   UNL     1      -4.627   8.073 -26.763  1.00  0.00    -0.359 N 
HETATM   13  H   UNL     1      -4.715   9.033 -27.095  1.00  0.00     0.162 HD
HETATM   14  O   UNL     1      -4.933   5.883 -27.298  1.00  0.00    -0.273 OA
BRANCH  12  15
HETATM   15  C   UNL     1      -3.735   7.903 -25.604  1.00  0.00     0.150 C 
BRANCH  15  16
HETATM   16  C   UNL     1      -2.428   8.738 -25.527  1.00  0.00     0.254 C 
BRANCH  16  17
HETATM   17  N   UNL     1      -1.324   8.241 -26.446  1.00  0.00    -0.070 N 
HETATM   18  H   UNL     1      -1.691   8.380 -27.407  1.00  0.00     0.279 HD
HETATM   19  C   UNL     1      -0.021   8.999 -26.334  1.00  0.00     0.235 C 
HETATM   20  C   UNL     1       0.933   8.532 -27.427  1.00  0.00     0.028 C 
HETATM   21  C   UNL     1       1.167   7.029 -27.369  1.00  0.00     0.003 C 
HETATM   22  C   UNL     1      -0.152   6.266 -27.385  1.00  0.00     0.028 C 
HETATM   23  C   UNL     1      -1.100   6.750 -26.295  1.00  0.00     0.235 C 
ENDBRANCH  16  17
ENDBRANCH  15  16
ENDBRANCH  12  15
ENDBRANCH  10  11
ENDBRANCH   5  10
BRANCH   6  24
HETATM   24  C   UNL     1      -4.464   5.659 -31.596  1.00  0.00    -0.027 A 
HETATM   25  C   UNL     1      -4.537   4.249 -31.734  1.00  0.00    -0.053 A 
HETATM   26  C   UNL     1      -3.566   3.301 -31.074  1.00  0.00     0.049 C 
HETATM   27  C   UNL     1      -5.562   3.677 -32.512  1.00  0.00     0.014 A 
HETATM   28  C   UNL     1      -6.501   4.466 -33.179  1.00  0.00    -0.061 A 
HETATM   29  C   UNL     1      -7.526   3.838 -34.081  1.00  0.00     0.048 C 
HETATM   30  C   UNL     1      -6.411   5.852 -33.072  1.00  0.00     0.007 A 
HETATM   31  C   UNL     1      -5.411   6.440 -32.294  1.00  0.00     0.010 A 
ENDBRANCH   6  24
BRANCH   9  32
HETATM   32  C   UNL     1      -1.987   6.435 -32.942  1.00  0.00     0.277 C 
HETATM   33  O   UNL     1      -2.125   7.561 -33.407  1.00  0.00    -0.264 OA
BRANCH  32  34
HETATM   34  O   UNL     1      -1.743   5.295 -33.608  1.00  0.00    -0.325 OA
HETATM   35  C   UNL     1      -2.470   5.186 -34.839  1.00  0.00     0.213 C 
ENDBRANCH  32  34
ENDBRANCH   9  32
BRANCH   1  36
HETATM   36  C   UNL     1       0.522   6.612 -31.302  1.00  0.00     0.052 C 
HETATM   37  C   UNL     1       0.940   5.209 -30.865  1.00  0.00     0.011 C 
ENDBRANCH   1  36
TORSDOF 9
ENDMDL
MODEL 10
REMARK VINA RESULT:      -7.0     17.411     19.538
REMARK  9 active torsions:
REMARK  status: ('A' for Active; 'I' for Inactive)
REMARK    1  A    between atoms: C_2  and  C_3 
REMARK    2  A    between atoms: C_7  and  C_8 
REMARK    3  A    between atoms: C_8  and  C_9 
REMARK       I    between atoms: C_9  and  N_10 
REMARK    4  A    between atoms: N_10  and  C_11 
REMARK    5  A    between atoms: C_11  and  C_12 
REMARK    6  A    between atoms: C_12  and  N_13 
REMARK    7  A    between atoms: C_21  and  C_22 
REMARK    8  A    between atoms: C_32  and  C_33 
REMARK    9  A    between atoms: C_33  and  O_34 
ROOT
HETATM    1  C   UNL     1      -4.534 -15.249 -37.249  1.00  0.00     0.037 C 
HETATM    2  N   UNL     1      -4.138 -16.431 -37.840  1.00  0.00    -0.232 NA
HETATM    3  C   UNL     1      -4.810 -16.852 -38.854  1.00  0.00     0.169 C 
HETATM    4  N   UNL     1      -5.808 -15.981 -39.699  1.00  0.00    -0.321 N 
HETATM    5  C   UNL     1      -5.997 -16.573 -40.834  1.00  0.00     0.011 C 
HETATM    6  C   UNL     1      -5.937 -14.600 -39.192  1.00  0.00     0.151 C 
HETATM    7  S   UNL     1      -4.546 -18.420 -39.562  1.00  0.00    -0.086 SA
HETATM    8  C   UNL     1      -5.830 -18.078 -40.797  1.00  0.00     0.135 C 
HETATM    9  C   UNL     1      -5.571 -14.527 -37.731  1.00  0.00     0.138 C 
ENDROOT
BRANCH   5  10
HETATM   10  C   UNL     1      -6.063 -15.818 -42.136  1.00  0.00     0.156 C 
BRANCH  10  11
HETATM   11  C   UNL     1      -4.665 -15.289 -42.455  1.00  0.00     0.223 C 
HETATM   12  N   UNL     1      -3.641 -16.189 -42.437  1.00  0.00    -0.359 N 
HETATM   13  H   UNL     1      -3.861 -17.155 -42.196  1.00  0.00     0.162 HD
HETATM   14  O   UNL     1      -4.488 -14.092 -42.686  1.00  0.00    -0.273 OA
BRANCH  12  15
HETATM   15  C   UNL     1      -2.209 -15.850 -42.369  1.00  0.00     0.150 C 
BRANCH  15  16
HETATM   16  C   UNL     1      -1.365 -16.369 -41.173  1.00  0.00     0.254 C 
BRANCH  16  17
HETATM   17  N   UNL     1      -1.021 -15.297 -40.151  1.00  0.00    -0.070 N 
HETATM   18  H   UNL     1      -0.187 -14.814 -40.538  1.00  0.00     0.279 HD
HETATM   19  C   UNL     1      -2.099 -14.260 -39.936  1.00  0.00     0.235 C 
HETATM   20  C   UNL     1      -1.564 -13.150 -39.040  1.00  0.00     0.028 C 
HETATM   21  C   UNL     1      -1.052 -13.692 -37.712  1.00  0.00     0.003 C 
HETATM   22  C   UNL     1      -0.034 -14.805 -37.928  1.00  0.00     0.028 C 
HETATM   23  C   UNL     1      -0.578 -15.903 -38.834  1.00  0.00     0.235 C 
ENDBRANCH  16  17
ENDBRANCH  15  16
ENDBRANCH  12  15
ENDBRANCH  10  11
ENDBRANCH   5  10
BRANCH   6  24
HETATM   24  C   UNL     1      -7.245 -13.891 -39.557  1.00  0.00    -0.027 A 
HETATM   25  C   UNL     1      -7.235 -12.581 -40.101  1.00  0.00    -0.053 A 
HETATM   26  C   UNL     1      -5.968 -11.826 -40.417  1.00  0.00     0.049 C 
HETATM   27  C   UNL     1      -8.454 -11.932 -40.378  1.00  0.00     0.014 A 
HETATM   28  C   UNL     1      -9.682 -12.537 -40.105  1.00  0.00    -0.061 A 
HETATM   29  C   UNL     1     -10.967 -11.788 -40.318  1.00  0.00     0.048 C 
HETATM   30  C   UNL     1      -9.694 -13.810 -39.540  1.00  0.00     0.007 A 
HETATM   31  C   UNL     1      -8.497 -14.478 -39.270  1.00  0.00     0.010 A 
ENDBRANCH   6  24
BRANCH   9  32
HETATM   32  C   UNL     1      -6.704 -14.648 -36.784  1.00  0.00     0.277 C 
HETATM   33  O   UNL     1      -7.149 -15.759 -36.512  1.00  0.00    -0.264 OA
BRANCH  32  34
HETATM   34  O   UNL     1      -7.059 -13.467 -36.254  1.00  0.00    -0.325 OA
HETATM   35  C   UNL     1      -7.092 -13.472 -34.820  1.00  0.00     0.213 C 
ENDBRANCH  32  34
ENDBRANCH   9  32
BRANCH   1  36
HETATM   36  C   UNL     1      -3.841 -14.945 -35.928  1.00  0.00     0.052 C 
HETATM   37  C   UNL     1      -3.646 -16.189 -35.063  1.00  0.00     0.011 C 
ENDBRANCH   1  36
TORSDOF 9
ENDMDL
