MODEL 1
REMARK VINA RESULT:      -9.2      0.000      0.000
REMARK  5 active torsions:
REMARK  status: ('A' for Active; 'I' for Inactive)
REMARK    1  A    between atoms: C_9  and  C_10 
REMARK    2  A    between atoms: C_10  and  N_11 
REMARK    3  A    between atoms: N_11  and  C_12 
REMARK    4  A    between atoms: C_13  and  O_14 
REMARK    5  A    between atoms: C_16  and  O_17 
ROOT
HETATM    1  C   UNL     1      -6.314  -4.464 -35.455  1.00  0.00     0.048 C 
HETATM    2  C   UNL     1      -5.410  -3.683 -34.546  1.00  0.00    -0.061 A 
HETATM    3  C   UNL     1      -5.614  -2.309 -34.345  1.00  0.00     0.020 A 
HETATM    4  C   UNL     1      -4.790  -1.592 -33.471  1.00  0.00    -0.008 A 
HETATM    5  C   UNL     1      -3.767  -2.259 -32.790  1.00  0.00     0.045 A 
HETATM    6  N   UNL     1      -2.955  -1.541 -31.906  1.00  0.00    -0.322 N 
HETATM    7  C   UNL     1      -3.099  -0.202 -31.653  1.00  0.00     0.253 A 
HETATM    8  O   UNL     1      -2.383   0.359 -30.829  1.00  0.00    -0.268 OA
HETATM    9  C   UNL     1      -4.168   0.520 -32.407  1.00  0.00     0.024 A 
HETATM   10  C   UNL     1      -4.973  -0.159 -33.247  1.00  0.00     0.027 A 
HETATM   11  C   UNL     1      -3.561  -3.624 -32.971  1.00  0.00     0.031 A 
HETATM   12  C   UNL     1      -4.386  -4.334 -33.845  1.00  0.00     0.009 A 
HETATM   13  H   UNL     1      -2.221  -2.009 -31.391  1.00  0.00     0.169 HD
ENDROOT
BRANCH   9  14
HETATM   14  C   UNL     1      -4.326   1.985 -32.123  1.00  0.00     0.136 C 
BRANCH  14  15
HETATM   15  N   UNL     1      -2.995   2.586 -32.023  1.00  0.00    -0.286 NA
HETATM   16  H   UNL     1      -2.269   1.933 -32.322  1.00  0.00     0.128 HD
BRANCH  15  17
HETATM   17  C   UNL     1      -2.761   3.827 -32.647  1.00  0.00     0.042 A 
HETATM   18  C   UNL     1      -1.791   4.670 -32.071  1.00  0.00     0.089 A 
HETATM   19  C   UNL     1      -1.445   5.902 -32.615  1.00  0.00     0.074 A 
HETATM   20  C   UNL     1      -2.109   6.325 -33.757  1.00  0.00     0.068 A 
HETATM   21  C   UNL     1      -3.100   5.539 -34.336  1.00  0.00     0.038 A 
HETATM   22  C   UNL     1      -3.431   4.297 -33.779  1.00  0.00     0.029 A 
BRANCH  18  23
HETATM   23  O   UNL     1      -1.193   4.285 -30.899  1.00  0.00    -0.359 OA
HETATM   24  H   UNL     1      -1.619   3.428 -30.695  1.00  0.00     0.218 HD
ENDBRANCH  18  23
BRANCH  20  25
HETATM   25  O   UNL     1      -1.828   7.525 -34.341  1.00  0.00    -0.361 OA
HETATM   26  H   UNL     1      -2.437   7.652 -35.088  1.00  0.00     0.217 HD
ENDBRANCH  20  25
ENDBRANCH  15  17
ENDBRANCH  14  15
ENDBRANCH   9  14
TORSDOF 5
ENDMDL
MODEL 2
REMARK VINA RESULT:      -8.9      5.448      8.332
REMARK  5 active torsions:
REMARK  status: ('A' for Active; 'I' for Inactive)
REMARK    1  A    between atoms: C_9  and  C_10 
REMARK    2  A    between atoms: C_10  and  N_11 
REMARK    3  A    between atoms: N_11  and  C_12 
REMARK    4  A    between atoms: C_13  and  O_14 
REMARK    5  A    between atoms: C_16  and  O_17 
ROOT
HETATM    1  C   UNL     1     -14.685   0.688 -33.966  1.00  0.00     0.048 C 
HETATM    2  C   UNL     1     -13.276   1.191 -34.079  1.00  0.00    -0.061 A 
HETATM    3  C   UNL     1     -12.206   0.440 -33.568  1.00  0.00     0.020 A 
HETATM    4  C   UNL     1     -10.891   0.897 -33.706  1.00  0.00    -0.008 A 
HETATM    5  C   UNL     1     -10.650   2.105 -34.367  1.00  0.00     0.045 A 
HETATM    6  N   UNL     1      -9.332   2.551 -34.515  1.00  0.00    -0.322 N 
HETATM    7  C   UNL     1      -8.239   1.868 -34.051  1.00  0.00     0.253 A 
HETATM    8  O   UNL     1      -7.105   2.291 -34.256  1.00  0.00    -0.268 OA
HETATM    9  C   UNL     1      -8.496   0.595 -33.312  1.00  0.00     0.024 A 
HETATM   10  C   UNL     1      -9.757   0.140 -33.178  1.00  0.00     0.027 A 
HETATM   11  C   UNL     1     -11.701   2.856 -34.889  1.00  0.00     0.031 A 
HETATM   12  C   UNL     1     -13.011   2.394 -34.747  1.00  0.00     0.009 A 
HETATM   13  H   UNL     1      -9.137   3.413 -35.005  1.00  0.00     0.169 HD
ENDROOT
BRANCH   9  14
HETATM   14  C   UNL     1      -7.295  -0.152 -32.811  1.00  0.00     0.136 C 
BRANCH  14  15
HETATM   15  N   UNL     1      -6.438  -0.475 -33.952  1.00  0.00    -0.286 NA
HETATM   16  H   UNL     1      -5.587   0.091 -33.949  1.00  0.00     0.128 HD
BRANCH  15  17
HETATM   17  C   UNL     1      -6.077  -1.819 -34.172  1.00  0.00     0.042 A 
HETATM   18  C   UNL     1      -4.743  -2.184 -33.907  1.00  0.00     0.089 A 
HETATM   19  C   UNL     1      -4.276  -3.485 -34.050  1.00  0.00     0.074 A 
HETATM   20  C   UNL     1      -5.159  -4.454 -34.503  1.00  0.00     0.068 A 
HETATM   21  C   UNL     1      -6.476  -4.127 -34.811  1.00  0.00     0.038 A 
HETATM   22  C   UNL     1      -6.932  -2.812 -34.654  1.00  0.00     0.029 A 
BRANCH  18  23
HETATM   23  O   UNL     1      -3.852  -1.210 -33.536  1.00  0.00    -0.359 OA
HETATM   24  H   UNL     1      -3.033  -1.710 -33.346  1.00  0.00     0.218 HD
ENDBRANCH  18  23
BRANCH  20  25
HETATM   25  O   UNL     1      -4.769  -5.749 -34.676  1.00  0.00    -0.361 OA
HETATM   26  H   UNL     1      -5.483  -6.225 -35.132  1.00  0.00     0.217 HD
ENDBRANCH  20  25
ENDBRANCH  15  17
ENDBRANCH  14  15
ENDBRANCH   9  14
TORSDOF 5
ENDMDL
MODEL 3
REMARK VINA RESULT:      -8.8      1.607      2.223
REMARK  5 active torsions:
REMARK  status: ('A' for Active; 'I' for Inactive)
REMARK    1  A    between atoms: C_9  and  C_10 
REMARK    2  A    between atoms: C_10  and  N_11 
REMARK    3  A    between atoms: N_11  and  C_12 
REMARK    4  A    between atoms: C_13  and  O_14 
REMARK    5  A    between atoms: C_16  and  O_17 
ROOT
HETATM    1  C   UNL     1      -4.031  -4.403 -34.219  1.00  0.00     0.048 C 
HETATM    2  C   UNL     1      -4.657  -3.048 -34.064  1.00  0.00    -0.061 A 
HETATM    3  C   UNL     1      -4.080  -2.088 -33.219  1.00  0.00     0.020 A 
HETATM    4  C   UNL     1      -4.648  -0.815 -33.103  1.00  0.00    -0.008 A 
HETATM    5  C   UNL     1      -5.790  -0.503 -33.847  1.00  0.00     0.045 A 
HETATM    6  N   UNL     1      -6.346   0.777 -33.739  1.00  0.00    -0.322 N 
HETATM    7  C   UNL     1      -5.835   1.767 -32.942  1.00  0.00     0.253 A 
HETATM    8  O   UNL     1      -6.342   2.884 -32.930  1.00  0.00    -0.268 OA
HETATM    9  C   UNL     1      -4.636   1.425 -32.119  1.00  0.00     0.024 A 
HETATM   10  C   UNL     1      -4.075   0.204 -32.225  1.00  0.00     0.027 A 
HETATM   11  C   UNL     1      -6.366  -1.442 -34.699  1.00  0.00     0.031 A 
HETATM   12  C   UNL     1      -5.795  -2.711 -34.808  1.00  0.00     0.009 A 
HETATM   13  H   UNL     1      -7.161   1.027 -34.282  1.00  0.00     0.169 HD
ENDROOT
BRANCH   9  14
HETATM   14  C   UNL     1      -4.075   2.514 -31.252  1.00  0.00     0.136 C 
BRANCH  14  15
HETATM   15  N   UNL     1      -2.721   2.824 -31.711  1.00  0.00    -0.286 NA
HETATM   16  H   UNL     1      -2.370   2.103 -32.344  1.00  0.00     0.128 HD
BRANCH  15  17
HETATM   17  C   UNL     1      -2.471   4.084 -32.289  1.00  0.00     0.042 A 
HETATM   18  C   UNL     1      -1.488   4.892 -31.685  1.00  0.00     0.089 A 
HETATM   19  C   UNL     1      -1.126   6.138 -32.183  1.00  0.00     0.074 A 
HETATM   20  C   UNL     1      -1.788   6.613 -33.307  1.00  0.00     0.068 A 
HETATM   21  C   UNL     1      -2.790   5.862 -33.912  1.00  0.00     0.038 A 
HETATM   22  C   UNL     1      -3.137   4.605 -33.401  1.00  0.00     0.029 A 
BRANCH  18  23
HETATM   23  O   UNL     1      -0.893   4.455 -30.529  1.00  0.00    -0.359 OA
HETATM   24  H   UNL     1      -1.269   5.043 -29.843  1.00  0.00     0.218 HD
ENDBRANCH  18  23
BRANCH  20  25
HETATM   25  O   UNL     1      -1.491   7.830 -33.846  1.00  0.00    -0.361 OA
HETATM   26  H   UNL     1      -0.938   8.317 -33.214  1.00  0.00     0.217 HD
ENDBRANCH  20  25
ENDBRANCH  15  17
ENDBRANCH  14  15
ENDBRANCH   9  14
TORSDOF 5
ENDMDL
MODEL 4
REMARK VINA RESULT:      -8.8      5.884      7.447
REMARK  5 active torsions:
REMARK  status: ('A' for Active; 'I' for Inactive)
REMARK    1  A    between atoms: C_9  and  C_10 
REMARK    2  A    between atoms: C_10  and  N_11 
REMARK    3  A    between atoms: N_11  and  C_12 
REMARK    4  A    between atoms: C_13  and  O_14 
REMARK    5  A    between atoms: C_16  and  O_17 
ROOT
HETATM    1  C   UNL     1      -6.198  -4.583 -35.338  1.00  0.00     0.048 C 
HETATM    2  C   UNL     1      -6.003  -3.178 -34.847  1.00  0.00    -0.061 A 
HETATM    3  C   UNL     1      -7.023  -2.225 -34.988  1.00  0.00     0.020 A 
HETATM    4  C   UNL     1      -6.850  -0.926 -34.500  1.00  0.00    -0.008 A 
HETATM    5  C   UNL     1      -5.654  -0.587 -33.859  1.00  0.00     0.045 A 
HETATM    6  N   UNL     1      -5.491   0.709 -33.359  1.00  0.00    -0.322 N 
HETATM    7  C   UNL     1      -6.444   1.689 -33.452  1.00  0.00     0.253 A 
HETATM    8  O   UNL     1      -6.257   2.792 -32.949  1.00  0.00    -0.268 OA
HETATM    9  C   UNL     1      -7.709   1.340 -34.168  1.00  0.00     0.024 A 
HETATM   10  C   UNL     1      -7.892   0.091 -34.638  1.00  0.00     0.027 A 
HETATM   11  C   UNL     1      -4.638  -1.526 -33.702  1.00  0.00     0.031 A 
HETATM   12  C   UNL     1      -4.817  -2.820 -34.193  1.00  0.00     0.009 A 
HETATM   13  H   UNL     1      -4.641   0.967 -32.877  1.00  0.00     0.169 HD
ENDROOT
BRANCH   9  14
HETATM   14  C   UNL     1      -8.752   2.415 -34.262  1.00  0.00     0.136 C 
BRANCH  14  15
HETATM   15  N   UNL     1      -9.796   2.138 -33.275  1.00  0.00    -0.286 NA
HETATM   16  H   UNL     1      -9.815   2.853 -32.545  1.00  0.00     0.128 HD
BRANCH  15  17
HETATM   17  C   UNL     1     -11.115   1.923 -33.721  1.00  0.00     0.042 A 
HETATM   18  C   UNL     1     -11.701   0.676 -33.436  1.00  0.00     0.089 A 
HETATM   19  C   UNL     1     -13.007   0.358 -33.791  1.00  0.00     0.074 A 
HETATM   20  C   UNL     1     -13.748   1.305 -34.483  1.00  0.00     0.068 A 
HETATM   21  C   UNL     1     -13.194   2.537 -34.816  1.00  0.00     0.038 A 
HETATM   22  C   UNL     1     -11.879   2.843 -34.444  1.00  0.00     0.029 A 
BRANCH  18  23
HETATM   23  O   UNL     1     -10.941  -0.287 -32.823  1.00  0.00    -0.359 OA
HETATM   24  H   UNL     1     -11.519  -0.610 -32.102  1.00  0.00     0.218 HD
ENDBRANCH  18  23
BRANCH  20  25
HETATM   25  O   UNL     1     -15.032   1.060 -34.871  1.00  0.00    -0.361 OA
HETATM   26  H   UNL     1     -15.163   1.443 -35.755  1.00  0.00     0.217 HD
ENDBRANCH  20  25
ENDBRANCH  15  17
ENDBRANCH  14  15
ENDBRANCH   9  14
TORSDOF 5
ENDMDL
MODEL 5
REMARK VINA RESULT:      -8.6      3.055      4.297
REMARK  5 active torsions:
REMARK  status: ('A' for Active; 'I' for Inactive)
REMARK    1  A    between atoms: C_9  and  C_10 
REMARK    2  A    between atoms: C_10  and  N_11 
REMARK    3  A    between atoms: N_11  and  C_12 
REMARK    4  A    between atoms: C_13  and  O_14 
REMARK    5  A    between atoms: C_16  and  O_17 
ROOT
HETATM    1  C   UNL     1      -6.387  -4.653 -35.639  1.00  0.00     0.048 C 
HETATM    2  C   UNL     1      -5.475  -3.882 -34.730  1.00  0.00    -0.061 A 
HETATM    3  C   UNL     1      -5.701  -2.519 -34.480  1.00  0.00     0.020 A 
HETATM    4  C   UNL     1      -4.869  -1.813 -33.606  1.00  0.00    -0.008 A 
HETATM    5  C   UNL     1      -3.816  -2.479 -32.973  1.00  0.00     0.045 A 
HETATM    6  N   UNL     1      -2.995  -1.771 -32.088  1.00  0.00    -0.322 N 
HETATM    7  C   UNL     1      -3.159  -0.444 -31.789  1.00  0.00     0.253 A 
HETATM    8  O   UNL     1      -2.434   0.105 -30.966  1.00  0.00    -0.268 OA
HETATM    9  C   UNL     1      -4.262   0.278 -32.491  1.00  0.00     0.024 A 
HETATM   10  C   UNL     1      -5.075  -0.391 -33.332  1.00  0.00     0.027 A 
HETATM   11  C   UNL     1      -3.586  -3.833 -33.202  1.00  0.00     0.031 A 
HETATM   12  C   UNL     1      -4.420  -4.532 -34.077  1.00  0.00     0.009 A 
HETATM   13  H   UNL     1      -2.239  -2.240 -31.607  1.00  0.00     0.169 HD
ENDROOT
BRANCH   9  14
HETATM   14  C   UNL     1      -4.442   1.730 -32.157  1.00  0.00     0.136 C 
BRANCH  14  15
HETATM   15  N   UNL     1      -5.072   1.830 -30.840  1.00  0.00    -0.286 NA
HETATM   16  H   UNL     1      -4.564   2.477 -30.234  1.00  0.00     0.128 HD
BRANCH  15  17
HETATM   17  C   UNL     1      -6.445   2.135 -30.764  1.00  0.00     0.042 A 
HETATM   18  C   UNL     1      -6.826   3.209 -29.937  1.00  0.00     0.089 A 
HETATM   19  C   UNL     1      -8.145   3.630 -29.808  1.00  0.00     0.074 A 
HETATM   20  C   UNL     1      -9.126   2.937 -30.504  1.00  0.00     0.068 A 
HETATM   21  C   UNL     1      -8.796   1.848 -31.303  1.00  0.00     0.038 A 
HETATM   22  C   UNL     1      -7.460   1.443 -31.427  1.00  0.00     0.029 A 
BRANCH  18  23
HETATM   23  O   UNL     1      -5.865   3.840 -29.189  1.00  0.00    -0.359 OA
HETATM   24  H   UNL     1      -5.273   4.233 -29.862  1.00  0.00     0.218 HD
ENDBRANCH  18  23
BRANCH  20  25
HETATM   25  O   UNL     1     -10.441   3.288 -30.418  1.00  0.00    -0.361 OA
HETATM   26  H   UNL     1     -10.819   2.865 -29.630  1.00  0.00     0.217 HD
ENDBRANCH  20  25
ENDBRANCH  15  17
ENDBRANCH  14  15
ENDBRANCH   9  14
TORSDOF 5
ENDMDL
MODEL 6
REMARK VINA RESULT:      -8.2      3.153      4.563
REMARK  5 active torsions:
REMARK  status: ('A' for Active; 'I' for Inactive)
REMARK    1  A    between atoms: C_9  and  C_10 
REMARK    2  A    between atoms: C_10  and  N_11 
REMARK    3  A    between atoms: N_11  and  C_12 
REMARK    4  A    between atoms: C_13  and  O_14 
REMARK    5  A    between atoms: C_16  and  O_17 
ROOT
HETATM    1  C   UNL     1      -6.436  -4.704 -35.516  1.00  0.00     0.048 C 
HETATM    2  C   UNL     1      -5.517  -3.901 -34.642  1.00  0.00    -0.061 A 
HETATM    3  C   UNL     1      -5.750  -2.535 -34.424  1.00  0.00     0.020 A 
HETATM    4  C   UNL     1      -4.911  -1.799 -33.583  1.00  0.00    -0.008 A 
HETATM    5  C   UNL     1      -3.841  -2.439 -32.950  1.00  0.00     0.045 A 
HETATM    6  N   UNL     1      -3.012  -1.702 -32.097  1.00  0.00    -0.322 N 
HETATM    7  C   UNL     1      -3.184  -0.369 -31.830  1.00  0.00     0.253 A 
HETATM    8  O   UNL     1      -2.450   0.209 -31.034  1.00  0.00    -0.268 OA
HETATM    9  C   UNL     1      -4.305   0.326 -32.533  1.00  0.00     0.024 A 
HETATM   10  C   UNL     1      -5.125  -0.372 -33.342  1.00  0.00     0.027 A 
HETATM   11  C   UNL     1      -3.603  -3.797 -33.148  1.00  0.00     0.031 A 
HETATM   12  C   UNL     1      -4.444  -4.526 -33.990  1.00  0.00     0.009 A 
HETATM   13  H   UNL     1      -2.245  -2.151 -31.617  1.00  0.00     0.169 HD
ENDROOT
BRANCH   9  14
HETATM   14  C   UNL     1      -4.492   1.784 -32.233  1.00  0.00     0.136 C 
BRANCH  14  15
HETATM   15  N   UNL     1      -5.713   1.944 -31.443  1.00  0.00    -0.286 NA
HETATM   16  H   UNL     1      -5.641   2.738 -30.805  1.00  0.00     0.128 HD
BRANCH  15  17
HETATM   17  C   UNL     1      -6.951   2.023 -32.112  1.00  0.00     0.042 A 
HETATM   18  C   UNL     1      -8.001   1.217 -31.632  1.00  0.00     0.089 A 
HETATM   19  C   UNL     1      -9.276   1.233 -32.185  1.00  0.00     0.074 A 
HETATM   20  C   UNL     1      -9.509   2.060 -33.275  1.00  0.00     0.068 A 
HETATM   21  C   UNL     1      -8.489   2.845 -33.802  1.00  0.00     0.038 A 
HETATM   22  C   UNL     1      -7.212   2.821 -33.228  1.00  0.00     0.029 A 
BRANCH  18  23
HETATM   23  O   UNL     1      -7.747   0.342 -30.607  1.00  0.00    -0.359 OA
HETATM   24  H   UNL     1      -6.773   0.380 -30.511  1.00  0.00     0.218 HD
ENDBRANCH  18  23
BRANCH  20  25
HETATM   25  O   UNL     1     -10.733   2.122 -33.873  1.00  0.00    -0.361 OA
HETATM   26  H   UNL     1     -11.174   2.938 -33.583  1.00  0.00     0.217 HD
ENDBRANCH  20  25
ENDBRANCH  15  17
ENDBRANCH  14  15
ENDBRANCH   9  14
TORSDOF 5
ENDMDL
MODEL 7
REMARK VINA RESULT:      -8.0      5.279      6.809
REMARK  5 active torsions:
REMARK  status: ('A' for Active; 'I' for Inactive)
REMARK    1  A    between atoms: C_9  and  C_10 
REMARK    2  A    between atoms: C_10  and  N_11 
REMARK    3  A    between atoms: N_11  and  C_12 
REMARK    4  A    between atoms: C_13  and  O_14 
REMARK    5  A    between atoms: C_16  and  O_17 
ROOT
HETATM    1  C   UNL     1      -2.309  -3.426 -31.583  1.00  0.00     0.048 C 
HETATM    2  C   UNL     1      -3.440  -2.949 -32.447  1.00  0.00    -0.061 A 
HETATM    3  C   UNL     1      -4.008  -1.682 -32.244  1.00  0.00     0.020 A 
HETATM    4  C   UNL     1      -5.039  -1.228 -33.073  1.00  0.00    -0.008 A 
HETATM    5  C   UNL     1      -5.492  -2.044 -34.114  1.00  0.00     0.045 A 
HETATM    6  N   UNL     1      -6.514  -1.580 -34.950  1.00  0.00    -0.322 N 
HETATM    7  C   UNL     1      -7.110  -0.353 -34.818  1.00  0.00     0.253 A 
HETATM    8  O   UNL     1      -7.968   0.013 -35.615  1.00  0.00    -0.268 OA
HETATM    9  C   UNL     1      -6.653   0.505 -33.684  1.00  0.00     0.024 A 
HETATM   10  C   UNL     1      -5.656   0.084 -32.882  1.00  0.00     0.027 A 
HETATM   11  C   UNL     1      -4.929  -3.299 -34.334  1.00  0.00     0.031 A 
HETATM   12  C   UNL     1      -3.902  -3.746 -33.503  1.00  0.00     0.009 A 
HETATM   13  H   UNL     1      -6.842  -2.148 -35.718  1.00  0.00     0.169 HD
ENDROOT
BRANCH   9  14
HETATM   14  C   UNL     1      -7.304   1.850 -33.547  1.00  0.00     0.136 C 
BRANCH  14  15
HETATM   15  N   UNL     1      -8.543   1.692 -32.785  1.00  0.00    -0.286 NA
HETATM   16  H   UNL     1      -8.543   2.281 -31.950  1.00  0.00     0.128 HD
BRANCH  15  17
HETATM   17  C   UNL     1      -9.775   1.859 -33.447  1.00  0.00     0.042 A 
HETATM   18  C   UNL     1     -10.743   0.850 -33.282  1.00  0.00     0.089 A 
HETATM   19  C   UNL     1     -12.008   0.918 -33.854  1.00  0.00     0.074 A 
HETATM   20  C   UNL     1     -12.313   2.017 -34.644  1.00  0.00     0.068 A 
HETATM   21  C   UNL     1     -11.373   3.019 -34.862  1.00  0.00     0.038 A 
HETATM   22  C   UNL     1     -10.105   2.938 -34.271  1.00  0.00     0.029 A 
BRANCH  18  23
HETATM   23  O   UNL     1     -10.412  -0.273 -32.567  1.00  0.00    -0.359 OA
HETATM   24  H   UNL     1     -10.846  -0.996 -33.064  1.00  0.00     0.218 HD
ENDBRANCH  18  23
BRANCH  20  25
HETATM   25  O   UNL     1     -13.531   2.148 -35.244  1.00  0.00    -0.361 OA
HETATM   26  H   UNL     1     -14.154   1.546 -34.803  1.00  0.00     0.217 HD
ENDBRANCH  20  25
ENDBRANCH  15  17
ENDBRANCH  14  15
ENDBRANCH   9  14
TORSDOF 5
ENDMDL
MODEL 8
REMARK VINA RESULT:      -8.0      2.943      8.100
REMARK  5 active torsions:
REMARK  status: ('A' for Active; 'I' for Inactive)
REMARK    1  A    between atoms: C_9  and  C_10 
REMARK    2  A    between atoms: C_10  and  N_11 
REMARK    3  A    between atoms: N_11  and  C_12 
REMARK    4  A    between atoms: C_13  and  O_14 
REMARK    5  A    between atoms: C_16  and  O_17 
ROOT
HETATM    1  C   UNL     1       0.596   5.680 -31.161  1.00  0.00     0.048 C 
HETATM    2  C   UNL     1      -0.697   5.646 -31.922  1.00  0.00    -0.061 A 
HETATM    3  C   UNL     1      -1.648   4.645 -31.669  1.00  0.00     0.020 A 
HETATM    4  C   UNL     1      -2.866   4.636 -32.356  1.00  0.00    -0.008 A 
HETATM    5  C   UNL     1      -3.133   5.641 -33.291  1.00  0.00     0.045 A 
HETATM    6  N   UNL     1      -4.359   5.636 -33.966  1.00  0.00    -0.322 N 
HETATM    7  C   UNL     1      -5.337   4.698 -33.766  1.00  0.00     0.253 A 
HETATM    8  O   UNL     1      -6.410   4.779 -34.355  1.00  0.00    -0.268 OA
HETATM    9  C   UNL     1      -5.039   3.603 -32.794  1.00  0.00     0.024 A 
HETATM   10  C   UNL     1      -3.873   3.603 -32.120  1.00  0.00     0.027 A 
HETATM   11  C   UNL     1      -2.204   6.647 -33.544  1.00  0.00     0.031 A 
HETATM   12  C   UNL     1      -0.990   6.649 -32.855  1.00  0.00     0.009 A 
HETATM   13  H   UNL     1      -4.578   6.364 -34.632  1.00  0.00     0.169 HD
ENDROOT
BRANCH   9  14
HETATM   14  C   UNL     1      -6.116   2.581 -32.573  1.00  0.00     0.136 C 
BRANCH  14  15
HETATM   15  N   UNL     1      -6.393   1.915 -33.846  1.00  0.00    -0.286 NA
HETATM   16  H   UNL     1      -5.941   2.399 -34.625  1.00  0.00     0.128 HD
BRANCH  15  17
HETATM   17  C   UNL     1      -6.127   0.537 -33.965  1.00  0.00     0.042 A 
HETATM   18  C   UNL     1      -6.960  -0.214 -34.816  1.00  0.00     0.089 A 
HETATM   19  C   UNL     1      -6.776  -1.573 -35.044  1.00  0.00     0.074 A 
HETATM   20  C   UNL     1      -5.744  -2.217 -34.377  1.00  0.00     0.068 A 
HETATM   21  C   UNL     1      -4.920  -1.519 -33.499  1.00  0.00     0.038 A 
HETATM   22  C   UNL     1      -5.116  -0.148 -33.287  1.00  0.00     0.029 A 
BRANCH  18  23
HETATM   23  O   UNL     1      -8.028   0.407 -35.412  1.00  0.00    -0.359 OA
HETATM   24  H   UNL     1      -8.597  -0.338 -35.693  1.00  0.00     0.218 HD
ENDBRANCH  18  23
BRANCH  20  25
HETATM   25  O   UNL     1      -5.509  -3.549 -34.545  1.00  0.00    -0.361 OA
HETATM   26  H   UNL     1      -6.266  -4.040 -34.184  1.00  0.00     0.217 HD
ENDBRANCH  20  25
ENDBRANCH  15  17
ENDBRANCH  14  15
ENDBRANCH   9  14
TORSDOF 5
ENDMDL
MODEL 9
REMARK VINA RESULT:      -7.9      2.867      7.091
REMARK  5 active torsions:
REMARK  status: ('A' for Active; 'I' for Inactive)
REMARK    1  A    between atoms: C_9  and  C_10 
REMARK    2  A    between atoms: C_10  and  N_11 
REMARK    3  A    between atoms: N_11  and  C_12 
REMARK    4  A    between atoms: C_13  and  O_14 
REMARK    5  A    between atoms: C_16  and  O_17 
ROOT
HETATM    1  C   UNL     1      -1.102   5.570 -34.868  1.00  0.00     0.048 C 
HETATM    2  C   UNL     1      -1.920   5.007 -33.742  1.00  0.00    -0.061 A 
HETATM    3  C   UNL     1      -3.213   4.514 -33.976  1.00  0.00     0.020 A 
HETATM    4  C   UNL     1      -3.958   3.959 -32.931  1.00  0.00    -0.008 A 
HETATM    5  C   UNL     1      -3.400   3.889 -31.651  1.00  0.00     0.045 A 
HETATM    6  N   UNL     1      -4.144   3.320 -30.612  1.00  0.00    -0.322 N 
HETATM    7  C   UNL     1      -5.406   2.811 -30.766  1.00  0.00     0.253 A 
HETATM    8  O   UNL     1      -5.986   2.281 -29.824  1.00  0.00    -0.268 OA
HETATM    9  C   UNL     1      -6.020   2.917 -32.125  1.00  0.00     0.024 A 
HETATM   10  C   UNL     1      -5.311   3.444 -33.142  1.00  0.00     0.027 A 
HETATM   11  C   UNL     1      -2.113   4.364 -31.407  1.00  0.00     0.031 A 
HETATM   12  C   UNL     1      -1.375   4.917 -32.454  1.00  0.00     0.009 A 
HETATM   13  H   UNL     1      -3.750   3.244 -29.684  1.00  0.00     0.169 HD
ENDROOT
BRANCH   9  14
HETATM   14  C   UNL     1      -7.401   2.354 -32.291  1.00  0.00     0.136 C 
BRANCH  14  15
HETATM   15  N   UNL     1      -7.379   0.945 -31.898  1.00  0.00    -0.286 NA
HETATM   16  H   UNL     1      -8.298   0.635 -31.575  1.00  0.00     0.128 HD
BRANCH  15  17
HETATM   17  C   UNL     1      -6.884  -0.008 -32.810  1.00  0.00     0.042 A 
HETATM   18  C   UNL     1      -5.708  -0.696 -32.455  1.00  0.00     0.089 A 
HETATM   19  C   UNL     1      -5.143  -1.684 -33.253  1.00  0.00     0.074 A 
HETATM   20  C   UNL     1      -5.753  -1.978 -34.464  1.00  0.00     0.068 A 
HETATM   21  C   UNL     1      -6.896  -1.296 -34.869  1.00  0.00     0.038 A 
HETATM   22  C   UNL     1      -7.456  -0.309 -34.048  1.00  0.00     0.029 A 
BRANCH  18  23
HETATM   23  O   UNL     1      -5.062  -0.348 -31.296  1.00  0.00    -0.359 OA
HETATM   24  H   UNL     1      -4.160  -0.707 -31.421  1.00  0.00     0.218 HD
ENDBRANCH  18  23
BRANCH  20  25
HETATM   25  O   UNL     1      -5.250  -2.929 -35.302  1.00  0.00    -0.361 OA
HETATM   26  H   UNL     1      -5.560  -2.737 -36.203  1.00  0.00     0.217 HD
ENDBRANCH  20  25
ENDBRANCH  15  17
ENDBRANCH  14  15
ENDBRANCH   9  14
TORSDOF 5
ENDMDL
MODEL 10
REMARK VINA RESULT:      -7.8      2.568      8.002
REMARK  5 active torsions:
REMARK  status: ('A' for Active; 'I' for Inactive)
REMARK    1  A    between atoms: C_9  and  C_10 
REMARK    2  A    between atoms: C_10  and  N_11 
REMARK    3  A    between atoms: N_11  and  C_12 
REMARK    4  A    between atoms: C_13  and  O_14 
REMARK    5  A    between atoms: C_16  and  O_17 
ROOT
HETATM    1  C   UNL     1      -1.104   6.407 -33.666  1.00  0.00     0.048 C 
HETATM    2  C   UNL     1      -2.099   5.653 -32.833  1.00  0.00    -0.061 A 
HETATM    3  C   UNL     1      -2.261   4.268 -32.994  1.00  0.00     0.020 A 
HETATM    4  C   UNL     1      -3.165   3.563 -32.193  1.00  0.00    -0.008 A 
HETATM    5  C   UNL     1      -3.899   4.249 -31.221  1.00  0.00     0.045 A 
HETATM    6  N   UNL     1      -4.792   3.537 -30.412  1.00  0.00    -0.322 N 
HETATM    7  C   UNL     1      -4.996   2.186 -30.506  1.00  0.00     0.253 A 
HETATM    8  O   UNL     1      -5.758   1.614 -29.733  1.00  0.00    -0.268 OA
HETATM    9  C   UNL     1      -4.239   1.457 -31.568  1.00  0.00     0.024 A 
HETATM   10  C   UNL     1      -3.360   2.122 -32.343  1.00  0.00     0.027 A 
HETATM   11  C   UNL     1      -3.740   5.621 -31.042  1.00  0.00     0.031 A 
HETATM   12  C   UNL     1      -2.837   6.318 -31.846  1.00  0.00     0.009 A 
HETATM   13  H   UNL     1      -5.318   4.012 -29.692  1.00  0.00     0.169 HD
ENDROOT
BRANCH   9  14
HETATM   14  C   UNL     1      -4.462  -0.024 -31.664  1.00  0.00     0.136 C 
BRANCH  14  15
HETATM   15  N   UNL     1      -4.673  -0.374 -33.069  1.00  0.00    -0.286 NA
HETATM   16  H   UNL     1      -4.036   0.142 -33.679  1.00  0.00     0.128 HD
BRANCH  15  17
HETATM   17  C   UNL     1      -4.646  -1.731 -33.443  1.00  0.00     0.042 A 
HETATM   18  C   UNL     1      -5.606  -2.166 -34.378  1.00  0.00     0.089 A 
HETATM   19  C   UNL     1      -5.658  -3.471 -34.853  1.00  0.00     0.074 A 
HETATM   20  C   UNL     1      -4.741  -4.387 -34.357  1.00  0.00     0.068 A 
HETATM   21  C   UNL     1      -3.799  -4.007 -33.406  1.00  0.00     0.038 A 
HETATM   22  C   UNL     1      -3.757  -2.685 -32.944  1.00  0.00     0.029 A 
BRANCH  18  23
HETATM   23  O   UNL     1      -6.561  -1.279 -34.805  1.00  0.00    -0.359 OA
HETATM   24  H   UNL     1      -7.095  -1.114 -34.001  1.00  0.00     0.218 HD
ENDBRANCH  18  23
BRANCH  20  25
HETATM   25  O   UNL     1      -4.737  -5.686 -34.771  1.00  0.00    -0.361 OA
HETATM   26  H   UNL     1      -5.658  -5.964 -34.911  1.00  0.00     0.217 HD
ENDBRANCH  20  25
ENDBRANCH  15  17
ENDBRANCH  14  15
ENDBRANCH   9  14
TORSDOF 5
ENDMDL
