MODEL 1
REMARK VINA RESULT:      -7.9      0.000      0.000
REMARK  7 active torsions:
REMARK  status: ('A' for Active; 'I' for Inactive)
REMARK    1  A    between atoms: C_2  and  C_3 
REMARK    2  A    between atoms: C_3  and  O_4 
REMARK    3  A    between atoms: O_4  and  C_5 
REMARK    4  A    between atoms: C_8  and  C_9 
REMARK    5  A    between atoms: C_9  and  N_10 
REMARK    6  A    between atoms: N_10  and  C_11 
REMARK    7  A    between atoms: C_18  and  C_19 
REMARK       I    between atoms: C_19  and  N_20 
ROOT
HETATM    1  C   UNL     1      -6.399   1.113 -33.463  1.00  0.00     0.009 A 
HETATM    2  C   UNL     1      -5.354   0.340 -32.925  1.00  0.00     0.039 A 
HETATM    3  C   UNL     1      -5.088  -0.952 -33.423  1.00  0.00     0.030 A 
HETATM    4  C   UNL     1      -5.854  -1.429 -34.478  1.00  0.00     0.063 A 
HETATM    5  N   UNL     1      -5.367  -2.678 -34.743  1.00  0.00    -0.277 N 
HETATM    6  H   UNL     1      -5.687  -3.321 -35.459  1.00  0.00     0.189 HD
HETATM    7  N   UNL     1      -4.352  -3.061 -33.951  1.00  0.00    -0.168 NA
HETATM    8  C   UNL     1      -4.166  -2.001 -33.131  1.00  0.00     0.156 A 
HETATM    9  C   UNL     1      -6.872  -0.684 -35.072  1.00  0.00     0.034 A 
HETATM   10  C   UNL     1      -7.115   0.596 -34.550  1.00  0.00     0.026 A 
ENDROOT
BRANCH   1  11
HETATM   11  N   UNL     1      -6.573   2.417 -32.979  1.00  0.00    -0.289 NA
HETATM   12  H   UNL     1      -7.407   2.501 -32.400  1.00  0.00     0.128 HD
BRANCH  11  13
HETATM   13  C   UNL     1      -6.418   3.546 -33.884  1.00  0.00     0.131 C 
BRANCH  13  14
HETATM   14  C   UNL     1      -5.001   4.064 -33.808  1.00  0.00    -0.045 A 
HETATM   15  C   UNL     1      -4.491   4.886 -34.824  1.00  0.00     0.011 A 
HETATM   16  C   UNL     1      -3.189   5.391 -34.754  1.00  0.00     0.037 A 
HETATM   17  C   UNL     1      -2.377   5.083 -33.664  1.00  0.00     0.068 A 
HETATM   18  C   UNL     1      -2.870   4.245 -32.661  1.00  0.00     0.037 A 
HETATM   19  C   UNL     1      -4.171   3.738 -32.729  1.00  0.00     0.011 A 
BRANCH  17  20
HETATM   20  O   UNL     1      -1.097   5.520 -33.466  1.00  0.00    -0.351 OA
BRANCH  20  21
HETATM   21  C   UNL     1      -0.914   6.924 -33.273  1.00  0.00     0.179 C 
BRANCH  21  22
HETATM   22  C   UNL     1      -0.488   7.174 -31.818  1.00  0.00     0.002 C 
HETATM   23  C   UNL     1       0.220   5.953 -31.228  1.00  0.00     0.011 C 
HETATM   24  C   UNL     1      -1.699   7.548 -30.966  1.00  0.00     0.011 C 
ENDBRANCH  21  22
ENDBRANCH  20  21
ENDBRANCH  17  20
ENDBRANCH  13  14
ENDBRANCH  11  13
ENDBRANCH   1  11
BRANCH   8  25
HETATM   25  C   UNL     1      -3.128  -2.011 -32.093  1.00  0.00     0.270 C 
HETATM   26  N   UNL     1      -2.877  -3.248 -31.565  1.00  0.00    -0.365 N 
HETATM   27  H   UNL     1      -3.407  -4.039 -31.913  1.00  0.00     0.159 HD
HETATM   28  H   UNL     1      -2.180  -3.355 -30.845  1.00  0.00     0.159 HD
HETATM   29  O   UNL     1      -2.518  -1.019 -31.705  1.00  0.00    -0.266 OA
ENDBRANCH   8  25
TORSDOF 7
ENDMDL
MODEL 2
REMARK VINA RESULT:      -7.9      3.035      8.008
REMARK  7 active torsions:
REMARK  status: ('A' for Active; 'I' for Inactive)
REMARK    1  A    between atoms: C_2  and  C_3 
REMARK    2  A    between atoms: C_3  and  O_4 
REMARK    3  A    between atoms: O_4  and  C_5 
REMARK    4  A    between atoms: C_8  and  C_9 
REMARK    5  A    between atoms: C_9  and  N_10 
REMARK    6  A    between atoms: N_10  and  C_11 
REMARK    7  A    between atoms: C_18  and  C_19 
REMARK       I    between atoms: C_19  and  N_20 
ROOT
HETATM    1  C   UNL     1      -4.546   3.852 -32.585  1.00  0.00     0.009 A 
HETATM    2  C   UNL     1      -3.297   4.315 -32.134  1.00  0.00     0.039 A 
HETATM    3  C   UNL     1      -2.522   5.180 -32.933  1.00  0.00     0.030 A 
HETATM    4  C   UNL     1      -3.033   5.595 -34.155  1.00  0.00     0.063 A 
HETATM    5  N   UNL     1      -2.081   6.418 -34.686  1.00  0.00    -0.277 N 
HETATM    6  H   UNL     1      -2.119   6.907 -35.573  1.00  0.00     0.189 HD
HETATM    7  N   UNL     1      -0.988   6.575 -33.919  1.00  0.00    -0.168 NA
HETATM    8  C   UNL     1      -1.249   5.817 -32.828  1.00  0.00     0.156 A 
HETATM    9  C   UNL     1      -4.284   5.197 -34.626  1.00  0.00     0.034 A 
HETATM   10  C   UNL     1      -5.029   4.331 -33.810  1.00  0.00     0.026 A 
ENDROOT
BRANCH   1  11
HETATM   11  N   UNL     1      -5.306   3.051 -31.722  1.00  0.00    -0.289 NA
HETATM   12  H   UNL     1      -6.020   3.588 -31.233  1.00  0.00     0.128 HD
BRANCH  11  13
HETATM   13  C   UNL     1      -4.635   2.103 -30.844  1.00  0.00     0.131 C 
BRANCH  13  14
HETATM   14  C   UNL     1      -4.432   0.795 -31.573  1.00  0.00    -0.045 A 
HETATM   15  C   UNL     1      -3.352  -0.037 -31.246  1.00  0.00     0.011 A 
HETATM   16  C   UNL     1      -3.166  -1.261 -31.897  1.00  0.00     0.037 A 
HETATM   17  C   UNL     1      -4.060  -1.671 -32.886  1.00  0.00     0.068 A 
HETATM   18  C   UNL     1      -5.123  -0.834 -33.232  1.00  0.00     0.037 A 
HETATM   19  C   UNL     1      -5.312   0.389 -32.584  1.00  0.00     0.011 A 
BRANCH  17  20
HETATM   20  O   UNL     1      -4.002  -2.843 -33.586  1.00  0.00    -0.351 OA
BRANCH  20  21
HETATM   21  C   UNL     1      -4.689  -2.883 -34.838  1.00  0.00     0.179 C 
BRANCH  21  22
HETATM   22  C   UNL     1      -5.366  -4.255 -34.990  1.00  0.00     0.002 C 
HETATM   23  C   UNL     1      -6.857  -4.180 -34.655  1.00  0.00     0.011 C 
HETATM   24  C   UNL     1      -4.676  -5.290 -34.104  1.00  0.00     0.011 C 
ENDBRANCH  21  22
ENDBRANCH  20  21
ENDBRANCH  17  20
ENDBRANCH  13  14
ENDBRANCH  11  13
ENDBRANCH   1  11
BRANCH   8  25
HETATM   25  C   UNL     1      -0.288   5.712 -31.723  1.00  0.00     0.270 C 
HETATM   26  N   UNL     1       0.327   6.892 -31.405  1.00  0.00    -0.365 N 
HETATM   27  H   UNL     1       0.087   7.722 -31.934  1.00  0.00     0.159 HD
HETATM   28  H   UNL     1       1.004   6.919 -30.659  1.00  0.00     0.159 HD
HETATM   29  O   UNL     1      -0.031   4.677 -31.117  1.00  0.00    -0.266 OA
ENDBRANCH   8  25
TORSDOF 7
ENDMDL
MODEL 3
REMARK VINA RESULT:      -7.9      1.164      1.703
REMARK  7 active torsions:
REMARK  status: ('A' for Active; 'I' for Inactive)
REMARK    1  A    between atoms: C_2  and  C_3 
REMARK    2  A    between atoms: C_3  and  O_4 
REMARK    3  A    between atoms: O_4  and  C_5 
REMARK    4  A    between atoms: C_8  and  C_9 
REMARK    5  A    between atoms: C_9  and  N_10 
REMARK    6  A    between atoms: N_10  and  C_11 
REMARK    7  A    between atoms: C_18  and  C_19 
REMARK       I    between atoms: C_19  and  N_20 
ROOT
HETATM    1  C   UNL     1      -6.633   0.383 -32.968  1.00  0.00     0.009 A 
HETATM    2  C   UNL     1      -5.550  -0.400 -32.529  1.00  0.00     0.039 A 
HETATM    3  C   UNL     1      -5.130  -1.524 -33.270  1.00  0.00     0.030 A 
HETATM    4  C   UNL     1      -5.782  -1.818 -34.460  1.00  0.00     0.063 A 
HETATM    5  N   UNL     1      -5.160  -2.932 -34.948  1.00  0.00    -0.277 N 
HETATM    6  H   UNL     1      -5.373  -3.425 -35.808  1.00  0.00     0.189 HD
HETATM    7  N   UNL     1      -4.160  -3.395 -34.179  1.00  0.00    -0.168 NA
HETATM    8  C   UNL     1      -4.127  -2.531 -33.139  1.00  0.00     0.156 A 
HETATM    9  C   UNL     1      -6.832  -1.047 -34.957  1.00  0.00     0.034 A 
HETATM   10  C   UNL     1      -7.230   0.061 -34.193  1.00  0.00     0.026 A 
ENDROOT
BRANCH   1  11
HETATM   11  N   UNL     1      -6.963   1.528 -32.230  1.00  0.00    -0.289 NA
HETATM   12  H   UNL     1      -7.868   1.439 -31.772  1.00  0.00     0.128 HD
BRANCH  11  13
HETATM   13  C   UNL     1      -6.774   2.843 -32.823  1.00  0.00     0.131 C 
BRANCH  13  14
HETATM   14  C   UNL     1      -5.342   3.285 -32.629  1.00  0.00    -0.045 A 
HETATM   15  C   UNL     1      -4.612   2.852 -31.513  1.00  0.00     0.011 A 
HETATM   16  C   UNL     1      -3.279   3.236 -31.334  1.00  0.00     0.037 A 
HETATM   17  C   UNL     1      -2.656   4.058 -32.271  1.00  0.00     0.068 A 
HETATM   18  C   UNL     1      -3.385   4.512 -33.373  1.00  0.00     0.037 A 
HETATM   19  C   UNL     1      -4.718   4.131 -33.554  1.00  0.00     0.011 A 
BRANCH  17  20
HETATM   20  O   UNL     1      -1.360   4.493 -32.225  1.00  0.00    -0.351 OA
BRANCH  20  21
HETATM   21  C   UNL     1      -0.943   5.157 -31.030  1.00  0.00     0.179 C 
BRANCH  21  22
HETATM   22  C   UNL     1      -0.126   6.401 -31.413  1.00  0.00     0.002 C 
HETATM   23  C   UNL     1       0.467   7.080 -30.177  1.00  0.00     0.011 C 
HETATM   24  C   UNL     1      -0.991   7.387 -32.196  1.00  0.00     0.011 C 
ENDBRANCH  21  22
ENDBRANCH  20  21
ENDBRANCH  17  20
ENDBRANCH  13  14
ENDBRANCH  11  13
ENDBRANCH   1  11
BRANCH   8  25
HETATM   25  C   UNL     1      -3.155  -2.684 -32.049  1.00  0.00     0.270 C 
HETATM   26  N   UNL     1      -2.523  -1.522 -31.697  1.00  0.00    -0.365 N 
HETATM   27  H   UNL     1      -2.760  -0.672 -32.196  1.00  0.00     0.159 HD
HETATM   28  H   UNL     1      -1.838  -1.528 -30.959  1.00  0.00     0.159 HD
HETATM   29  O   UNL     1      -2.904  -3.742 -31.481  1.00  0.00    -0.266 OA
ENDBRANCH   8  25
TORSDOF 7
ENDMDL
MODEL 4
REMARK VINA RESULT:      -7.7      3.082      7.923
REMARK  7 active torsions:
REMARK  status: ('A' for Active; 'I' for Inactive)
REMARK    1  A    between atoms: C_2  and  C_3 
REMARK    2  A    between atoms: C_3  and  O_4 
REMARK    3  A    between atoms: O_4  and  C_5 
REMARK    4  A    between atoms: C_8  and  C_9 
REMARK    5  A    between atoms: C_9  and  N_10 
REMARK    6  A    between atoms: N_10  and  C_11 
REMARK    7  A    between atoms: C_18  and  C_19 
REMARK       I    between atoms: C_19  and  N_20 
ROOT
HETATM    1  C   UNL     1      -4.685   3.998 -32.563  1.00  0.00     0.009 A 
HETATM    2  C   UNL     1      -3.424   4.432 -32.113  1.00  0.00     0.039 A 
HETATM    3  C   UNL     1      -2.612   5.246 -32.931  1.00  0.00     0.030 A 
HETATM    4  C   UNL     1      -3.098   5.638 -34.171  1.00  0.00     0.063 A 
HETATM    5  N   UNL     1      -2.112   6.411 -34.716  1.00  0.00    -0.277 N 
HETATM    6  H   UNL     1      -2.125   6.873 -35.619  1.00  0.00     0.189 HD
HETATM    7  N   UNL     1      -1.023   6.555 -33.943  1.00  0.00    -0.168 NA
HETATM    8  C   UNL     1      -1.320   5.842 -32.833  1.00  0.00     0.156 A 
HETATM    9  C   UNL     1      -4.356   5.268 -34.642  1.00  0.00     0.034 A 
HETATM   10  C   UNL     1      -5.138   4.455 -33.807  1.00  0.00     0.026 A 
ENDROOT
BRANCH   1  11
HETATM   11  N   UNL     1      -5.479   3.251 -31.683  1.00  0.00    -0.289 NA
HETATM   12  H   UNL     1      -4.946   2.524 -31.211  1.00  0.00     0.128 HD
BRANCH  11  13
HETATM   13  C   UNL     1      -6.785   2.780 -32.119  1.00  0.00     0.131 C 
BRANCH  13  14
HETATM   14  C   UNL     1      -6.623   1.509 -32.919  1.00  0.00    -0.045 A 
HETATM   15  C   UNL     1      -7.148   1.417 -34.217  1.00  0.00     0.011 A 
HETATM   16  C   UNL     1      -6.985   0.254 -34.976  1.00  0.00     0.037 A 
HETATM   17  C   UNL     1      -6.293  -0.835 -34.450  1.00  0.00     0.068 A 
HETATM   18  C   UNL     1      -5.789  -0.758 -33.149  1.00  0.00     0.037 A 
HETATM   19  C   UNL     1      -5.951   0.403 -32.387  1.00  0.00     0.011 A 
BRANCH  17  20
HETATM   20  O   UNL     1      -6.051  -2.019 -35.087  1.00  0.00    -0.351 OA
BRANCH  20  21
HETATM   21  C   UNL     1      -4.931  -2.782 -34.634  1.00  0.00     0.179 C 
BRANCH  21  22
HETATM   22  C   UNL     1      -5.178  -4.265 -34.953  1.00  0.00     0.002 C 
HETATM   23  C   UNL     1      -6.674  -4.583 -34.996  1.00  0.00     0.011 C 
HETATM   24  C   UNL     1      -4.477  -5.154 -33.928  1.00  0.00     0.011 C 
ENDBRANCH  21  22
ENDBRANCH  20  21
ENDBRANCH  17  20
ENDBRANCH  13  14
ENDBRANCH  11  13
ENDBRANCH   1  11
BRANCH   8  25
HETATM   25  C   UNL     1      -0.373   5.740 -31.715  1.00  0.00     0.270 C 
HETATM   26  N   UNL     1       0.249   6.917 -31.400  1.00  0.00    -0.365 N 
HETATM   27  H   UNL     1       0.022   7.744 -31.941  1.00  0.00     0.159 HD
HETATM   28  H   UNL     1       0.917   6.945 -30.646  1.00  0.00     0.159 HD
HETATM   29  O   UNL     1      -0.134   4.708 -31.095  1.00  0.00    -0.266 OA
ENDBRANCH   8  25
TORSDOF 7
ENDMDL
MODEL 5
REMARK VINA RESULT:      -7.7      5.738      8.681
REMARK  7 active torsions:
REMARK  status: ('A' for Active; 'I' for Inactive)
REMARK    1  A    between atoms: C_2  and  C_3 
REMARK    2  A    between atoms: C_3  and  O_4 
REMARK    3  A    between atoms: O_4  and  C_5 
REMARK    4  A    between atoms: C_8  and  C_9 
REMARK    5  A    between atoms: C_9  and  N_10 
REMARK    6  A    between atoms: N_10  and  C_11 
REMARK    7  A    between atoms: C_18  and  C_19 
REMARK       I    between atoms: C_19  and  N_20 
ROOT
HETATM    1  C   UNL     1     -10.962   0.987 -33.333  1.00  0.00     0.009 A 
HETATM    2  C   UNL     1     -10.560   2.307 -33.606  1.00  0.00     0.039 A 
HETATM    3  C   UNL     1     -11.381   3.163 -34.370  1.00  0.00     0.030 A 
HETATM    4  C   UNL     1     -12.607   2.687 -34.814  1.00  0.00     0.063 A 
HETATM    5  N   UNL     1     -13.169   3.724 -35.504  1.00  0.00    -0.277 N 
HETATM    6  H   UNL     1     -14.072   3.735 -35.966  1.00  0.00     0.189 HD
HETATM    7  N   UNL     1     -12.415   4.835 -35.553  1.00  0.00    -0.168 NA
HETATM    8  C   UNL     1     -11.306   4.503 -34.852  1.00  0.00     0.156 A 
HETATM    9  C   UNL     1     -13.067   1.401 -34.534  1.00  0.00     0.034 A 
HETATM   10  C   UNL     1     -12.224   0.573 -33.775  1.00  0.00     0.026 A 
ENDROOT
BRANCH   1  11
HETATM   11  N   UNL     1     -10.142   0.203 -32.510  1.00  0.00    -0.289 NA
HETATM   12  H   UNL     1     -10.681  -0.331 -31.832  1.00  0.00     0.128 HD
BRANCH  11  13
HETATM   13  C   UNL     1      -8.945   0.787 -31.923  1.00  0.00     0.131 C 
BRANCH  13  14
HETATM   14  C   UNL     1      -7.720   0.103 -32.483  1.00  0.00    -0.045 A 
HETATM   15  C   UNL     1      -6.634  -0.199 -31.650  1.00  0.00     0.011 A 
HETATM   16  C   UNL     1      -5.504  -0.853 -32.151  1.00  0.00     0.037 A 
HETATM   17  C   UNL     1      -5.445  -1.217 -33.495  1.00  0.00     0.068 A 
HETATM   18  C   UNL     1      -6.514  -0.898 -34.335  1.00  0.00     0.037 A 
HETATM   19  C   UNL     1      -7.644  -0.243 -33.838  1.00  0.00     0.011 A 
BRANCH  17  20
HETATM   20  O   UNL     1      -4.411  -1.870 -34.107  1.00  0.00    -0.351 OA
BRANCH  20  21
HETATM   21  C   UNL     1      -4.754  -2.825 -35.113  1.00  0.00     0.179 C 
BRANCH  21  22
HETATM   22  C   UNL     1      -5.436  -4.028 -34.442  1.00  0.00     0.002 C 
HETATM   23  C   UNL     1      -4.422  -5.120 -34.094  1.00  0.00     0.011 C 
HETATM   24  C   UNL     1      -6.531  -4.591 -35.345  1.00  0.00     0.011 C 
ENDBRANCH  21  22
ENDBRANCH  20  21
ENDBRANCH  17  20
ENDBRANCH  13  14
ENDBRANCH  11  13
ENDBRANCH   1  11
BRANCH   8  25
HETATM   25  C   UNL     1     -10.208   5.459 -34.663  1.00  0.00     0.270 C 
HETATM   26  N   UNL     1     -10.099   5.939 -33.386  1.00  0.00    -0.365 N 
HETATM   27  H   UNL     1     -10.760   5.615 -32.689  1.00  0.00     0.159 HD
HETATM   28  H   UNL     1      -9.375   6.602 -33.159  1.00  0.00     0.159 HD
HETATM   29  O   UNL     1      -9.437   5.821 -35.546  1.00  0.00    -0.266 OA
ENDBRANCH   8  25
TORSDOF 7
ENDMDL
MODEL 6
REMARK VINA RESULT:      -7.2      1.773      2.727
REMARK  7 active torsions:
REMARK  status: ('A' for Active; 'I' for Inactive)
REMARK    1  A    between atoms: C_2  and  C_3 
REMARK    2  A    between atoms: C_3  and  O_4 
REMARK    3  A    between atoms: O_4  and  C_5 
REMARK    4  A    between atoms: C_8  and  C_9 
REMARK    5  A    between atoms: C_9  and  N_10 
REMARK    6  A    between atoms: N_10  and  C_11 
REMARK    7  A    between atoms: C_18  and  C_19 
REMARK       I    between atoms: C_19  and  N_20 
ROOT
HETATM    1  C   UNL     1      -4.977   1.201 -32.336  1.00  0.00     0.009 A 
HETATM    2  C   UNL     1      -5.154  -0.002 -33.043  1.00  0.00     0.039 A 
HETATM    3  C   UNL     1      -4.353  -1.127 -32.756  1.00  0.00     0.030 A 
HETATM    4  C   UNL     1      -3.415  -1.034 -31.737  1.00  0.00     0.063 A 
HETATM    5  N   UNL     1      -2.813  -2.259 -31.687  1.00  0.00    -0.277 N 
HETATM    6  H   UNL     1      -2.077  -2.554 -31.054  1.00  0.00     0.189 HD
HETATM    7  N   UNL     1      -3.272  -3.145 -32.587  1.00  0.00    -0.168 NA
HETATM    8  C   UNL     1      -4.229  -2.459 -33.253  1.00  0.00     0.156 A 
HETATM    9  C   UNL     1      -3.232   0.123 -30.980  1.00  0.00     0.034 A 
HETATM   10  C   UNL     1      -4.041   1.227 -31.295  1.00  0.00     0.026 A 
ENDROOT
BRANCH   1  11
HETATM   11  N   UNL     1      -5.846   2.265 -32.613  1.00  0.00    -0.289 NA
HETATM   12  H   UNL     1      -6.806   1.949 -32.742  1.00  0.00     0.128 HD
BRANCH  11  13
HETATM   13  C   UNL     1      -5.462   3.270 -33.593  1.00  0.00     0.131 C 
BRANCH  13  14
HETATM   14  C   UNL     1      -4.511   4.258 -32.959  1.00  0.00    -0.045 A 
HETATM   15  C   UNL     1      -4.977   5.184 -32.015  1.00  0.00     0.011 A 
HETATM   16  C   UNL     1      -4.103   6.089 -31.404  1.00  0.00     0.037 A 
HETATM   17  C   UNL     1      -2.747   6.079 -31.727  1.00  0.00     0.068 A 
HETATM   18  C   UNL     1      -2.281   5.174 -32.684  1.00  0.00     0.037 A 
HETATM   19  C   UNL     1      -3.153   4.270 -33.298  1.00  0.00     0.011 A 
BRANCH  17  20
HETATM   20  O   UNL     1      -1.787   6.894 -31.196  1.00  0.00    -0.351 OA
BRANCH  20  21
HETATM   21  C   UNL     1      -0.547   6.978 -31.901  1.00  0.00     0.179 C 
BRANCH  21  22
HETATM   22  C   UNL     1       0.603   6.717 -30.915  1.00  0.00     0.002 C 
HETATM   23  C   UNL     1       0.869   5.219 -30.754  1.00  0.00     0.011 C 
HETATM   24  C   UNL     1       0.296   7.349 -29.559  1.00  0.00     0.011 C 
ENDBRANCH  21  22
ENDBRANCH  20  21
ENDBRANCH  17  20
ENDBRANCH  13  14
ENDBRANCH  11  13
ENDBRANCH   1  11
BRANCH   8  25
HETATM   25  C   UNL     1      -4.994  -3.078 -34.343  1.00  0.00     0.270 C 
HETATM   26  N   UNL     1      -4.838  -4.434 -34.434  1.00  0.00    -0.365 N 
HETATM   27  H   UNL     1      -4.227  -4.897 -33.771  1.00  0.00     0.159 HD
HETATM   28  H   UNL     1      -5.323  -4.948 -35.152  1.00  0.00     0.159 HD
HETATM   29  O   UNL     1      -5.718  -2.467 -35.123  1.00  0.00    -0.266 OA
ENDBRANCH   8  25
TORSDOF 7
ENDMDL
MODEL 7
REMARK VINA RESULT:      -7.1      4.008      8.482
REMARK  7 active torsions:
REMARK  status: ('A' for Active; 'I' for Inactive)
REMARK    1  A    between atoms: C_2  and  C_3 
REMARK    2  A    between atoms: C_3  and  O_4 
REMARK    3  A    between atoms: O_4  and  C_5 
REMARK    4  A    between atoms: C_8  and  C_9 
REMARK    5  A    between atoms: C_9  and  N_10 
REMARK    6  A    between atoms: N_10  and  C_11 
REMARK    7  A    between atoms: C_18  and  C_19 
REMARK       I    between atoms: C_19  and  N_20 
ROOT
HETATM    1  C   UNL     1      -4.090   3.143 -32.421  1.00  0.00     0.009 A 
HETATM    2  C   UNL     1      -2.890   3.532 -31.797  1.00  0.00     0.039 A 
HETATM    3  C   UNL     1      -2.245   4.730 -32.168  1.00  0.00     0.030 A 
HETATM    4  C   UNL     1      -2.836   5.533 -33.134  1.00  0.00     0.063 A 
HETATM    5  N   UNL     1      -2.001   6.606 -33.272  1.00  0.00    -0.277 N 
HETATM    6  H   UNL     1      -2.122   7.400 -33.892  1.00  0.00     0.189 HD
HETATM    7  N   UNL     1      -0.913   6.572 -32.484  1.00  0.00    -0.168 NA
HETATM    8  C   UNL     1      -1.052   5.418 -31.793  1.00  0.00     0.156 A 
HETATM    9  C   UNL     1      -4.044   5.211 -33.750  1.00  0.00     0.034 A 
HETATM   10  C   UNL     1      -4.659   4.010 -33.362  1.00  0.00     0.026 A 
ENDROOT
BRANCH   1  11
HETATM   11  N   UNL     1      -4.726   1.981 -31.964  1.00  0.00    -0.289 NA
HETATM   12  H   UNL     1      -4.288   1.613 -31.121  1.00  0.00     0.128 HD
BRANCH  11  13
HETATM   13  C   UNL     1      -5.065   0.929 -32.910  1.00  0.00     0.131 C 
BRANCH  13  14
HETATM   14  C   UNL     1      -6.565   0.754 -32.955  1.00  0.00    -0.045 A 
HETATM   15  C   UNL     1      -7.303   0.649 -31.767  1.00  0.00     0.011 A 
HETATM   16  C   UNL     1      -8.694   0.509 -31.795  1.00  0.00     0.037 A 
HETATM   17  C   UNL     1      -9.369   0.474 -33.013  1.00  0.00     0.068 A 
HETATM   18  C   UNL     1      -8.638   0.555 -34.201  1.00  0.00     0.037 A 
HETATM   19  C   UNL     1      -7.247   0.693 -34.176  1.00  0.00     0.011 A 
BRANCH  17  20
HETATM   20  O   UNL     1     -10.721   0.357 -33.181  1.00  0.00    -0.351 OA
BRANCH  20  21
HETATM   21  C   UNL     1     -11.367   1.366 -33.960  1.00  0.00     0.179 C 
BRANCH  21  22
HETATM   22  C   UNL     1     -12.758   0.860 -34.373  1.00  0.00     0.002 C 
HETATM   23  C   UNL     1     -13.826   1.937 -34.167  1.00  0.00     0.011 C 
HETATM   24  C   UNL     1     -13.119  -0.402 -33.592  1.00  0.00     0.011 C 
ENDBRANCH  21  22
ENDBRANCH  20  21
ENDBRANCH  17  20
ENDBRANCH  13  14
ENDBRANCH  11  13
ENDBRANCH   1  11
BRANCH   8  25
HETATM   25  C   UNL     1      -0.054   4.996 -30.802  1.00  0.00     0.270 C 
HETATM   26  N   UNL     1      -0.383   5.307 -29.510  1.00  0.00    -0.365 N 
HETATM   27  H   UNL     1      -1.257   5.790 -29.336  1.00  0.00     0.159 HD
HETATM   28  H   UNL     1       0.241   5.058 -28.760  1.00  0.00     0.159 HD
HETATM   29  O   UNL     1       0.993   4.416 -31.069  1.00  0.00    -0.266 OA
ENDBRANCH   8  25
TORSDOF 7
ENDMDL
MODEL 8
REMARK VINA RESULT:      -7.1      4.363      7.284
REMARK  7 active torsions:
REMARK  status: ('A' for Active; 'I' for Inactive)
REMARK    1  A    between atoms: C_2  and  C_3 
REMARK    2  A    between atoms: C_3  and  O_4 
REMARK    3  A    between atoms: O_4  and  C_5 
REMARK    4  A    between atoms: C_8  and  C_9 
REMARK    5  A    between atoms: C_9  and  N_10 
REMARK    6  A    between atoms: N_10  and  C_11 
REMARK    7  A    between atoms: C_18  and  C_19 
REMARK       I    between atoms: C_19  and  N_20 
ROOT
HETATM    1  C   UNL     1      -5.217   0.593 -32.777  1.00  0.00     0.009 A 
HETATM    2  C   UNL     1      -5.237  -0.678 -33.380  1.00  0.00     0.039 A 
HETATM    3  C   UNL     1      -4.367  -1.695 -32.939  1.00  0.00     0.030 A 
HETATM    4  C   UNL     1      -3.517  -1.429 -31.874  1.00  0.00     0.063 A 
HETATM    5  N   UNL     1      -2.817  -2.584 -31.672  1.00  0.00    -0.277 N 
HETATM    6  H   UNL     1      -2.107  -2.755 -30.968  1.00  0.00     0.189 HD
HETATM    7  N   UNL     1      -3.131  -3.583 -32.514  1.00  0.00    -0.168 NA
HETATM    8  C   UNL     1      -4.092  -3.048 -33.302  1.00  0.00     0.156 A 
HETATM    9  C   UNL     1      -3.490  -0.199 -31.217  1.00  0.00     0.034 A 
HETATM   10  C   UNL     1      -4.365   0.795 -31.684  1.00  0.00     0.026 A 
ENDROOT
BRANCH   1  11
HETATM   11  N   UNL     1      -6.152   1.544 -33.208  1.00  0.00    -0.289 NA
HETATM   12  H   UNL     1      -6.720   1.895 -32.439  1.00  0.00     0.128 HD
BRANCH  11  13
HETATM   13  C   UNL     1      -6.942   1.286 -34.402  1.00  0.00     0.131 C 
BRANCH  13  14
HETATM   14  C   UNL     1      -8.411   1.407 -34.072  1.00  0.00    -0.045 A 
HETATM   15  C   UNL     1      -9.094   2.608 -34.313  1.00  0.00     0.011 A 
HETATM   16  C   UNL     1     -10.460   2.726 -34.033  1.00  0.00     0.037 A 
HETATM   17  C   UNL     1     -11.163   1.642 -33.511  1.00  0.00     0.068 A 
HETATM   18  C   UNL     1     -10.483   0.451 -33.247  1.00  0.00     0.037 A 
HETATM   19  C   UNL     1      -9.118   0.330 -33.524  1.00  0.00     0.011 A 
BRANCH  17  20
HETATM   20  O   UNL     1     -12.496   1.618 -33.208  1.00  0.00    -0.351 OA
BRANCH  20  21
HETATM   21  C   UNL     1     -13.207   2.852 -33.320  1.00  0.00     0.179 C 
BRANCH  21  22
HETATM   22  C   UNL     1     -13.807   3.206 -31.950  1.00  0.00     0.002 C 
HETATM   23  C   UNL     1     -15.161   3.904 -32.098  1.00  0.00     0.011 C 
HETATM   24  C   UNL     1     -12.842   4.083 -31.156  1.00  0.00     0.011 C 
ENDBRANCH  21  22
ENDBRANCH  20  21
ENDBRANCH  17  20
ENDBRANCH  13  14
ENDBRANCH  11  13
ENDBRANCH   1  11
BRANCH   8  25
HETATM   25  C   UNL     1      -4.720  -3.827 -34.377  1.00  0.00     0.270 C 
HETATM   26  N   UNL     1      -4.521  -5.177 -34.278  1.00  0.00    -0.365 N 
HETATM   27  H   UNL     1      -3.974  -5.530 -33.501  1.00  0.00     0.159 HD
HETATM   28  H   UNL     1      -4.913  -5.794 -34.971  1.00  0.00     0.159 HD
HETATM   29  O   UNL     1      -5.370  -3.345 -35.300  1.00  0.00    -0.266 OA
ENDBRANCH   8  25
TORSDOF 7
ENDMDL
MODEL 9
REMARK VINA RESULT:      -6.9      2.469      4.489
REMARK  7 active torsions:
REMARK  status: ('A' for Active; 'I' for Inactive)
REMARK    1  A    between atoms: C_2  and  C_3 
REMARK    2  A    between atoms: C_3  and  O_4 
REMARK    3  A    between atoms: O_4  and  C_5 
REMARK    4  A    between atoms: C_8  and  C_9 
REMARK    5  A    between atoms: C_9  and  N_10 
REMARK    6  A    between atoms: N_10  and  C_11 
REMARK    7  A    between atoms: C_18  and  C_19 
REMARK       I    between atoms: C_19  and  N_20 
ROOT
HETATM    1  C   UNL     1      -4.812   4.972 -32.939  1.00  0.00     0.009 A 
HETATM    2  C   UNL     1      -4.863   3.566 -32.942  1.00  0.00     0.039 A 
HETATM    3  C   UNL     1      -5.275   2.861 -31.792  1.00  0.00     0.030 A 
HETATM    4  C   UNL     1      -5.664   3.583 -30.673  1.00  0.00     0.063 A 
HETATM    5  N   UNL     1      -6.013   2.646 -29.741  1.00  0.00    -0.277 N 
HETATM    6  H   UNL     1      -6.351   2.815 -28.800  1.00  0.00     0.189 HD
HETATM    7  N   UNL     1      -5.881   1.374 -30.153  1.00  0.00    -0.168 NA
HETATM    8  C   UNL     1      -5.429   1.491 -31.422  1.00  0.00     0.156 A 
HETATM    9  C   UNL     1      -5.671   4.977 -30.636  1.00  0.00     0.034 A 
HETATM   10  C   UNL     1      -5.251   5.649 -31.795  1.00  0.00     0.026 A 
ENDROOT
BRANCH   1  11
HETATM   11  N   UNL     1      -4.464   5.623 -34.130  1.00  0.00    -0.289 NA
HETATM   12  H   UNL     1      -5.139   5.448 -34.872  1.00  0.00     0.128 HD
BRANCH  11  13
HETATM   13  C   UNL     1      -3.091   5.558 -34.610  1.00  0.00     0.131 C 
BRANCH  13  14
HETATM   14  C   UNL     1      -2.146   5.929 -33.492  1.00  0.00    -0.045 A 
HETATM   15  C   UNL     1      -2.012   7.267 -33.092  1.00  0.00     0.011 A 
HETATM   16  C   UNL     1      -1.157   7.621 -32.044  1.00  0.00     0.037 A 
HETATM   17  C   UNL     1      -0.424   6.640 -31.377  1.00  0.00     0.068 A 
HETATM   18  C   UNL     1      -0.536   5.310 -31.786  1.00  0.00     0.037 A 
HETATM   19  C   UNL     1      -1.388   4.953 -32.834  1.00  0.00     0.011 A 
BRANCH  17  20
HETATM   20  O   UNL     1       0.432   6.847 -30.331  1.00  0.00    -0.351 OA
BRANCH  20  21
HETATM   21  C   UNL     1       0.243   6.036 -29.170  1.00  0.00     0.179 C 
BRANCH  21  22
HETATM   22  C   UNL     1       0.854   6.756 -27.957  1.00  0.00     0.002 C 
HETATM   23  C   UNL     1      -0.030   6.605 -26.717  1.00  0.00     0.011 C 
HETATM   24  C   UNL     1       1.078   8.233 -28.272  1.00  0.00     0.011 C 
ENDBRANCH  21  22
ENDBRANCH  20  21
ENDBRANCH  17  20
ENDBRANCH  13  14
ENDBRANCH  11  13
ENDBRANCH   1  11
BRANCH   8  25
HETATM   25  C   UNL     1      -5.150   0.308 -32.246  1.00  0.00     0.270 C 
HETATM   26  N   UNL     1      -6.180  -0.590 -32.300  1.00  0.00    -0.365 N 
HETATM   27  H   UNL     1      -7.029  -0.385 -31.785  1.00  0.00     0.159 HD
HETATM   28  H   UNL     1      -6.082  -1.435 -32.841  1.00  0.00     0.159 HD
HETATM   29  O   UNL     1      -4.099   0.108 -32.847  1.00  0.00    -0.266 OA
ENDBRANCH   8  25
TORSDOF 7
ENDMDL
MODEL 10
REMARK VINA RESULT:      -6.8      1.488      2.227
REMARK  7 active torsions:
REMARK  status: ('A' for Active; 'I' for Inactive)
REMARK    1  A    between atoms: C_2  and  C_3 
REMARK    2  A    between atoms: C_3  and  O_4 
REMARK    3  A    between atoms: O_4  and  C_5 
REMARK    4  A    between atoms: C_8  and  C_9 
REMARK    5  A    between atoms: C_9  and  N_10 
REMARK    6  A    between atoms: N_10  and  C_11 
REMARK    7  A    between atoms: C_18  and  C_19 
REMARK       I    between atoms: C_19  and  N_20 
ROOT
HETATM    1  C   UNL     1      -6.458  -0.400 -34.594  1.00  0.00     0.009 A 
HETATM    2  C   UNL     1      -5.367  -0.365 -33.707  1.00  0.00     0.039 A 
HETATM    3  C   UNL     1      -4.665  -1.545 -33.385  1.00  0.00     0.030 A 
HETATM    4  C   UNL     1      -5.050  -2.734 -33.990  1.00  0.00     0.063 A 
HETATM    5  N   UNL     1      -4.197  -3.681 -33.500  1.00  0.00    -0.277 N 
HETATM    6  H   UNL     1      -4.182  -4.669 -33.728  1.00  0.00     0.189 HD
HETATM    7  N   UNL     1      -3.290  -3.217 -32.623  1.00  0.00    -0.168 NA
HETATM    8  C   UNL     1      -3.566  -1.895 -32.545  1.00  0.00     0.156 A 
HETATM    9  C   UNL     1      -6.097  -2.812 -34.908  1.00  0.00     0.034 A 
HETATM   10  C   UNL     1      -6.778  -1.620 -35.203  1.00  0.00     0.026 A 
ENDROOT
BRANCH   1  11
HETATM   11  N   UNL     1      -7.074   0.812 -34.934  1.00  0.00    -0.289 NA
HETATM   12  H   UNL     1      -6.522   1.346 -35.602  1.00  0.00     0.128 HD
BRANCH  11  13
HETATM   13  C   UNL     1      -7.631   1.653 -33.885  1.00  0.00     0.131 C 
BRANCH  13  14
HETATM   14  C   UNL     1      -6.575   2.615 -33.393  1.00  0.00    -0.045 A 
HETATM   15  C   UNL     1      -5.929   3.478 -34.291  1.00  0.00     0.011 A 
HETATM   16  C   UNL     1      -4.967   4.389 -33.845  1.00  0.00     0.037 A 
HETATM   17  C   UNL     1      -4.637   4.452 -32.492  1.00  0.00     0.068 A 
HETATM   18  C   UNL     1      -5.260   3.579 -31.597  1.00  0.00     0.037 A 
HETATM   19  C   UNL     1      -6.222   2.667 -32.040  1.00  0.00     0.011 A 
BRANCH  17  20
HETATM   20  O   UNL     1      -3.729   5.302 -31.924  1.00  0.00    -0.351 OA
BRANCH  20  21
HETATM   21  C   UNL     1      -3.238   6.366 -32.742  1.00  0.00     0.179 C 
BRANCH  21  22
HETATM   22  C   UNL     1      -1.737   6.150 -32.988  1.00  0.00     0.002 C 
HETATM   23  C   UNL     1      -0.927   7.392 -32.611  1.00  0.00     0.011 C 
HETATM   24  C   UNL     1      -1.485   5.775 -34.447  1.00  0.00     0.011 C 
ENDBRANCH  21  22
ENDBRANCH  20  21
ENDBRANCH  17  20
ENDBRANCH  13  14
ENDBRANCH  11  13
ENDBRANCH   1  11
BRANCH   8  25
HETATM   25  C   UNL     1      -2.788  -1.002 -31.677  1.00  0.00     0.270 C 
HETATM   26  N   UNL     1      -3.550  -0.230 -30.843  1.00  0.00    -0.365 N 
HETATM   27  H   UNL     1      -4.559  -0.323 -30.884  1.00  0.00     0.159 HD
HETATM   28  H   UNL     1      -3.105   0.415 -30.210  1.00  0.00     0.159 HD
HETATM   29  O   UNL     1      -1.564  -0.927 -31.672  1.00  0.00    -0.266 OA
ENDBRANCH   8  25
TORSDOF 7
ENDMDL
