MODEL 1
REMARK VINA RESULT:      -7.1      0.000      0.000
REMARK  8 active torsions:
REMARK  status: ('A' for Active; 'I' for Inactive)
REMARK    1  A    between atoms: C_4  and  C_5 
REMARK    2  A    between atoms: C_5  and  N_6 
REMARK    3  A    between atoms: N_6  and  C_9 
REMARK    4  A    between atoms: C_9  and  C_10 
REMARK    5  A    between atoms: C_10  and  C_11 
REMARK    6  A    between atoms: C_11  and  C_12 
REMARK    7  A    between atoms: C_17  and  O_18 
REMARK    8  A    between atoms: C_21  and  O_22 
ROOT
HETATM    1  C   UNL     1      -8.606   0.793 -32.063  1.00  0.00     0.010 A 
HETATM    2  N   UNL     1      -9.797   0.135 -32.268  1.00  0.00    -0.359 N 
HETATM    3  H   UNL     1     -10.062  -0.753 -31.862  1.00  0.00     0.166 HD
HETATM    4  C   UNL     1     -10.591   0.836 -33.145  1.00  0.00     0.048 A 
HETATM    5  C   UNL     1      -9.900   1.990 -33.506  1.00  0.00     0.026 A 
HETATM    6  C   UNL     1     -10.493   2.901 -34.410  1.00  0.00     0.083 A 
HETATM    7  C   UNL     1     -11.768   2.596 -34.922  1.00  0.00     0.074 A 
HETATM    8  C   UNL     1     -12.437   1.425 -34.555  1.00  0.00     0.073 A 
HETATM    9  C   UNL     1     -11.858   0.531 -33.648  1.00  0.00     0.067 A 
HETATM   10  C   UNL     1      -8.654   1.950 -32.816  1.00  0.00     0.041 A 
ENDROOT
BRANCH   1  11
HETATM   11  C   UNL     1      -7.529   0.239 -31.199  1.00  0.00     0.059 C 
BRANCH  11  12
HETATM   12  C   UNL     1      -6.494   1.306 -30.831  1.00  0.00     0.033 C 
BRANCH  12  13
HETATM   13  C   UNL     1      -5.062   0.860 -31.105  1.00  0.00     0.233 C 
BRANCH  13  14
HETATM   14  N   UNL     1      -4.839   0.718 -32.575  1.00  0.00    -0.067 N 
HETATM   15  H   UNL     1      -4.322   1.544 -32.911  1.00  0.00     0.277 HD
HETATM   16  H   UNL     1      -5.727   0.736 -33.091  1.00  0.00     0.277 HD
BRANCH  14  17
HETATM   17  C   UNL     1      -4.073  -0.493 -33.038  1.00  0.00     0.223 C 
HETATM   18  C   UNL     1      -3.383  -1.159 -31.849  1.00  0.00     0.046 C 
BRANCH  17  19
HETATM   19  C   UNL     1      -4.979  -1.455 -33.744  1.00  0.00     0.032 A 
HETATM   20  S   UNL     1      -4.466  -3.033 -34.199  1.00  0.00    -0.076 SA
HETATM   21  C   UNL     1      -6.016  -3.343 -34.871  1.00  0.00     0.071 A 
HETATM   22  C   UNL     1      -6.330  -4.655 -35.505  1.00  0.00     0.078 C 
HETATM   23  N   UNL     1      -6.873  -2.351 -34.767  1.00  0.00    -0.257 NA
HETATM   24  C   UNL     1      -6.288  -1.273 -34.142  1.00  0.00     0.134 A 
ENDBRANCH  17  19
ENDBRANCH  14  17
ENDBRANCH  13  14
ENDBRANCH  12  13
ENDBRANCH  11  12
ENDBRANCH   1  11
BRANCH   6  25
HETATM   25  O   UNL     1      -9.765   4.022 -34.719  1.00  0.00    -0.355 OA
HETATM   26  C   UNL     1     -10.459   5.101 -35.331  1.00  0.00     0.210 C 
ENDBRANCH   6  25
BRANCH   8  27
HETATM   27  O   UNL     1     -13.672   1.034 -35.001  1.00  0.00    -0.356 OA
HETATM   28  C   UNL     1     -14.732   1.023 -34.053  1.00  0.00     0.210 C 
ENDBRANCH   8  27
TORSDOF 8
ENDMDL
MODEL 2
REMARK VINA RESULT:      -7.1      4.674      7.461
REMARK  8 active torsions:
REMARK  status: ('A' for Active; 'I' for Inactive)
REMARK    1  A    between atoms: C_4  and  C_5 
REMARK    2  A    between atoms: C_5  and  N_6 
REMARK    3  A    between atoms: N_6  and  C_9 
REMARK    4  A    between atoms: C_9  and  C_10 
REMARK    5  A    between atoms: C_10  and  C_11 
REMARK    6  A    between atoms: C_11  and  C_12 
REMARK    7  A    between atoms: C_17  and  O_18 
REMARK    8  A    between atoms: C_21  and  O_22 
ROOT
HETATM    1  C   UNL     1      -6.968   1.677 -33.567  1.00  0.00     0.010 A 
HETATM    2  N   UNL     1      -7.406   0.524 -34.177  1.00  0.00    -0.359 N 
HETATM    3  H   UNL     1      -8.319   0.381 -34.588  1.00  0.00     0.166 HD
HETATM    4  C   UNL     1      -6.435  -0.448 -34.126  1.00  0.00     0.048 A 
HETATM    5  C   UNL     1      -5.329   0.097 -33.479  1.00  0.00     0.026 A 
HETATM    6  C   UNL     1      -4.174  -0.697 -33.287  1.00  0.00     0.083 A 
HETATM    7  C   UNL     1      -4.193  -2.024 -33.756  1.00  0.00     0.074 A 
HETATM    8  C   UNL     1      -5.320  -2.552 -34.392  1.00  0.00     0.073 A 
HETATM    9  C   UNL     1      -6.457  -1.763 -34.597  1.00  0.00     0.067 A 
HETATM   10  C   UNL     1      -5.678   1.435 -33.134  1.00  0.00     0.041 A 
ENDROOT
BRANCH   1  11
HETATM   11  C   UNL     1      -7.830   2.881 -33.426  1.00  0.00     0.059 C 
BRANCH  11  12
HETATM   12  C   UNL     1      -7.125   4.144 -33.927  1.00  0.00     0.033 C 
BRANCH  12  13
HETATM   13  C   UNL     1      -6.446   4.926 -32.808  1.00  0.00     0.233 C 
BRANCH  13  14
HETATM   14  N   UNL     1      -5.254   5.655 -33.339  1.00  0.00    -0.067 N 
HETATM   15  H   UNL     1      -4.883   6.264 -32.595  1.00  0.00     0.277 HD
HETATM   16  H   UNL     1      -5.515   6.296 -34.098  1.00  0.00     0.277 HD
BRANCH  14  17
HETATM   17  C   UNL     1      -4.103   4.819 -33.832  1.00  0.00     0.223 C 
HETATM   18  C   UNL     1      -3.743   5.221 -35.261  1.00  0.00     0.046 C 
BRANCH  17  19
HETATM   19  C   UNL     1      -2.922   4.951 -32.920  1.00  0.00     0.032 A 
HETATM   20  S   UNL     1      -1.886   6.325 -32.954  1.00  0.00    -0.076 SA
HETATM   21  C   UNL     1      -0.936   5.638 -31.699  1.00  0.00     0.071 A 
HETATM   22  C   UNL     1       0.255   6.353 -31.160  1.00  0.00     0.078 C 
HETATM   23  N   UNL     1      -1.351   4.469 -31.267  1.00  0.00    -0.257 NA
HETATM   24  C   UNL     1      -2.468   4.066 -31.964  1.00  0.00     0.134 A 
ENDBRANCH  17  19
ENDBRANCH  14  17
ENDBRANCH  13  14
ENDBRANCH  12  13
ENDBRANCH  11  12
ENDBRANCH   1  11
BRANCH   6  25
HETATM   25  O   UNL     1      -3.117  -0.100 -32.651  1.00  0.00    -0.355 OA
HETATM   26  C   UNL     1      -3.041  -0.243 -31.238  1.00  0.00     0.210 C 
ENDBRANCH   6  25
BRANCH   8  27
HETATM   27  O   UNL     1      -5.443  -3.829 -34.875  1.00  0.00    -0.356 OA
HETATM   28  C   UNL     1      -6.760  -4.312 -35.109  1.00  0.00     0.210 C 
ENDBRANCH   8  27
TORSDOF 8
ENDMDL
MODEL 3
REMARK VINA RESULT:      -6.9      5.573      8.411
REMARK  8 active torsions:
REMARK  status: ('A' for Active; 'I' for Inactive)
REMARK    1  A    between atoms: C_4  and  C_5 
REMARK    2  A    between atoms: C_5  and  N_6 
REMARK    3  A    between atoms: N_6  and  C_9 
REMARK    4  A    between atoms: C_9  and  C_10 
REMARK    5  A    between atoms: C_10  and  C_11 
REMARK    6  A    between atoms: C_11  and  C_12 
REMARK    7  A    between atoms: C_17  and  O_18 
REMARK    8  A    between atoms: C_21  and  O_22 
ROOT
HETATM    1  C   UNL     1      -4.173   1.274 -32.421  1.00  0.00     0.010 A 
HETATM    2  N   UNL     1      -3.647   0.030 -32.684  1.00  0.00    -0.359 N 
HETATM    3  H   UNL     1      -2.711  -0.279 -32.456  1.00  0.00     0.166 HD
HETATM    4  C   UNL     1      -4.565  -0.752 -33.343  1.00  0.00     0.048 A 
HETATM    5  C   UNL     1      -5.726   0.001 -33.498  1.00  0.00     0.026 A 
HETATM    6  C   UNL     1      -6.842  -0.567 -34.154  1.00  0.00     0.083 A 
HETATM    7  C   UNL     1      -6.731  -1.884 -34.637  1.00  0.00     0.074 A 
HETATM    8  C   UNL     1      -5.551  -2.617 -34.480  1.00  0.00     0.073 A 
HETATM    9  C   UNL     1      -4.452  -2.062 -33.818  1.00  0.00     0.067 A 
HETATM   10  C   UNL     1      -5.464   1.274 -32.912  1.00  0.00     0.041 A 
ENDROOT
BRANCH   1  11
HETATM   11  C   UNL     1      -3.384   2.349 -31.762  1.00  0.00     0.059 C 
BRANCH  11  12
HETATM   12  C   UNL     1      -4.155   3.672 -31.719  1.00  0.00     0.033 C 
BRANCH  12  13
HETATM   13  C   UNL     1      -3.245   4.881 -31.532  1.00  0.00     0.233 C 
BRANCH  13  14
HETATM   14  N   UNL     1      -1.937   4.456 -30.949  1.00  0.00    -0.067 N 
HETATM   15  H   UNL     1      -1.743   3.489 -31.246  1.00  0.00     0.277 HD
HETATM   16  H   UNL     1      -1.981   4.412 -29.923  1.00  0.00     0.277 HD
BRANCH  14  17
HETATM   17  C   UNL     1      -0.727   5.275 -31.312  1.00  0.00     0.223 C 
HETATM   18  C   UNL     1      -1.013   6.100 -32.566  1.00  0.00     0.046 C 
BRANCH  17  19
HETATM   19  C   UNL     1      -0.319   6.154 -30.170  1.00  0.00     0.032 A 
HETATM   20  S   UNL     1       0.642   5.576 -28.864  1.00  0.00    -0.076 SA
HETATM   21  C   UNL     1       0.588   7.132 -28.137  1.00  0.00     0.071 A 
HETATM   22  C   UNL     1       1.281   7.399 -26.845  1.00  0.00     0.078 C 
HETATM   23  N   UNL     1      -0.091   8.034 -28.809  1.00  0.00    -0.257 NA
HETATM   24  C   UNL     1      -0.620   7.484 -29.955  1.00  0.00     0.134 A 
ENDBRANCH  17  19
ENDBRANCH  14  17
ENDBRANCH  13  14
ENDBRANCH  12  13
ENDBRANCH  11  12
ENDBRANCH   1  11
BRANCH   6  25
HETATM   25  O   UNL     1      -7.956   0.224 -34.267  1.00  0.00    -0.355 OA
HETATM   26  C   UNL     1      -8.946   0.106 -33.253  1.00  0.00     0.210 C 
ENDBRANCH   6  25
BRANCH   8  27
HETATM   27  O   UNL     1      -5.339  -3.898 -34.920  1.00  0.00    -0.356 OA
HETATM   28  C   UNL     1      -6.464  -4.605 -35.429  1.00  0.00     0.210 C 
ENDBRANCH   8  27
TORSDOF 8
ENDMDL
MODEL 4
REMARK VINA RESULT:      -6.9     14.417     15.881
REMARK  8 active torsions:
REMARK  status: ('A' for Active; 'I' for Inactive)
REMARK    1  A    between atoms: C_4  and  C_5 
REMARK    2  A    between atoms: C_5  and  N_6 
REMARK    3  A    between atoms: N_6  and  C_9 
REMARK    4  A    between atoms: C_9  and  C_10 
REMARK    5  A    between atoms: C_10  and  C_11 
REMARK    6  A    between atoms: C_11  and  C_12 
REMARK    7  A    between atoms: C_17  and  O_18 
REMARK    8  A    between atoms: C_21  and  O_22 
ROOT
HETATM    1  C   UNL     1      -3.634 -12.382 -38.381  1.00  0.00     0.010 A 
HETATM    2  N   UNL     1      -4.459 -11.977 -39.404  1.00  0.00    -0.359 N 
HETATM    3  H   UNL     1      -4.174 -11.467 -40.230  1.00  0.00     0.166 HD
HETATM    4  C   UNL     1      -5.762 -12.333 -39.144  1.00  0.00     0.048 A 
HETATM    5  C   UNL     1      -5.779 -13.002 -37.923  1.00  0.00     0.026 A 
HETATM    6  C   UNL     1      -7.006 -13.481 -37.409  1.00  0.00     0.083 A 
HETATM    7  C   UNL     1      -8.176 -13.251 -38.156  1.00  0.00     0.074 A 
HETATM    8  C   UNL     1      -8.136 -12.565 -39.374  1.00  0.00     0.073 A 
HETATM    9  C   UNL     1      -6.920 -12.105 -39.891  1.00  0.00     0.067 A 
HETATM   10  C   UNL     1      -4.432 -13.027 -37.455  1.00  0.00     0.041 A 
ENDROOT
BRANCH   1  11
HETATM   11  C   UNL     1      -2.177 -12.086 -38.368  1.00  0.00     0.059 C 
BRANCH  11  12
HETATM   12  C   UNL     1      -1.357 -13.295 -37.907  1.00  0.00     0.033 C 
BRANCH  12  13
HETATM   13  C   UNL     1      -0.472 -13.865 -39.009  1.00  0.00     0.233 C 
BRANCH  13  14
HETATM   14  N   UNL     1      -1.052 -13.551 -40.350  1.00  0.00    -0.067 N 
HETATM   15  H   UNL     1      -0.360 -13.012 -40.890  1.00  0.00     0.277 HD
HETATM   16  H   UNL     1      -1.866 -12.928 -40.268  1.00  0.00     0.277 HD
BRANCH  14  17
HETATM   17  C   UNL     1      -1.463 -14.717 -41.208  1.00  0.00     0.223 C 
HETATM   18  C   UNL     1      -0.790 -15.995 -40.709  1.00  0.00     0.046 C 
BRANCH  17  19
HETATM   19  C   UNL     1      -2.953 -14.865 -41.226  1.00  0.00     0.032 A 
HETATM   20  S   UNL     1      -3.796 -15.809 -40.059  1.00  0.00    -0.076 SA
HETATM   21  C   UNL     1      -5.286 -15.416 -40.818  1.00  0.00     0.071 A 
HETATM   22  C   UNL     1      -6.578 -15.938 -40.289  1.00  0.00     0.078 C 
HETATM   23  N   UNL     1      -5.183 -14.630 -41.867  1.00  0.00    -0.257 NA
HETATM   24  C   UNL     1      -3.863 -14.325 -42.112  1.00  0.00     0.134 A 
ENDBRANCH  17  19
ENDBRANCH  14  17
ENDBRANCH  13  14
ENDBRANCH  12  13
ENDBRANCH  11  12
ENDBRANCH   1  11
BRANCH   6  25
HETATM   25  O   UNL     1      -6.953 -14.138 -36.207  1.00  0.00    -0.355 OA
HETATM   26  C   UNL     1      -7.158 -13.364 -35.031  1.00  0.00     0.210 C 
ENDBRANCH   6  25
BRANCH   8  27
HETATM   27  O   UNL     1      -9.214 -12.284 -40.170  1.00  0.00    -0.356 OA
HETATM   28  C   UNL     1     -10.437 -12.944 -39.867  1.00  0.00     0.210 C 
ENDBRANCH   8  27
TORSDOF 8
ENDMDL
MODEL 5
REMARK VINA RESULT:      -6.9      3.989      6.895
REMARK  8 active torsions:
REMARK  status: ('A' for Active; 'I' for Inactive)
REMARK    1  A    between atoms: C_4  and  C_5 
REMARK    2  A    between atoms: C_5  and  N_6 
REMARK    3  A    between atoms: N_6  and  C_9 
REMARK    4  A    between atoms: C_9  and  C_10 
REMARK    5  A    between atoms: C_10  and  C_11 
REMARK    6  A    between atoms: C_11  and  C_12 
REMARK    7  A    between atoms: C_17  and  O_18 
REMARK    8  A    between atoms: C_21  and  O_22 
ROOT
HETATM    1  C   UNL     1      -7.554   0.708 -32.282  1.00  0.00     0.010 A 
HETATM    2  N   UNL     1      -7.937  -0.374 -33.041  1.00  0.00    -0.359 N 
HETATM    3  H   UNL     1      -8.888  -0.657 -33.233  1.00  0.00     0.166 HD
HETATM    4  C   UNL     1      -6.834  -1.061 -33.492  1.00  0.00     0.048 A 
HETATM    5  C   UNL     1      -5.704  -0.396 -33.024  1.00  0.00     0.026 A 
HETATM    6  C   UNL     1      -4.420  -0.897 -33.342  1.00  0.00     0.083 A 
HETATM    7  C   UNL     1      -4.336  -2.067 -34.121  1.00  0.00     0.074 A 
HETATM    8  C   UNL     1      -5.485  -2.724 -34.568  1.00  0.00     0.073 A 
HETATM    9  C   UNL     1      -6.755  -2.221 -34.268  1.00  0.00     0.067 A 
HETATM   10  C   UNL     1      -6.172   0.716 -32.265  1.00  0.00     0.041 A 
ENDROOT
BRANCH   1  11
HETATM   11  C   UNL     1      -8.539   1.605 -31.620  1.00  0.00     0.059 C 
BRANCH  11  12
HETATM   12  C   UNL     1      -8.695   2.928 -32.374  1.00  0.00     0.033 C 
BRANCH  12  13
HETATM   13  C   UNL     1      -7.981   4.088 -31.688  1.00  0.00     0.233 C 
BRANCH  13  14
HETATM   14  N   UNL     1      -6.615   4.265 -32.265  1.00  0.00    -0.067 N 
HETATM   15  H   UNL     1      -6.644   5.035 -32.949  1.00  0.00     0.277 HD
HETATM   16  H   UNL     1      -6.328   3.440 -32.807  1.00  0.00     0.277 HD
BRANCH  14  17
HETATM   17  C   UNL     1      -5.500   4.580 -31.303  1.00  0.00     0.223 C 
HETATM   18  C   UNL     1      -5.498   3.566 -30.159  1.00  0.00     0.046 C 
BRANCH  17  19
HETATM   19  C   UNL     1      -4.180   4.598 -32.009  1.00  0.00     0.032 A 
HETATM   20  S   UNL     1      -3.937   5.460 -33.479  1.00  0.00    -0.076 SA
HETATM   21  C   UNL     1      -2.300   4.941 -33.512  1.00  0.00     0.071 A 
HETATM   22  C   UNL     1      -1.387   5.352 -34.616  1.00  0.00     0.078 C 
HETATM   23  N   UNL     1      -1.939   4.182 -32.502  1.00  0.00    -0.257 NA
HETATM   24  C   UNL     1      -3.003   3.972 -31.653  1.00  0.00     0.134 A 
ENDBRANCH  17  19
ENDBRANCH  14  17
ENDBRANCH  13  14
ENDBRANCH  12  13
ENDBRANCH  11  12
ENDBRANCH   1  11
BRANCH   6  25
HETATM   25  O   UNL     1      -3.349  -0.192 -32.858  1.00  0.00    -0.355 OA
HETATM   26  C   UNL     1      -2.742  -0.666 -31.662  1.00  0.00     0.210 C 
ENDBRANCH   6  25
BRANCH   8  27
HETATM   27  O   UNL     1      -5.512  -3.869 -35.321  1.00  0.00    -0.356 OA
HETATM   28  C   UNL     1      -6.748  -4.569 -35.397  1.00  0.00     0.210 C 
ENDBRANCH   8  27
TORSDOF 8
ENDMDL
MODEL 6
REMARK VINA RESULT:      -6.9      3.565      7.328
REMARK  8 active torsions:
REMARK  status: ('A' for Active; 'I' for Inactive)
REMARK    1  A    between atoms: C_4  and  C_5 
REMARK    2  A    between atoms: C_5  and  N_6 
REMARK    3  A    between atoms: N_6  and  C_9 
REMARK    4  A    between atoms: C_9  and  C_10 
REMARK    5  A    between atoms: C_10  and  C_11 
REMARK    6  A    between atoms: C_11  and  C_12 
REMARK    7  A    between atoms: C_17  and  O_18 
REMARK    8  A    between atoms: C_21  and  O_22 
ROOT
HETATM    1  C   UNL     1      -8.308   0.584 -32.468  1.00  0.00     0.010 A 
HETATM    2  N   UNL     1      -8.430  -0.390 -33.431  1.00  0.00    -0.359 N 
HETATM    3  H   UNL     1      -9.281  -0.642 -33.916  1.00  0.00     0.166 HD
HETATM    4  C   UNL     1      -7.225  -1.021 -33.634  1.00  0.00     0.048 A 
HETATM    5  C   UNL     1      -6.292  -0.427 -32.789  1.00  0.00     0.026 A 
HETATM    6  C   UNL     1      -4.956  -0.890 -32.793  1.00  0.00     0.083 A 
HETATM    7  C   UNL     1      -4.622  -1.952 -33.654  1.00  0.00     0.074 A 
HETATM    8  C   UNL     1      -5.579  -2.541 -34.485  1.00  0.00     0.073 A 
HETATM    9  C   UNL     1      -6.898  -2.073 -34.494  1.00  0.00     0.067 A 
HETATM   10  C   UNL     1      -6.987   0.583 -32.062  1.00  0.00     0.041 A 
ENDROOT
BRANCH   1  11
HETATM   11  C   UNL     1      -9.466   1.395 -32.004  1.00  0.00     0.059 C 
BRANCH  11  12
HETATM   12  C   UNL     1      -9.014   2.627 -31.214  1.00  0.00     0.033 C 
BRANCH  12  13
HETATM   13  C   UNL     1      -9.223   3.930 -31.978  1.00  0.00     0.233 C 
BRANCH  13  14
HETATM   14  N   UNL     1     -10.680   4.159 -32.216  1.00  0.00    -0.067 N 
HETATM   15  H   UNL     1     -10.982   4.967 -31.653  1.00  0.00     0.277 HD
HETATM   16  H   UNL     1     -11.244   3.372 -31.870  1.00  0.00     0.277 HD
BRANCH  14  17
HETATM   17  C   UNL     1     -11.108   4.431 -33.633  1.00  0.00     0.223 C 
HETATM   18  C   UNL     1      -9.880   4.556 -34.534  1.00  0.00     0.046 C 
BRANCH  17  19
HETATM   19  C   UNL     1     -12.029   3.356 -34.124  1.00  0.00     0.032 A 
HETATM   20  S   UNL     1     -13.268   2.687 -33.135  1.00  0.00    -0.076 SA
HETATM   21  C   UNL     1     -13.735   1.650 -34.423  1.00  0.00     0.071 A 
HETATM   22  C   UNL     1     -14.866   0.693 -34.266  1.00  0.00     0.078 C 
HETATM   23  N   UNL     1     -13.031   1.785 -35.525  1.00  0.00    -0.257 NA
HETATM   24  C   UNL     1     -12.053   2.739 -35.358  1.00  0.00     0.134 A 
ENDBRANCH  17  19
ENDBRANCH  14  17
ENDBRANCH  13  14
ENDBRANCH  12  13
ENDBRANCH  11  12
ENDBRANCH   1  11
BRANCH   6  25
HETATM   25  O   UNL     1      -4.084  -0.258 -31.944  1.00  0.00    -0.355 OA
HETATM   26  C   UNL     1      -2.844  -0.903 -31.684  1.00  0.00     0.210 C 
ENDBRANCH   6  25
BRANCH   8  27
HETATM   27  O   UNL     1      -5.359  -3.581 -35.349  1.00  0.00    -0.356 OA
HETATM   28  C   UNL     1      -6.299  -4.649 -35.335  1.00  0.00     0.210 C 
ENDBRANCH   8  27
TORSDOF 8
ENDMDL
MODEL 7
REMARK VINA RESULT:      -6.8      5.555      8.277
REMARK  8 active torsions:
REMARK  status: ('A' for Active; 'I' for Inactive)
REMARK    1  A    between atoms: C_4  and  C_5 
REMARK    2  A    between atoms: C_5  and  N_6 
REMARK    3  A    between atoms: N_6  and  C_9 
REMARK    4  A    between atoms: C_9  and  C_10 
REMARK    5  A    between atoms: C_10  and  C_11 
REMARK    6  A    between atoms: C_11  and  C_12 
REMARK    7  A    between atoms: C_17  and  O_18 
REMARK    8  A    between atoms: C_21  and  O_22 
ROOT
HETATM    1  C   UNL     1      -4.159   1.270 -32.345  1.00  0.00     0.010 A 
HETATM    2  N   UNL     1      -3.641   0.047 -32.701  1.00  0.00    -0.359 N 
HETATM    3  H   UNL     1      -2.694  -0.267 -32.538  1.00  0.00     0.166 HD
HETATM    4  C   UNL     1      -4.588  -0.706 -33.355  1.00  0.00     0.048 A 
HETATM    5  C   UNL     1      -5.758   0.046 -33.411  1.00  0.00     0.026 A 
HETATM    6  C   UNL     1      -6.904  -0.495 -34.040  1.00  0.00     0.083 A 
HETATM    7  C   UNL     1      -6.810  -1.783 -34.598  1.00  0.00     0.074 A 
HETATM    8  C   UNL     1      -5.621  -2.514 -34.541  1.00  0.00     0.073 A 
HETATM    9  C   UNL     1      -4.492  -1.987 -33.906  1.00  0.00     0.067 A 
HETATM   10  C   UNL     1      -5.474   1.287 -32.770  1.00  0.00     0.041 A 
ENDROOT
BRANCH   1  11
HETATM   11  C   UNL     1      -3.344   2.315 -31.669  1.00  0.00     0.059 C 
BRANCH  11  12
HETATM   12  C   UNL     1      -4.196   3.518 -31.254  1.00  0.00     0.033 C 
BRANCH  12  13
HETATM   13  C   UNL     1      -3.562   4.851 -31.636  1.00  0.00     0.233 C 
BRANCH  13  14
HETATM   14  N   UNL     1      -2.081   4.699 -31.764  1.00  0.00    -0.067 N 
HETATM   15  H   UNL     1      -1.814   4.895 -32.740  1.00  0.00     0.277 HD
HETATM   16  H   UNL     1      -1.789   3.727 -31.602  1.00  0.00     0.277 HD
BRANCH  14  17
HETATM   17  C   UNL     1      -1.224   5.578 -30.893  1.00  0.00     0.223 C 
HETATM   18  C   UNL     1       0.252   5.357 -31.222  1.00  0.00     0.046 C 
BRANCH  17  19
HETATM   19  C   UNL     1      -1.602   7.018 -31.056  1.00  0.00     0.032 A 
HETATM   20  S   UNL     1      -2.089   7.995 -29.726  1.00  0.00    -0.076 SA
HETATM   21  C   UNL     1      -2.298   9.332 -30.785  1.00  0.00     0.071 A 
HETATM   22  C   UNL     1      -2.748  10.656 -30.270  1.00  0.00     0.078 C 
HETATM   23  N   UNL     1      -2.021   9.087 -32.046  1.00  0.00    -0.257 NA
HETATM   24  C   UNL     1      -1.641   7.774 -32.210  1.00  0.00     0.134 A 
ENDBRANCH  17  19
ENDBRANCH  14  17
ENDBRANCH  13  14
ENDBRANCH  12  13
ENDBRANCH  11  12
ENDBRANCH   1  11
BRANCH   6  25
HETATM   25  O   UNL     1      -8.026   0.293 -34.054  1.00  0.00    -0.355 OA
HETATM   26  C   UNL     1      -9.053  -0.019 -33.121  1.00  0.00     0.210 C 
ENDBRANCH   6  25
BRANCH   8  27
HETATM   27  O   UNL     1      -5.425  -3.768 -35.060  1.00  0.00    -0.356 OA
HETATM   28  C   UNL     1      -6.584  -4.520 -35.397  1.00  0.00     0.210 C 
ENDBRANCH   8  27
TORSDOF 8
ENDMDL
MODEL 8
REMARK VINA RESULT:      -6.7      3.641      7.795
REMARK  8 active torsions:
REMARK  status: ('A' for Active; 'I' for Inactive)
REMARK    1  A    between atoms: C_4  and  C_5 
REMARK    2  A    between atoms: C_5  and  N_6 
REMARK    3  A    between atoms: N_6  and  C_9 
REMARK    4  A    between atoms: C_9  and  C_10 
REMARK    5  A    between atoms: C_10  and  C_11 
REMARK    6  A    between atoms: C_11  and  C_12 
REMARK    7  A    between atoms: C_17  and  O_18 
REMARK    8  A    between atoms: C_21  and  O_22 
ROOT
HETATM    1  C   UNL     1      -8.563   0.382 -32.976  1.00  0.00     0.010 A 
HETATM    2  N   UNL     1      -7.402   0.701 -32.310  1.00  0.00    -0.359 N 
HETATM    3  H   UNL     1      -7.281   1.467 -31.662  1.00  0.00     0.166 HD
HETATM    4  C   UNL     1      -6.389  -0.156 -32.672  1.00  0.00     0.048 A 
HETATM    5  C   UNL     1      -6.913  -1.066 -33.586  1.00  0.00     0.026 A 
HETATM    6  C   UNL     1      -6.076  -2.068 -34.128  1.00  0.00     0.083 A 
HETATM    7  C   UNL     1      -4.728  -2.101 -33.723  1.00  0.00     0.074 A 
HETATM    8  C   UNL     1      -4.221  -1.169 -32.813  1.00  0.00     0.073 A 
HETATM    9  C   UNL     1      -5.052  -0.187 -32.264  1.00  0.00     0.067 A 
HETATM   10  C   UNL     1      -8.283  -0.715 -33.767  1.00  0.00     0.041 A 
ENDROOT
BRANCH   1  11
HETATM   11  C   UNL     1      -9.813   1.174 -32.821  1.00  0.00     0.059 C 
BRANCH  11  12
HETATM   12  C   UNL     1      -9.569   2.470 -32.042  1.00  0.00     0.033 C 
BRANCH  12  13
HETATM   13  C   UNL     1      -9.426   3.687 -32.948  1.00  0.00     0.233 C 
BRANCH  13  14
HETATM   14  N   UNL     1     -10.611   4.584 -32.798  1.00  0.00    -0.067 N 
HETATM   15  H   UNL     1     -10.287   5.504 -32.463  1.00  0.00     0.277 HD
HETATM   16  H   UNL     1     -11.245   4.246 -32.063  1.00  0.00     0.277 HD
BRANCH  14  17
HETATM   17  C   UNL     1     -11.441   4.836 -34.028  1.00  0.00     0.223 C 
HETATM   18  C   UNL     1     -10.542   5.275 -35.182  1.00  0.00     0.046 C 
BRANCH  17  19
HETATM   19  C   UNL     1     -12.231   3.616 -34.393  1.00  0.00     0.032 A 
HETATM   20  S   UNL     1     -13.374   2.907 -33.320  1.00  0.00    -0.076 SA
HETATM   21  C   UNL     1     -13.722   1.699 -34.490  1.00  0.00     0.071 A 
HETATM   22  C   UNL     1     -14.730   0.635 -34.218  1.00  0.00     0.078 C 
HETATM   23  N   UNL     1     -13.047   1.805 -35.613  1.00  0.00    -0.257 NA
HETATM   24  C   UNL     1     -12.189   2.880 -35.560  1.00  0.00     0.134 A 
ENDBRANCH  17  19
ENDBRANCH  14  17
ENDBRANCH  13  14
ENDBRANCH  12  13
ENDBRANCH  11  12
ENDBRANCH   1  11
BRANCH   6  25
HETATM   25  O   UNL     1      -6.655  -2.937 -35.017  1.00  0.00    -0.355 OA
HETATM   26  C   UNL     1      -6.171  -4.274 -35.030  1.00  0.00     0.210 C 
ENDBRANCH   6  25
BRANCH   8  27
HETATM   27  O   UNL     1      -2.929  -1.110 -32.363  1.00  0.00    -0.356 OA
HETATM   28  C   UNL     1      -2.668  -0.275 -31.241  1.00  0.00     0.210 C 
ENDBRANCH   8  27
TORSDOF 8
ENDMDL
MODEL 9
REMARK VINA RESULT:      -6.3      3.172      4.760
REMARK  8 active torsions:
REMARK  status: ('A' for Active; 'I' for Inactive)
REMARK    1  A    between atoms: C_4  and  C_5 
REMARK    2  A    between atoms: C_5  and  N_6 
REMARK    3  A    between atoms: N_6  and  C_9 
REMARK    4  A    between atoms: C_9  and  C_10 
REMARK    5  A    between atoms: C_10  and  C_11 
REMARK    6  A    between atoms: C_11  and  C_12 
REMARK    7  A    between atoms: C_17  and  O_18 
REMARK    8  A    between atoms: C_21  and  O_22 
ROOT
HETATM    1  C   UNL     1      -9.043   1.364 -32.416  1.00  0.00     0.010 A 
HETATM    2  N   UNL     1     -10.224   0.660 -32.479  1.00  0.00    -0.359 N 
HETATM    3  H   UNL     1     -10.444  -0.179 -31.959  1.00  0.00     0.166 HD
HETATM    4  C   UNL     1     -11.080   1.237 -33.388  1.00  0.00     0.048 A 
HETATM    5  C   UNL     1     -10.441   2.355 -33.917  1.00  0.00     0.026 A 
HETATM    6  C   UNL     1     -11.103   3.140 -34.889  1.00  0.00     0.083 A 
HETATM    7  C   UNL     1     -12.394   2.750 -35.293  1.00  0.00     0.074 A 
HETATM    8  C   UNL     1     -13.010   1.616 -34.757  1.00  0.00     0.073 A 
HETATM    9  C   UNL     1     -12.362   0.848 -33.784  1.00  0.00     0.067 A 
HETATM   10  C   UNL     1      -9.160   2.423 -33.295  1.00  0.00     0.041 A 
ENDROOT
BRANCH   1  11
HETATM   11  C   UNL     1      -7.909   0.939 -31.552  1.00  0.00     0.059 C 
BRANCH  11  12
HETATM   12  C   UNL     1      -6.747   0.378 -32.379  1.00  0.00     0.033 C 
BRANCH  12  13
HETATM   13  C   UNL     1      -5.402   0.986 -31.997  1.00  0.00     0.233 C 
BRANCH  13  14
HETATM   14  N   UNL     1      -5.191   2.270 -32.731  1.00  0.00    -0.067 N 
HETATM   15  H   UNL     1      -5.979   2.412 -33.379  1.00  0.00     0.277 HD
HETATM   16  H   UNL     1      -4.359   2.224 -33.334  1.00  0.00     0.277 HD
BRANCH  14  17
HETATM   17  C   UNL     1      -5.076   3.522 -31.903  1.00  0.00     0.223 C 
HETATM   18  C   UNL     1      -5.260   3.186 -30.423  1.00  0.00     0.046 C 
BRANCH  17  19
HETATM   19  C   UNL     1      -3.761   4.198 -32.142  1.00  0.00     0.032 A 
HETATM   20  S   UNL     1      -3.634   5.672 -33.021  1.00  0.00    -0.076 SA
HETATM   21  C   UNL     1      -1.931   5.659 -32.794  1.00  0.00     0.071 A 
HETATM   22  C   UNL     1      -1.076   6.750 -33.342  1.00  0.00     0.078 C 
HETATM   23  N   UNL     1      -1.472   4.637 -32.107  1.00  0.00    -0.257 NA
HETATM   24  C   UNL     1      -2.501   3.797 -31.747  1.00  0.00     0.134 A 
ENDBRANCH  17  19
ENDBRANCH  14  17
ENDBRANCH  13  14
ENDBRANCH  12  13
ENDBRANCH  11  12
ENDBRANCH   1  11
BRANCH   6  25
HETATM   25  O   UNL     1     -10.424   4.232 -35.364  1.00  0.00    -0.355 OA
HETATM   26  C   UNL     1     -10.783   5.504 -34.838  1.00  0.00     0.210 C 
ENDBRANCH   6  25
BRANCH   8  27
HETATM   27  O   UNL     1     -14.254   1.148 -35.089  1.00  0.00    -0.356 OA
HETATM   28  C   UNL     1     -15.155   0.884 -34.020  1.00  0.00     0.210 C 
ENDBRANCH   8  27
TORSDOF 8
ENDMDL
MODEL 10
REMARK VINA RESULT:      -6.2      4.416      6.942
REMARK  8 active torsions:
REMARK  status: ('A' for Active; 'I' for Inactive)
REMARK    1  A    between atoms: C_4  and  C_5 
REMARK    2  A    between atoms: C_5  and  N_6 
REMARK    3  A    between atoms: N_6  and  C_9 
REMARK    4  A    between atoms: C_9  and  C_10 
REMARK    5  A    between atoms: C_10  and  C_11 
REMARK    6  A    between atoms: C_11  and  C_12 
REMARK    7  A    between atoms: C_17  and  O_18 
REMARK    8  A    between atoms: C_21  and  O_22 
ROOT
HETATM    1  C   UNL     1      -6.283   1.539 -31.065  1.00  0.00     0.010 A 
HETATM    2  N   UNL     1      -5.585   0.395 -31.377  1.00  0.00    -0.359 N 
HETATM    3  H   UNL     1      -4.842  -0.015 -30.828  1.00  0.00     0.166 HD
HETATM    4  C   UNL     1      -6.013  -0.117 -32.579  1.00  0.00     0.048 A 
HETATM    5  C   UNL     1      -7.029   0.710 -33.052  1.00  0.00     0.026 A 
HETATM    6  C   UNL     1      -7.652   0.412 -34.285  1.00  0.00     0.083 A 
HETATM    7  C   UNL     1      -7.209  -0.718 -34.999  1.00  0.00     0.074 A 
HETATM    8  C   UNL     1      -6.179  -1.527 -34.511  1.00  0.00     0.073 A 
HETATM    9  C   UNL     1      -5.573  -1.242 -33.283  1.00  0.00     0.067 A 
HETATM   10  C   UNL     1      -7.188   1.747 -32.087  1.00  0.00     0.041 A 
ENDROOT
BRANCH   1  11
HETATM   11  C   UNL     1      -5.995   2.339 -29.844  1.00  0.00     0.059 C 
BRANCH  11  12
HETATM   12  C   UNL     1      -6.574   3.753 -29.944  1.00  0.00     0.033 C 
BRANCH  12  13
HETATM   13  C   UNL     1      -5.607   4.825 -29.454  1.00  0.00     0.233 C 
BRANCH  13  14
HETATM   14  N   UNL     1      -5.294   5.780 -30.559  1.00  0.00    -0.067 N 
HETATM   15  H   UNL     1      -4.661   6.508 -30.196  1.00  0.00     0.277 HD
HETATM   16  H   UNL     1      -6.134   6.290 -30.861  1.00  0.00     0.277 HD
BRANCH  14  17
HETATM   17  C   UNL     1      -4.644   5.213 -31.793  1.00  0.00     0.223 C 
HETATM   18  C   UNL     1      -5.150   5.948 -33.033  1.00  0.00     0.046 C 
BRANCH  17  19
HETATM   19  C   UNL     1      -3.152   5.293 -31.691  1.00  0.00     0.032 A 
HETATM   20  S   UNL     1      -2.337   6.753 -31.281  1.00  0.00    -0.076 SA
HETATM   21  C   UNL     1      -0.827   5.943 -31.403  1.00  0.00     0.071 A 
HETATM   22  C   UNL     1       0.453   6.664 -31.149  1.00  0.00     0.078 C 
HETATM   23  N   UNL     1      -0.905   4.670 -31.720  1.00  0.00    -0.257 NA
HETATM   24  C   UNL     1      -2.219   4.298 -31.899  1.00  0.00     0.134 A 
ENDBRANCH  17  19
ENDBRANCH  14  17
ENDBRANCH  13  14
ENDBRANCH  12  13
ENDBRANCH  11  12
ENDBRANCH   1  11
BRANCH   6  25
HETATM   25  O   UNL     1      -8.649   1.260 -34.690  1.00  0.00    -0.355 OA
HETATM   26  C   UNL     1      -9.950   1.040 -34.158  1.00  0.00     0.210 C 
ENDBRANCH   6  25
BRANCH   8  27
HETATM   27  O   UNL     1      -5.671  -2.638 -35.130  1.00  0.00    -0.356 OA
HETATM   28  C   UNL     1      -4.544  -3.261 -34.526  1.00  0.00     0.210 C 
ENDBRANCH   8  27
TORSDOF 8
ENDMDL
