MODEL 1
REMARK VINA RESULT:      -7.8      0.000      0.000
REMARK  6 active torsions:
REMARK  status: ('A' for Active; 'I' for Inactive)
REMARK    1  A    between atoms: C_6  and  C_7 
REMARK       I    between atoms: C_7  and  N_8 
REMARK    2  A    between atoms: N_8  and  C_9 
REMARK    3  A    between atoms: C_9  and  C_10 
REMARK    4  A    between atoms: C_10  and  O_11 
REMARK    5  A    between atoms: C_10  and  C_12 
REMARK    6  A    between atoms: C_15  and  O_16 
ROOT
HETATM    1  C   UNL     1      -4.239   2.374 -31.911  1.00  0.00     0.258 C 
HETATM    2  N   UNL     1      -4.023   1.181 -32.552  1.00  0.00    -0.350 N 
HETATM    3  O   UNL     1      -4.540   2.449 -30.724  1.00  0.00    -0.267 OA
HETATM    4  H   UNL     1      -3.684   1.206 -33.513  1.00  0.00     0.163 HD
ENDROOT
BRANCH   2   5
HETATM    5  C   UNL     1      -4.110  -0.121 -31.900  1.00  0.00     0.114 C 
HETATM    6  C   UNL     1      -2.696  -0.657 -31.668  1.00  0.00     0.035 C 
BRANCH   5   7
HETATM    7  C   UNL     1      -4.952  -1.122 -32.740  1.00  0.00     0.173 C 
BRANCH   7   8
HETATM    8  O   UNL     1      -4.185  -1.621 -33.844  1.00  0.00    -0.389 OA
HETATM    9  H   UNL     1      -3.620  -0.889 -34.146  1.00  0.00     0.210 HD
ENDBRANCH   7   8
BRANCH   7  10
HETATM   10  C   UNL     1      -6.265  -0.542 -33.238  1.00  0.00    -0.028 A 
HETATM   11  C   UNL     1      -7.205  -0.046 -32.326  1.00  0.00     0.012 A 
HETATM   12  C   UNL     1      -8.408   0.506 -32.776  1.00  0.00     0.037 A 
HETATM   13  C   UNL     1      -8.691   0.583 -34.141  1.00  0.00     0.068 A 
HETATM   14  C   UNL     1      -7.767   0.085 -35.056  1.00  0.00     0.037 A 
HETATM   15  C   UNL     1      -6.565  -0.474 -34.607  1.00  0.00     0.012 A 
BRANCH  13  16
HETATM   16  O   UNL     1      -9.896   1.155 -34.446  1.00  0.00    -0.356 OA
HETATM   17  C   UNL     1     -10.964   0.912 -33.539  1.00  0.00     0.210 C 
ENDBRANCH  13  16
ENDBRANCH   7  10
ENDBRANCH   5   7
ENDBRANCH   2   5
BRANCH   1  18
HETATM   18  C   UNL     1      -4.091   3.554 -32.749  1.00  0.00     0.105 A 
HETATM   19  C   UNL     1      -5.036   4.100 -33.660  1.00  0.00     0.071 A 
HETATM   20  C   UNL     1      -6.398   3.592 -33.969  1.00  0.00     0.073 C 
HETATM   21  N   UNL     1      -4.577   5.195 -34.277  1.00  0.00    -0.170 NA
HETATM   22  N   UNL     1      -3.336   5.378 -33.779  1.00  0.00    -0.225 N 
HETATM   23  C   UNL     1      -2.994   4.392 -32.848  1.00  0.00     0.168 A 
HETATM   24  C   UNL     1      -2.439   6.391 -34.097  1.00  0.00     0.122 A 
HETATM   25  N   UNL     1      -1.768   4.382 -32.223  1.00  0.00    -0.240 NA
HETATM   26  C   UNL     1      -0.959   5.348 -32.543  1.00  0.00     0.120 A 
HETATM   27  C   UNL     1      -1.233   6.440 -33.516  1.00  0.00     0.038 A 
ENDBRANCH   1  18
TORSDOF 6
ENDMDL
MODEL 2
REMARK VINA RESULT:      -7.7      4.485      7.173
REMARK  6 active torsions:
REMARK  status: ('A' for Active; 'I' for Inactive)
REMARK    1  A    between atoms: C_6  and  C_7 
REMARK       I    between atoms: C_7  and  N_8 
REMARK    2  A    between atoms: N_8  and  C_9 
REMARK    3  A    between atoms: C_9  and  C_10 
REMARK    4  A    between atoms: C_10  and  O_11 
REMARK    5  A    between atoms: C_10  and  C_12 
REMARK    6  A    between atoms: C_15  and  O_16 
ROOT
HETATM    1  C   UNL     1     -10.324   0.717 -33.432  1.00  0.00     0.258 C 
HETATM    2  N   UNL     1      -9.060   1.185 -33.686  1.00  0.00    -0.350 N 
HETATM    3  O   UNL     1     -10.541  -0.298 -32.778  1.00  0.00    -0.267 OA
HETATM    4  H   UNL     1      -8.965   2.085 -34.155  1.00  0.00     0.163 HD
ENDROOT
BRANCH   2   5
HETATM    5  C   UNL     1      -7.842   0.546 -33.200  1.00  0.00     0.114 C 
HETATM    6  C   UNL     1      -7.240   1.403 -32.086  1.00  0.00     0.035 C 
BRANCH   5   7
HETATM    7  C   UNL     1      -6.817   0.328 -34.349  1.00  0.00     0.173 C 
BRANCH   7   8
HETATM    8  O   UNL     1      -7.403   0.664 -35.614  1.00  0.00    -0.389 OA
HETATM    9  H   UNL     1      -7.891  -0.122 -35.914  1.00  0.00     0.210 HD
ENDBRANCH   7   8
BRANCH   7  10
HETATM   10  C   UNL     1      -6.247  -1.079 -34.396  1.00  0.00    -0.028 A 
HETATM   11  C   UNL     1      -4.922  -1.313 -34.007  1.00  0.00     0.012 A 
HETATM   12  C   UNL     1      -4.394  -2.608 -34.031  1.00  0.00     0.037 A 
HETATM   13  C   UNL     1      -5.179  -3.692 -34.429  1.00  0.00     0.068 A 
HETATM   14  C   UNL     1      -6.495  -3.468 -34.825  1.00  0.00     0.037 A 
HETATM   15  C   UNL     1      -7.023  -2.172 -34.810  1.00  0.00     0.012 A 
BRANCH  13  16
HETATM   16  O   UNL     1      -4.544  -4.903 -34.394  1.00  0.00    -0.356 OA
HETATM   17  C   UNL     1      -3.528  -5.062 -33.412  1.00  0.00     0.210 C 
ENDBRANCH  13  16
ENDBRANCH   7  10
ENDBRANCH   5   7
ENDBRANCH   2   5
BRANCH   1  18
HETATM   18  C   UNL     1     -11.397   1.515 -34.005  1.00  0.00     0.105 A 
HETATM   19  C   UNL     1     -12.751   1.136 -34.210  1.00  0.00     0.071 A 
HETATM   20  C   UNL     1     -13.389  -0.167 -33.886  1.00  0.00     0.073 C 
HETATM   21  N   UNL     1     -13.477   2.113 -34.765  1.00  0.00    -0.170 NA
HETATM   22  N   UNL     1     -12.612   3.136 -34.927  1.00  0.00    -0.225 N 
HETATM   23  C   UNL     1     -11.326   2.812 -34.484  1.00  0.00     0.168 A 
HETATM   24  C   UNL     1     -12.880   4.392 -35.461  1.00  0.00     0.122 A 
HETATM   25  N   UNL     1     -10.285   3.708 -34.565  1.00  0.00    -0.240 NA
HETATM   26  C   UNL     1     -10.576   4.872 -35.066  1.00  0.00     0.120 A 
HETATM   27  C   UNL     1     -11.910   5.311 -35.559  1.00  0.00     0.038 A 
ENDBRANCH   1  18
TORSDOF 6
ENDMDL
MODEL 3
REMARK VINA RESULT:      -7.5      3.595      6.471
REMARK  6 active torsions:
REMARK  status: ('A' for Active; 'I' for Inactive)
REMARK    1  A    between atoms: C_6  and  C_7 
REMARK       I    between atoms: C_7  and  N_8 
REMARK    2  A    between atoms: N_8  and  C_9 
REMARK    3  A    between atoms: C_9  and  C_10 
REMARK    4  A    between atoms: C_10  and  O_11 
REMARK    5  A    between atoms: C_10  and  C_12 
REMARK    6  A    between atoms: C_15  and  O_16 
ROOT
HETATM    1  C   UNL     1      -6.446   0.246 -34.088  1.00  0.00     0.258 C 
HETATM    2  N   UNL     1      -6.854   0.865 -32.935  1.00  0.00    -0.350 N 
HETATM    3  O   UNL     1      -6.818   0.599 -35.203  1.00  0.00    -0.267 OA
HETATM    4  H   UNL     1      -6.429   0.574 -32.055  1.00  0.00     0.163 HD
ENDROOT
BRANCH   2   5
HETATM    5  C   UNL     1      -7.754   2.013 -32.901  1.00  0.00     0.114 C 
HETATM    6  C   UNL     1      -6.992   3.228 -32.369  1.00  0.00     0.035 C 
BRANCH   5   7
HETATM    7  C   UNL     1      -9.013   1.724 -32.036  1.00  0.00     0.173 C 
BRANCH   7   8
HETATM    8  O   UNL     1      -8.850   0.498 -31.308  1.00  0.00    -0.389 OA
HETATM    9  H   UNL     1      -9.744   0.159 -31.129  1.00  0.00     0.210 HD
ENDBRANCH   7   8
BRANCH   7  10
HETATM   10  C   UNL     1     -10.304   1.688 -32.835  1.00  0.00    -0.028 A 
HETATM   11  C   UNL     1     -10.903   0.461 -33.147  1.00  0.00     0.012 A 
HETATM   12  C   UNL     1     -12.101   0.418 -33.867  1.00  0.00     0.037 A 
HETATM   13  C   UNL     1     -12.729   1.596 -34.277  1.00  0.00     0.068 A 
HETATM   14  C   UNL     1     -12.137   2.821 -33.979  1.00  0.00     0.037 A 
HETATM   15  C   UNL     1     -10.934   2.865 -33.265  1.00  0.00     0.012 A 
BRANCH  13  16
HETATM   16  O   UNL     1     -13.899   1.413 -34.962  1.00  0.00    -0.356 OA
HETATM   17  C   UNL     1     -14.929   0.702 -34.286  1.00  0.00     0.210 C 
ENDBRANCH  13  16
ENDBRANCH   7  10
ENDBRANCH   5   7
ENDBRANCH   2   5
BRANCH   1  18
HETATM   18  C   UNL     1      -5.540  -0.875 -33.891  1.00  0.00     0.105 A 
HETATM   19  C   UNL     1      -4.255  -0.861 -33.284  1.00  0.00     0.071 A 
HETATM   20  C   UNL     1      -3.535   0.305 -32.709  1.00  0.00     0.073 C 
HETATM   21  N   UNL     1      -3.685  -2.071 -33.267  1.00  0.00    -0.170 NA
HETATM   22  N   UNL     1      -4.585  -2.886 -33.856  1.00  0.00    -0.225 N 
HETATM   23  C   UNL     1      -5.731  -2.196 -34.262  1.00  0.00     0.168 A 
HETATM   24  C   UNL     1      -4.469  -4.254 -34.076  1.00  0.00     0.122 A 
HETATM   25  N   UNL     1      -6.774  -2.833 -34.894  1.00  0.00    -0.240 NA
HETATM   26  C   UNL     1      -6.630  -4.112 -35.078  1.00  0.00     0.120 A 
HETATM   27  C   UNL     1      -5.454  -4.932 -34.680  1.00  0.00     0.038 A 
ENDBRANCH   1  18
TORSDOF 6
ENDMDL
MODEL 4
REMARK VINA RESULT:      -7.3      1.809      3.734
REMARK  6 active torsions:
REMARK  status: ('A' for Active; 'I' for Inactive)
REMARK    1  A    between atoms: C_6  and  C_7 
REMARK       I    between atoms: C_7  and  N_8 
REMARK    2  A    between atoms: N_8  and  C_9 
REMARK    3  A    between atoms: C_9  and  C_10 
REMARK    4  A    between atoms: C_10  and  O_11 
REMARK    5  A    between atoms: C_10  and  C_12 
REMARK    6  A    between atoms: C_15  and  O_16 
ROOT
HETATM    1  C   UNL     1      -5.373   3.770 -33.299  1.00  0.00     0.258 C 
HETATM    2  N   UNL     1      -6.329   3.616 -32.328  1.00  0.00    -0.350 N 
HETATM    3  O   UNL     1      -5.624   3.709 -34.498  1.00  0.00    -0.267 OA
HETATM    4  H   UNL     1      -6.060   3.774 -31.358  1.00  0.00     0.163 HD
ENDROOT
BRANCH   2   5
HETATM    5  C   UNL     1      -7.742   3.381 -32.607  1.00  0.00     0.114 C 
HETATM    6  C   UNL     1      -8.574   4.452 -31.900  1.00  0.00     0.035 C 
BRANCH   5   7
HETATM    7  C   UNL     1      -8.179   1.956 -32.164  1.00  0.00     0.173 C 
BRANCH   7   8
HETATM    8  O   UNL     1      -7.899   1.755 -30.772  1.00  0.00    -0.389 OA
HETATM    9  H   UNL     1      -7.616   0.829 -30.674  1.00  0.00     0.210 HD
ENDBRANCH   7   8
BRANCH   7  10
HETATM   10  C   UNL     1      -7.551   0.844 -32.987  1.00  0.00    -0.028 A 
HETATM   11  C   UNL     1      -6.696  -0.083 -32.379  1.00  0.00     0.012 A 
HETATM   12  C   UNL     1      -6.128  -1.120 -33.126  1.00  0.00     0.037 A 
HETATM   13  C   UNL     1      -6.411  -1.258 -34.486  1.00  0.00     0.068 A 
HETATM   14  C   UNL     1      -7.253  -0.336 -35.102  1.00  0.00     0.037 A 
HETATM   15  C   UNL     1      -7.817   0.707 -34.358  1.00  0.00     0.012 A 
BRANCH  13  16
HETATM   16  O   UNL     1      -5.799  -2.321 -35.094  1.00  0.00    -0.356 OA
HETATM   17  C   UNL     1      -4.633  -2.832 -34.461  1.00  0.00     0.210 C 
ENDBRANCH  13  16
ENDBRANCH   7  10
ENDBRANCH   5   7
ENDBRANCH   2   5
BRANCH   1  18
HETATM   18  C   UNL     1      -4.027   4.004 -32.798  1.00  0.00     0.105 A 
HETATM   19  C   UNL     1      -3.290   3.213 -31.877  1.00  0.00     0.071 A 
HETATM   20  C   UNL     1      -3.722   1.959 -31.207  1.00  0.00     0.073 C 
HETATM   21  N   UNL     1      -2.076   3.717 -31.627  1.00  0.00    -0.170 NA
HETATM   22  N   UNL     1      -2.005   4.835 -32.379  1.00  0.00    -0.225 N 
HETATM   23  C   UNL     1      -3.180   5.055 -33.105  1.00  0.00     0.168 A 
HETATM   24  C   UNL     1      -0.937   5.720 -32.479  1.00  0.00     0.122 A 
HETATM   25  N   UNL     1      -3.326   6.146 -33.931  1.00  0.00    -0.240 NA
HETATM   26  C   UNL     1      -2.305   6.946 -34.001  1.00  0.00     0.120 A 
HETATM   27  C   UNL     1      -1.016   6.796 -33.272  1.00  0.00     0.038 A 
ENDBRANCH   1  18
TORSDOF 6
ENDMDL
MODEL 5
REMARK VINA RESULT:      -7.2      2.682      7.414
REMARK  6 active torsions:
REMARK  status: ('A' for Active; 'I' for Inactive)
REMARK    1  A    between atoms: C_6  and  C_7 
REMARK       I    between atoms: C_7  and  N_8 
REMARK    2  A    between atoms: N_8  and  C_9 
REMARK    3  A    between atoms: C_9  and  C_10 
REMARK    4  A    between atoms: C_10  and  O_11 
REMARK    5  A    between atoms: C_10  and  C_12 
REMARK    6  A    between atoms: C_15  and  O_16 
ROOT
HETATM    1  C   UNL     1      -5.386   0.937 -32.557  1.00  0.00     0.258 C 
HETATM    2  N   UNL     1      -4.645   1.934 -33.139  1.00  0.00    -0.350 N 
HETATM    3  O   UNL     1      -5.984   1.083 -31.496  1.00  0.00    -0.267 OA
HETATM    4  H   UNL     1      -4.257   1.767 -34.067  1.00  0.00     0.163 HD
ENDROOT
BRANCH   2   5
HETATM    5  C   UNL     1      -4.498   3.273 -32.578  1.00  0.00     0.114 C 
HETATM    6  C   UNL     1      -5.150   4.284 -33.522  1.00  0.00     0.035 C 
BRANCH   5   7
HETATM    7  C   UNL     1      -3.003   3.625 -32.333  1.00  0.00     0.173 C 
BRANCH   7   8
HETATM    8  O   UNL     1      -2.535   3.013 -31.124  1.00  0.00    -0.389 OA
HETATM    9  H   UNL     1      -1.822   2.401 -31.377  1.00  0.00     0.210 HD
ENDBRANCH   7   8
BRANCH   7  10
HETATM   10  C   UNL     1      -2.729   5.119 -32.302  1.00  0.00    -0.028 A 
HETATM   11  C   UNL     1      -2.970   5.852 -31.133  1.00  0.00     0.012 A 
HETATM   12  C   UNL     1      -2.703   7.224 -31.089  1.00  0.00     0.037 A 
HETATM   13  C   UNL     1      -2.182   7.886 -32.202  1.00  0.00     0.068 A 
HETATM   14  C   UNL     1      -1.946   7.167 -33.372  1.00  0.00     0.037 A 
HETATM   15  C   UNL     1      -2.219   5.795 -33.420  1.00  0.00     0.012 A 
BRANCH  13  16
HETATM   16  O   UNL     1      -1.956   9.223 -32.021  1.00  0.00    -0.356 OA
HETATM   17  C   UNL     1      -2.493   9.806 -30.840  1.00  0.00     0.210 C 
ENDBRANCH  13  16
ENDBRANCH   7  10
ENDBRANCH   5   7
ENDBRANCH   2   5
BRANCH   1  18
HETATM   18  C   UNL     1      -5.405  -0.318 -33.293  1.00  0.00     0.105 A 
HETATM   19  C   UNL     1      -6.197  -0.654 -34.424  1.00  0.00     0.071 A 
HETATM   20  C   UNL     1      -7.194   0.200 -35.120  1.00  0.00     0.073 C 
HETATM   21  N   UNL     1      -5.969  -1.899 -34.856  1.00  0.00    -0.170 NA
HETATM   22  N   UNL     1      -5.029  -2.388 -34.020  1.00  0.00    -0.225 N 
HETATM   23  C   UNL     1      -4.661  -1.458 -33.043  1.00  0.00     0.168 A 
HETATM   24  C   UNL     1      -4.444  -3.650 -34.051  1.00  0.00     0.122 A 
HETATM   25  N   UNL     1      -3.723  -1.753 -32.080  1.00  0.00    -0.240 NA
HETATM   26  C   UNL     1      -3.196  -2.940 -32.145  1.00  0.00     0.120 A 
HETATM   27  C   UNL     1      -3.519  -3.993 -33.146  1.00  0.00     0.038 A 
ENDBRANCH   1  18
TORSDOF 6
ENDMDL
MODEL 6
REMARK VINA RESULT:      -7.2      2.829      6.930
REMARK  6 active torsions:
REMARK  status: ('A' for Active; 'I' for Inactive)
REMARK    1  A    between atoms: C_6  and  C_7 
REMARK       I    between atoms: C_7  and  N_8 
REMARK    2  A    between atoms: N_8  and  C_9 
REMARK    3  A    between atoms: C_9  and  C_10 
REMARK    4  A    between atoms: C_10  and  O_11 
REMARK    5  A    between atoms: C_10  and  C_12 
REMARK    6  A    between atoms: C_15  and  O_16 
ROOT
HETATM    1  C   UNL     1      -4.729   0.009 -32.820  1.00  0.00     0.258 C 
HETATM    2  N   UNL     1      -5.691   0.466 -31.955  1.00  0.00    -0.350 N 
HETATM    3  O   UNL     1      -3.639   0.555 -32.955  1.00  0.00    -0.267 OA
HETATM    4  H   UNL     1      -6.533  -0.095 -31.830  1.00  0.00     0.163 HD
ENDROOT
BRANCH   2   5
HETATM    5  C   UNL     1      -5.524   1.631 -31.094  1.00  0.00     0.114 C 
HETATM    6  C   UNL     1      -6.030   1.291 -29.691  1.00  0.00     0.035 C 
BRANCH   5   7
HETATM    7  C   UNL     1      -6.266   2.872 -31.666  1.00  0.00     0.173 C 
BRANCH   7   8
HETATM    8  O   UNL     1      -7.330   2.463 -32.536  1.00  0.00    -0.389 OA
HETATM    9  H   UNL     1      -6.932   2.304 -33.410  1.00  0.00     0.210 HD
ENDBRANCH   7   8
BRANCH   7  10
HETATM   10  C   UNL     1      -5.351   3.849 -32.385  1.00  0.00    -0.028 A 
HETATM   11  C   UNL     1      -5.473   4.038 -33.767  1.00  0.00     0.012 A 
HETATM   12  C   UNL     1      -4.647   4.948 -34.434  1.00  0.00     0.037 A 
HETATM   13  C   UNL     1      -3.695   5.693 -33.736  1.00  0.00     0.068 A 
HETATM   14  C   UNL     1      -3.560   5.506 -32.362  1.00  0.00     0.037 A 
HETATM   15  C   UNL     1      -4.381   4.590 -31.694  1.00  0.00     0.012 A 
BRANCH  13  16
HETATM   16  O   UNL     1      -2.962   6.554 -34.506  1.00  0.00    -0.356 OA
HETATM   17  C   UNL     1      -1.829   7.153 -33.890  1.00  0.00     0.210 C 
ENDBRANCH  13  16
ENDBRANCH   7  10
ENDBRANCH   5   7
ENDBRANCH   2   5
BRANCH   1  18
HETATM   18  C   UNL     1      -5.103  -1.175 -33.577  1.00  0.00     0.105 A 
HETATM   19  C   UNL     1      -6.103  -1.289 -34.581  1.00  0.00     0.071 A 
HETATM   20  C   UNL     1      -7.003  -0.222 -35.091  1.00  0.00     0.073 C 
HETATM   21  N   UNL     1      -6.191  -2.528 -35.077  1.00  0.00    -0.170 NA
HETATM   22  N   UNL     1      -5.254  -3.234 -34.410  1.00  0.00    -0.225 N 
HETATM   23  C   UNL     1      -4.571  -2.449 -33.476  1.00  0.00     0.168 A 
HETATM   24  C   UNL     1      -4.942  -4.581 -34.565  1.00  0.00     0.122 A 
HETATM   25  N   UNL     1      -3.579  -2.972 -32.679  1.00  0.00    -0.240 NA
HETATM   26  C   UNL     1      -3.312  -4.232 -32.857  1.00  0.00     0.120 A 
HETATM   27  C   UNL     1      -3.980  -5.146 -33.824  1.00  0.00     0.038 A 
ENDBRANCH   1  18
TORSDOF 6
ENDMDL
MODEL 7
REMARK VINA RESULT:      -7.2      1.740      3.947
REMARK  6 active torsions:
REMARK  status: ('A' for Active; 'I' for Inactive)
REMARK    1  A    between atoms: C_6  and  C_7 
REMARK       I    between atoms: C_7  and  N_8 
REMARK    2  A    between atoms: N_8  and  C_9 
REMARK    3  A    between atoms: C_9  and  C_10 
REMARK    4  A    between atoms: C_10  and  O_11 
REMARK    5  A    between atoms: C_10  and  C_12 
REMARK    6  A    between atoms: C_15  and  O_16 
ROOT
HETATM    1  C   UNL     1      -5.438   3.573 -33.527  1.00  0.00     0.258 C 
HETATM    2  N   UNL     1      -5.944   2.342 -33.199  1.00  0.00    -0.350 N 
HETATM    3  O   UNL     1      -6.024   4.362 -34.261  1.00  0.00    -0.267 OA
HETATM    4  H   UNL     1      -5.443   1.783 -32.509  1.00  0.00     0.163 HD
ENDROOT
BRANCH   2   5
HETATM    5  C   UNL     1      -7.231   1.840 -33.667  1.00  0.00     0.114 C 
HETATM    6  C   UNL     1      -7.951   1.154 -32.504  1.00  0.00     0.035 C 
BRANCH   5   7
HETATM    7  C   UNL     1      -7.060   0.866 -34.866  1.00  0.00     0.173 C 
BRANCH   7   8
HETATM    8  O   UNL     1      -8.340   0.482 -35.388  1.00  0.00    -0.389 OA
HETATM    9  H   UNL     1      -8.290   0.585 -36.354  1.00  0.00     0.210 HD
ENDBRANCH   7   8
BRANCH   7  10
HETATM   10  C   UNL     1      -6.242  -0.370 -34.533  1.00  0.00    -0.028 A 
HETATM   11  C   UNL     1      -6.666  -1.632 -34.969  1.00  0.00     0.012 A 
HETATM   12  C   UNL     1      -5.910  -2.773 -34.682  1.00  0.00     0.037 A 
HETATM   13  C   UNL     1      -4.715  -2.676 -33.967  1.00  0.00     0.068 A 
HETATM   14  C   UNL     1      -4.289  -1.427 -33.522  1.00  0.00     0.037 A 
HETATM   15  C   UNL     1      -5.048  -0.285 -33.802  1.00  0.00     0.012 A 
BRANCH  13  16
HETATM   16  O   UNL     1      -4.069  -3.865 -33.766  1.00  0.00    -0.356 OA
HETATM   17  C   UNL     1      -4.723  -5.034 -34.242  1.00  0.00     0.210 C 
ENDBRANCH  13  16
ENDBRANCH   7  10
ENDBRANCH   5   7
ENDBRANCH   2   5
BRANCH   1  18
HETATM   18  C   UNL     1      -4.140   3.875 -32.942  1.00  0.00     0.105 A 
HETATM   19  C   UNL     1      -3.477   3.188 -31.890  1.00  0.00     0.071 A 
HETATM   20  C   UNL     1      -3.956   1.999 -31.137  1.00  0.00     0.073 C 
HETATM   21  N   UNL     1      -2.292   3.731 -31.591  1.00  0.00    -0.170 NA
HETATM   22  N   UNL     1      -2.165   4.771 -32.442  1.00  0.00    -0.225 N 
HETATM   23  C   UNL     1      -3.276   4.903 -33.280  1.00  0.00     0.168 A 
HETATM   24  C   UNL     1      -1.097   5.657 -32.539  1.00  0.00     0.122 A 
HETATM   25  N   UNL     1      -3.360   5.905 -34.219  1.00  0.00    -0.240 NA
HETATM   26  C   UNL     1      -2.341   6.709 -34.283  1.00  0.00     0.120 A 
HETATM   27  C   UNL     1      -1.116   6.649 -33.439  1.00  0.00     0.038 A 
ENDBRANCH   1  18
TORSDOF 6
ENDMDL
MODEL 8
REMARK VINA RESULT:      -7.2      2.350      7.079
REMARK  6 active torsions:
REMARK  status: ('A' for Active; 'I' for Inactive)
REMARK    1  A    between atoms: C_6  and  C_7 
REMARK       I    between atoms: C_7  and  N_8 
REMARK    2  A    between atoms: N_8  and  C_9 
REMARK    3  A    between atoms: C_9  and  C_10 
REMARK    4  A    between atoms: C_10  and  O_11 
REMARK    5  A    between atoms: C_10  and  C_12 
REMARK    6  A    between atoms: C_15  and  O_16 
ROOT
HETATM    1  C   UNL     1      -6.094   1.567 -32.888  1.00  0.00     0.258 C 
HETATM    2  N   UNL     1      -5.877   2.609 -33.752  1.00  0.00    -0.350 N 
HETATM    3  O   UNL     1      -6.434   1.727 -31.720  1.00  0.00    -0.267 OA
HETATM    4  H   UNL     1      -5.689   2.393 -34.730  1.00  0.00     0.163 HD
ENDROOT
BRANCH   2   5
HETATM    5  C   UNL     1      -6.038   4.013 -33.391  1.00  0.00     0.114 C 
HETATM    6  C   UNL     1      -7.467   4.451 -33.716  1.00  0.00     0.035 C 
BRANCH   5   7
HETATM    7  C   UNL     1      -5.002   4.912 -34.123  1.00  0.00     0.173 C 
BRANCH   7   8
HETATM    8  O   UNL     1      -4.861   4.503 -35.491  1.00  0.00    -0.389 OA
HETATM    9  H   UNL     1      -4.238   3.755 -35.496  1.00  0.00     0.210 HD
ENDBRANCH   7   8
BRANCH   7  10
HETATM   10  C   UNL     1      -3.643   4.947 -33.447  1.00  0.00    -0.028 A 
HETATM   11  C   UNL     1      -3.493   4.453 -32.145  1.00  0.00     0.012 A 
HETATM   12  C   UNL     1      -2.241   4.465 -31.521  1.00  0.00     0.037 A 
HETATM   13  C   UNL     1      -1.117   4.957 -32.186  1.00  0.00     0.068 A 
HETATM   14  C   UNL     1      -1.257   5.459 -33.478  1.00  0.00     0.037 A 
HETATM   15  C   UNL     1      -2.510   5.455 -34.101  1.00  0.00     0.012 A 
BRANCH  13  16
HETATM   16  O   UNL     1       0.045   4.900 -31.467  1.00  0.00    -0.356 OA
HETATM   17  C   UNL     1       0.510   6.122 -30.908  1.00  0.00     0.210 C 
ENDBRANCH  13  16
ENDBRANCH   7  10
ENDBRANCH   5   7
ENDBRANCH   2   5
BRANCH   1  18
HETATM   18  C   UNL     1      -5.882   0.246 -33.460  1.00  0.00     0.105 A 
HETATM   19  C   UNL     1      -6.567  -0.350 -34.554  1.00  0.00     0.071 A 
HETATM   20  C   UNL     1      -7.662   0.237 -35.369  1.00  0.00     0.073 C 
HETATM   21  N   UNL     1      -6.125  -1.584 -34.822  1.00  0.00    -0.170 NA
HETATM   22  N   UNL     1      -5.151  -1.807 -33.915  1.00  0.00    -0.225 N 
HETATM   23  C   UNL     1      -4.974  -0.718 -33.056  1.00  0.00     0.168 A 
HETATM   24  C   UNL     1      -4.370  -2.950 -33.777  1.00  0.00     0.122 A 
HETATM   25  N   UNL     1      -4.038  -0.736 -32.048  1.00  0.00    -0.240 NA
HETATM   26  C   UNL     1      -3.325  -1.819 -31.954  1.00  0.00     0.120 A 
HETATM   27  C   UNL     1      -3.436  -3.024 -32.820  1.00  0.00     0.038 A 
ENDBRANCH   1  18
TORSDOF 6
ENDMDL
MODEL 9
REMARK VINA RESULT:      -7.1      3.628      6.551
REMARK  6 active torsions:
REMARK  status: ('A' for Active; 'I' for Inactive)
REMARK    1  A    between atoms: C_6  and  C_7 
REMARK       I    between atoms: C_7  and  N_8 
REMARK    2  A    between atoms: N_8  and  C_9 
REMARK    3  A    between atoms: C_9  and  C_10 
REMARK    4  A    between atoms: C_10  and  O_11 
REMARK    5  A    between atoms: C_10  and  C_12 
REMARK    6  A    between atoms: C_15  and  O_16 
ROOT
HETATM    1  C   UNL     1      -8.954   1.544 -31.835  1.00  0.00     0.258 C 
HETATM    2  N   UNL     1      -7.714   2.121 -31.740  1.00  0.00    -0.350 N 
HETATM    3  O   UNL     1      -9.150   0.348 -31.640  1.00  0.00    -0.267 OA
HETATM    4  H   UNL     1      -7.648   3.135 -31.823  1.00  0.00     0.163 HD
ENDROOT
BRANCH   2   5
HETATM    5  C   UNL     1      -6.501   1.393 -31.385  1.00  0.00     0.114 C 
HETATM    6  C   UNL     1      -5.853   2.065 -30.173  1.00  0.00     0.035 C 
BRANCH   5   7
HETATM    7  C   UNL     1      -5.509   1.324 -32.579  1.00  0.00     0.173 C 
BRANCH   7   8
HETATM    8  O   UNL     1      -5.772   2.382 -33.512  1.00  0.00    -0.389 OA
HETATM    9  H   UNL     1      -5.053   3.029 -33.411  1.00  0.00     0.210 HD
ENDBRANCH   7   8
BRANCH   7  10
HETATM   10  C   UNL     1      -5.513  -0.015 -33.296  1.00  0.00    -0.028 A 
HETATM   11  C   UNL     1      -4.450  -0.910 -33.120  1.00  0.00     0.012 A 
HETATM   12  C   UNL     1      -4.454  -2.152 -33.762  1.00  0.00     0.037 A 
HETATM   13  C   UNL     1      -5.520  -2.530 -34.579  1.00  0.00     0.068 A 
HETATM   14  C   UNL     1      -6.579  -1.644 -34.767  1.00  0.00     0.037 A 
HETATM   15  C   UNL     1      -6.573  -0.397 -34.132  1.00  0.00     0.012 A 
BRANCH  13  16
HETATM   16  O   UNL     1      -5.404  -3.774 -35.136  1.00  0.00    -0.356 OA
HETATM   17  C   UNL     1      -6.608  -4.513 -35.301  1.00  0.00     0.210 C 
ENDBRANCH  13  16
ENDBRANCH   7  10
ENDBRANCH   5   7
ENDBRANCH   2   5
BRANCH   1  18
HETATM   18  C   UNL     1     -10.028   2.458 -32.194  1.00  0.00     0.105 A 
HETATM   19  C   UNL     1     -10.397   3.666 -31.544  1.00  0.00     0.071 A 
HETATM   20  C   UNL     1      -9.774   4.279 -30.343  1.00  0.00     0.073 C 
HETATM   21  N   UNL     1     -11.437   4.267 -32.134  1.00  0.00    -0.170 NA
HETATM   22  N   UNL     1     -11.756   3.464 -33.172  1.00  0.00    -0.225 N 
HETATM   23  C   UNL     1     -10.926   2.341 -33.241  1.00  0.00     0.168 A 
HETATM   24  C   UNL     1     -12.771   3.651 -34.104  1.00  0.00     0.122 A 
HETATM   25  N   UNL     1     -11.082   1.385 -34.218  1.00  0.00    -0.240 NA
HETATM   26  C   UNL     1     -12.038   1.598 -35.073  1.00  0.00     0.120 A 
HETATM   27  C   UNL     1     -12.968   2.760 -35.084  1.00  0.00     0.038 A 
ENDBRANCH   1  18
TORSDOF 6
ENDMDL
MODEL 10
REMARK VINA RESULT:      -7.1      2.608      3.659
REMARK  6 active torsions:
REMARK  status: ('A' for Active; 'I' for Inactive)
REMARK    1  A    between atoms: C_6  and  C_7 
REMARK       I    between atoms: C_7  and  N_8 
REMARK    2  A    between atoms: N_8  and  C_9 
REMARK    3  A    between atoms: C_9  and  C_10 
REMARK    4  A    between atoms: C_10  and  O_11 
REMARK    5  A    between atoms: C_10  and  C_12 
REMARK    6  A    between atoms: C_15  and  O_16 
ROOT
HETATM    1  C   UNL     1      -4.832   3.750 -31.273  1.00  0.00     0.258 C 
HETATM    2  N   UNL     1      -4.489   2.609 -30.593  1.00  0.00    -0.350 N 
HETATM    3  O   UNL     1      -5.713   3.779 -32.127  1.00  0.00    -0.267 OA
HETATM    4  H   UNL     1      -3.813   2.686 -29.834  1.00  0.00     0.163 HD
ENDROOT
BRANCH   2   5
HETATM    5  C   UNL     1      -5.136   1.317 -30.792  1.00  0.00     0.114 C 
HETATM    6  C   UNL     1      -6.038   1.021 -29.593  1.00  0.00     0.035 C 
BRANCH   5   7
HETATM    7  C   UNL     1      -4.091   0.183 -30.994  1.00  0.00     0.173 C 
BRANCH   7   8
HETATM    8  O   UNL     1      -2.782   0.736 -31.187  1.00  0.00    -0.389 OA
HETATM    9  H   UNL     1      -2.790   1.622 -30.785  1.00  0.00     0.210 HD
ENDBRANCH   7   8
BRANCH   7  10
HETATM   10  C   UNL     1      -4.432  -0.761 -32.134  1.00  0.00    -0.028 A 
HETATM   11  C   UNL     1      -5.518  -0.484 -32.975  1.00  0.00     0.012 A 
HETATM   12  C   UNL     1      -5.827  -1.338 -34.038  1.00  0.00     0.037 A 
HETATM   13  C   UNL     1      -5.056  -2.473 -34.290  1.00  0.00     0.068 A 
HETATM   14  C   UNL     1      -3.979  -2.762 -33.455  1.00  0.00     0.037 A 
HETATM   15  C   UNL     1      -3.671  -1.913 -32.385  1.00  0.00     0.012 A 
BRANCH  13  16
HETATM   16  O   UNL     1      -5.460  -3.215 -35.366  1.00  0.00    -0.356 OA
HETATM   17  C   UNL     1      -6.319  -4.315 -35.096  1.00  0.00     0.210 C 
ENDBRANCH  13  16
ENDBRANCH   7  10
ENDBRANCH   5   7
ENDBRANCH   2   5
BRANCH   1  18
HETATM   18  C   UNL     1      -4.063   4.930 -30.912  1.00  0.00     0.105 A 
HETATM   19  C   UNL     1      -4.460   6.006 -30.073  1.00  0.00     0.071 A 
HETATM   20  C   UNL     1      -5.757   6.178 -29.369  1.00  0.00     0.073 C 
HETATM   21  N   UNL     1      -3.508   6.938 -29.951  1.00  0.00    -0.170 NA
HETATM   22  N   UNL     1      -2.482   6.484 -30.702  1.00  0.00    -0.225 N 
HETATM   23  C   UNL     1      -2.781   5.264 -31.315  1.00  0.00     0.168 A 
HETATM   24  C   UNL     1      -1.247   7.091 -30.900  1.00  0.00     0.122 A 
HETATM   25  N   UNL     1      -1.878   4.626 -32.134  1.00  0.00    -0.240 NA
HETATM   26  C   UNL     1      -0.734   5.222 -32.291  1.00  0.00     0.120 A 
HETATM   27  C   UNL     1      -0.323   6.515 -31.680  1.00  0.00     0.038 A 
ENDBRANCH   1  18
TORSDOF 6
ENDMDL
