MODEL 1
REMARK VINA RESULT:      -8.5      0.000      0.000
REMARK  6 active torsions:
REMARK  status: ('A' for Active; 'I' for Inactive)
REMARK    1  A    between atoms: C_7  and  C_8 
REMARK    2  A    between atoms: N_9  and  N_10 
REMARK       I    between atoms: N_10  and  C_11 
REMARK    3  A    between atoms: C_11  and  C_12 
REMARK    4  A    between atoms: C_12  and  N_13 
REMARK    5  A    between atoms: N_13  and  C_14 
REMARK    6  A    between atoms: C_17  and  O_18 
ROOT
HETATM    1  N   UNL     1      -8.996   1.326 -34.824  1.00  0.00    -0.246 N 
HETATM    2  C   UNL     1      -9.068   2.639 -34.378  1.00  0.00     0.250 C 
HETATM    3  O   UNL     1      -8.115   3.314 -33.991  1.00  0.00    -0.270 OA
HETATM    4  H   UNL     1      -9.847   0.859 -35.131  1.00  0.00     0.192 HD
ENDROOT
BRANCH   1   5
HETATM    5  N   UNL     1      -7.801   0.676 -34.782  1.00  0.00    -0.184 NA
HETATM    6  C   UNL     1      -7.642  -0.213 -33.857  1.00  0.00     0.153 C 
BRANCH   6   7
HETATM    7  C   UNL     1      -6.378  -0.926 -33.763  1.00  0.00     0.018 A 
HETATM    8  C   UNL     1      -5.173  -0.420 -33.287  1.00  0.00     0.018 A 
HETATM    9  C   UNL     1      -4.814   0.924 -32.757  1.00  0.00     0.069 C 
HETATM   10  N   UNL     1      -4.236  -1.418 -33.371  1.00  0.00    -0.358 N 
HETATM   11  H   UNL     1      -3.268  -1.328 -33.092  1.00  0.00     0.166 HD
HETATM   12  C   UNL     1      -4.790  -2.563 -33.887  1.00  0.00     0.043 A 
HETATM   13  C   UNL     1      -6.133  -2.289 -34.144  1.00  0.00     0.004 A 
HETATM   14  C   UNL     1      -4.201  -3.807 -34.142  1.00  0.00     0.030 A 
HETATM   15  C   UNL     1      -6.928  -3.321 -34.692  1.00  0.00     0.014 A 
HETATM   16  C   UNL     1      -6.355  -4.571 -34.955  1.00  0.00     0.001 A 
HETATM   17  C   UNL     1      -5.010  -4.809 -34.682  1.00  0.00     0.002 A 
ENDBRANCH   6   7
ENDBRANCH   1   5
BRANCH   2  18
HETATM   18  C   UNL     1     -10.477   3.225 -34.468  1.00  0.00     0.197 C 
BRANCH  18  19
HETATM   19  N   UNL     1     -11.446   2.233 -34.979  1.00  0.00    -0.284 NA
HETATM   20  H   UNL     1     -11.005   1.315 -35.076  1.00  0.00     0.128 HD
BRANCH  19  21
HETATM   21  C   UNL     1     -12.643   2.084 -34.251  1.00  0.00     0.008 A 
HETATM   22  C   UNL     1     -12.898   2.975 -33.200  1.00  0.00     0.026 A 
HETATM   23  C   UNL     1     -14.053   2.860 -32.418  1.00  0.00     0.038 A 
HETATM   24  C   UNL     1     -14.972   1.839 -32.652  1.00  0.00     0.068 A 
HETATM   25  C   UNL     1     -14.703   0.912 -33.655  1.00  0.00     0.038 A 
HETATM   26  C   UNL     1     -13.539   1.025 -34.431  1.00  0.00     0.026 A 
BRANCH  24  27
HETATM   27  O   UNL     1     -16.066   1.847 -31.832  1.00  0.00    -0.356 OA
HETATM   28  C   UNL     1     -17.100   2.771 -32.153  1.00  0.00     0.210 C 
ENDBRANCH  24  27
ENDBRANCH  19  21
ENDBRANCH  18  19
ENDBRANCH   2  18
TORSDOF 6
ENDMDL
MODEL 2
REMARK VINA RESULT:      -8.0      1.918      2.491
REMARK  6 active torsions:
REMARK  status: ('A' for Active; 'I' for Inactive)
REMARK    1  A    between atoms: C_7  and  C_8 
REMARK    2  A    between atoms: N_9  and  N_10 
REMARK       I    between atoms: N_10  and  C_11 
REMARK    3  A    between atoms: C_11  and  C_12 
REMARK    4  A    between atoms: C_12  and  N_13 
REMARK    5  A    between atoms: N_13  and  C_14 
REMARK    6  A    between atoms: C_17  and  O_18 
ROOT
HETATM    1  N   UNL     1      -7.229   1.523 -33.077  1.00  0.00    -0.246 N 
HETATM    2  C   UNL     1      -7.960   2.189 -32.101  1.00  0.00     0.250 C 
HETATM    3  O   UNL     1      -7.979   1.901 -30.905  1.00  0.00    -0.270 OA
HETATM    4  H   UNL     1      -7.277   1.849 -34.040  1.00  0.00     0.192 HD
ENDROOT
BRANCH   1   5
HETATM    5  N   UNL     1      -6.517   0.416 -32.733  1.00  0.00    -0.184 NA
HETATM    6  C   UNL     1      -5.433   0.179 -33.395  1.00  0.00     0.153 C 
BRANCH   6   7
HETATM    7  C   UNL     1      -4.643  -0.998 -33.074  1.00  0.00     0.018 A 
HETATM    8  C   UNL     1      -3.592  -1.070 -32.165  1.00  0.00     0.018 A 
HETATM    9  C   UNL     1      -2.979  -0.034 -31.290  1.00  0.00     0.069 C 
HETATM   10  N   UNL     1      -3.125  -2.360 -32.165  1.00  0.00    -0.358 N 
HETATM   11  H   UNL     1      -2.360  -2.699 -31.597  1.00  0.00     0.166 HD
HETATM   12  C   UNL     1      -3.837  -3.135 -33.046  1.00  0.00     0.043 A 
HETATM   13  C   UNL     1      -4.798  -2.313 -33.633  1.00  0.00     0.004 A 
HETATM   14  C   UNL     1      -3.698  -4.492 -33.360  1.00  0.00     0.030 A 
HETATM   15  C   UNL     1      -5.664  -2.883 -34.592  1.00  0.00     0.014 A 
HETATM   16  C   UNL     1      -5.538  -4.239 -34.920  1.00  0.00     0.001 A 
HETATM   17  C   UNL     1      -4.567  -5.031 -34.310  1.00  0.00     0.002 A 
ENDBRANCH   6   7
ENDBRANCH   1   5
BRANCH   2  18
HETATM   18  C   UNL     1      -8.722   3.397 -32.643  1.00  0.00     0.197 C 
BRANCH  18  19
HETATM   19  N   UNL     1      -9.081   3.218 -34.066  1.00  0.00    -0.284 NA
HETATM   20  H   UNL     1      -8.441   2.562 -34.520  1.00  0.00     0.128 HD
BRANCH  19  21
HETATM   21  C   UNL     1     -10.404   2.822 -34.341  1.00  0.00     0.008 A 
HETATM   22  C   UNL     1     -10.949   1.763 -33.602  1.00  0.00     0.026 A 
HETATM   23  C   UNL     1     -12.247   1.300 -33.849  1.00  0.00     0.038 A 
HETATM   24  C   UNL     1     -13.024   1.868 -34.856  1.00  0.00     0.068 A 
HETATM   25  C   UNL     1     -12.476   2.881 -35.637  1.00  0.00     0.038 A 
HETATM   26  C   UNL     1     -11.171   3.337 -35.392  1.00  0.00     0.026 A 
BRANCH  24  27
HETATM   27  O   UNL     1     -14.278   1.340 -34.985  1.00  0.00    -0.356 OA
HETATM   28  C   UNL     1     -14.708   0.451 -33.959  1.00  0.00     0.210 C 
ENDBRANCH  24  27
ENDBRANCH  19  21
ENDBRANCH  18  19
ENDBRANCH   2  18
TORSDOF 6
ENDMDL
MODEL 3
REMARK VINA RESULT:      -7.9      6.951     11.146
REMARK  6 active torsions:
REMARK  status: ('A' for Active; 'I' for Inactive)
REMARK    1  A    between atoms: C_7  and  C_8 
REMARK    2  A    between atoms: N_9  and  N_10 
REMARK       I    between atoms: N_10  and  C_11 
REMARK    3  A    between atoms: C_11  and  C_12 
REMARK    4  A    between atoms: C_12  and  N_13 
REMARK    5  A    between atoms: N_13  and  C_14 
REMARK    6  A    between atoms: C_17  and  O_18 
ROOT
HETATM    1  N   UNL     1      -2.830   3.855 -31.194  1.00  0.00    -0.246 N 
HETATM    2  C   UNL     1      -1.824   4.727 -31.591  1.00  0.00     0.250 C 
HETATM    3  O   UNL     1      -1.253   4.707 -32.680  1.00  0.00    -0.270 OA
HETATM    4  H   UNL     1      -3.244   3.964 -30.271  1.00  0.00     0.192 HD
ENDROOT
BRANCH   1   5
HETATM    5  N   UNL     1      -3.195   2.841 -32.025  1.00  0.00    -0.184 NA
HETATM    6  C   UNL     1      -3.917   1.894 -31.523  1.00  0.00     0.153 C 
BRANCH   6   7
HETATM    7  C   UNL     1      -4.322   0.782 -32.367  1.00  0.00     0.018 A 
HETATM    8  C   UNL     1      -3.692  -0.455 -32.470  1.00  0.00     0.018 A 
HETATM    9  C   UNL     1      -2.483  -0.999 -31.794  1.00  0.00     0.069 C 
HETATM   10  N   UNL     1      -4.394  -1.209 -33.375  1.00  0.00    -0.358 N 
HETATM   11  H   UNL     1      -4.160  -2.155 -33.646  1.00  0.00     0.166 HD
HETATM   12  C   UNL     1      -5.465  -0.506 -33.869  1.00  0.00     0.043 A 
HETATM   13  C   UNL     1      -5.449   0.748 -33.258  1.00  0.00     0.004 A 
HETATM   14  C   UNL     1      -6.433  -0.888 -34.804  1.00  0.00     0.030 A 
HETATM   15  C   UNL     1      -6.460   1.671 -33.609  1.00  0.00     0.014 A 
HETATM   16  C   UNL     1      -7.436   1.306 -34.544  1.00  0.00     0.001 A 
HETATM   17  C   UNL     1      -7.421   0.043 -35.132  1.00  0.00     0.002 A 
ENDBRANCH   6   7
ENDBRANCH   1   5
BRANCH   2  18
HETATM   18  C   UNL     1      -1.513   5.797 -30.545  1.00  0.00     0.197 C 
BRANCH  18  19
HETATM   19  N   UNL     1      -0.338   5.432 -29.727  1.00  0.00    -0.284 NA
HETATM   20  H   UNL     1       0.482   5.280 -30.320  1.00  0.00     0.128 HD
BRANCH  19  21
HETATM   21  C   UNL     1       0.013   6.318 -28.690  1.00  0.00     0.008 A 
HETATM   22  C   UNL     1       0.795   7.437 -29.006  1.00  0.00     0.026 A 
HETATM   23  C   UNL     1       1.204   8.337 -28.016  1.00  0.00     0.038 A 
HETATM   24  C   UNL     1       0.863   8.130 -26.682  1.00  0.00     0.068 A 
HETATM   25  C   UNL     1       0.137   6.992 -26.344  1.00  0.00     0.038 A 
HETATM   26  C   UNL     1      -0.265   6.086 -27.338  1.00  0.00     0.026 A 
BRANCH  24  27
HETATM   27  O   UNL     1       1.308   9.090 -25.815  1.00  0.00    -0.356 OA
HETATM   28  C   UNL     1       2.613   8.911 -25.276  1.00  0.00     0.210 C 
ENDBRANCH  24  27
ENDBRANCH  19  21
ENDBRANCH  18  19
ENDBRANCH   2  18
TORSDOF 6
ENDMDL
MODEL 4
REMARK VINA RESULT:      -7.8      2.555      3.469
REMARK  6 active torsions:
REMARK  status: ('A' for Active; 'I' for Inactive)
REMARK    1  A    between atoms: C_7  and  C_8 
REMARK    2  A    between atoms: N_9  and  N_10 
REMARK       I    between atoms: N_10  and  C_11 
REMARK    3  A    between atoms: C_11  and  C_12 
REMARK    4  A    between atoms: C_12  and  N_13 
REMARK    5  A    between atoms: N_13  and  C_14 
REMARK    6  A    between atoms: C_17  and  O_18 
ROOT
HETATM    1  N   UNL     1      -8.709   1.252 -33.319  1.00  0.00    -0.246 N 
HETATM    2  C   UNL     1     -10.010   0.786 -33.184  1.00  0.00     0.250 C 
HETATM    3  O   UNL     1     -10.327  -0.333 -32.784  1.00  0.00    -0.270 OA
HETATM    4  H   UNL     1      -8.555   2.202 -33.653  1.00  0.00     0.192 HD
ENDROOT
BRANCH   1   5
HETATM    5  N   UNL     1      -7.672   0.410 -33.062  1.00  0.00    -0.184 NA
HETATM    6  C   UNL     1      -6.967   0.011 -34.070  1.00  0.00     0.153 C 
BRANCH   6   7
HETATM    7  C   UNL     1      -5.856  -0.899 -33.848  1.00  0.00     0.018 A 
HETATM    8  C   UNL     1      -4.640  -0.594 -33.245  1.00  0.00     0.018 A 
HETATM    9  C   UNL     1      -4.121   0.678 -32.672  1.00  0.00     0.069 C 
HETATM   10  N   UNL     1      -3.878  -1.735 -33.235  1.00  0.00    -0.358 N 
HETATM   11  H   UNL     1      -2.943  -1.804 -32.856  1.00  0.00     0.166 HD
HETATM   12  C   UNL     1      -4.557  -2.778 -33.814  1.00  0.00     0.043 A 
HETATM   13  C   UNL     1      -5.802  -2.289 -34.210  1.00  0.00     0.004 A 
HETATM   14  C   UNL     1      -4.160  -4.105 -34.013  1.00  0.00     0.030 A 
HETATM   15  C   UNL     1      -6.695  -3.181 -34.844  1.00  0.00     0.014 A 
HETATM   16  C   UNL     1      -6.313  -4.512 -35.053  1.00  0.00     0.001 A 
HETATM   17  C   UNL     1      -5.062  -4.966 -34.642  1.00  0.00     0.002 A 
ENDBRANCH   6   7
ENDBRANCH   1   5
BRANCH   2  18
HETATM   18  C   UNL     1     -11.062   1.840 -33.527  1.00  0.00     0.197 C 
BRANCH  18  19
HETATM   19  N   UNL     1     -10.856   2.391 -34.882  1.00  0.00    -0.284 NA
HETATM   20  H   UNL     1     -11.347   1.828 -35.580  1.00  0.00     0.128 HD
BRANCH  19  21
HETATM   21  C   UNL     1     -11.195   3.745 -35.074  1.00  0.00     0.008 A 
HETATM   22  C   UNL     1     -12.513   4.056 -35.435  1.00  0.00     0.026 A 
HETATM   23  C   UNL     1     -12.906   5.379 -35.672  1.00  0.00     0.038 A 
HETATM   24  C   UNL     1     -11.987   6.421 -35.576  1.00  0.00     0.068 A 
HETATM   25  C   UNL     1     -10.661   6.122 -35.276  1.00  0.00     0.038 A 
HETATM   26  C   UNL     1     -10.269   4.794 -35.048  1.00  0.00     0.026 A 
BRANCH  24  27
HETATM   27  O   UNL     1     -12.499   7.666 -35.814  1.00  0.00    -0.356 OA
HETATM   28  C   UNL     1     -13.390   7.793 -36.916  1.00  0.00     0.210 C 
ENDBRANCH  24  27
ENDBRANCH  19  21
ENDBRANCH  18  19
ENDBRANCH   2  18
TORSDOF 6
ENDMDL
MODEL 5
REMARK VINA RESULT:      -7.8      7.281     11.354
REMARK  6 active torsions:
REMARK  status: ('A' for Active; 'I' for Inactive)
REMARK    1  A    between atoms: C_7  and  C_8 
REMARK    2  A    between atoms: N_9  and  N_10 
REMARK       I    between atoms: N_10  and  C_11 
REMARK    3  A    between atoms: C_11  and  C_12 
REMARK    4  A    between atoms: C_12  and  N_13 
REMARK    5  A    between atoms: N_13  and  C_14 
REMARK    6  A    between atoms: C_17  and  O_18 
ROOT
HETATM    1  N   UNL     1      -2.079   4.387 -31.005  1.00  0.00    -0.246 N 
HETATM    2  C   UNL     1      -2.172   5.717 -31.396  1.00  0.00     0.250 C 
HETATM    3  O   UNL     1      -2.792   6.129 -32.376  1.00  0.00    -0.270 OA
HETATM    4  H   UNL     1      -1.545   4.153 -30.170  1.00  0.00     0.192 HD
ENDROOT
BRANCH   1   5
HETATM    5  N   UNL     1      -2.650   3.426 -31.779  1.00  0.00    -0.184 NA
HETATM    6  C   UNL     1      -3.743   2.887 -31.346  1.00  0.00     0.153 C 
BRANCH   6   7
HETATM    7  C   UNL     1      -4.384   1.846 -32.132  1.00  0.00     0.018 A 
HETATM    8  C   UNL     1      -5.481   1.998 -32.974  1.00  0.00     0.018 A 
HETATM    9  C   UNL     1      -6.295   3.196 -33.318  1.00  0.00     0.069 C 
HETATM   10  N   UNL     1      -5.765   0.772 -33.520  1.00  0.00    -0.358 N 
HETATM   11  H   UNL     1      -6.516   0.588 -34.171  1.00  0.00     0.166 HD
HETATM   12  C   UNL     1      -4.888  -0.179 -33.060  1.00  0.00     0.043 A 
HETATM   13  C   UNL     1      -4.009   0.460 -32.187  1.00  0.00     0.004 A 
HETATM   14  C   UNL     1      -4.816  -1.546 -33.353  1.00  0.00     0.030 A 
HETATM   15  C   UNL     1      -3.002  -0.317 -31.571  1.00  0.00     0.014 A 
HETATM   16  C   UNL     1      -2.916  -1.687 -31.851  1.00  0.00     0.001 A 
HETATM   17  C   UNL     1      -3.811  -2.290 -32.731  1.00  0.00     0.002 A 
ENDBRANCH   6   7
ENDBRANCH   1   5
BRANCH   2  18
HETATM   18  C   UNL     1      -1.465   6.675 -30.438  1.00  0.00     0.197 C 
BRANCH  18  19
HETATM   19  N   UNL     1      -0.857   5.953 -29.300  1.00  0.00    -0.284 NA
HETATM   20  H   UNL     1      -0.347   5.129 -29.626  1.00  0.00     0.128 HD
BRANCH  19  21
HETATM   21  C   UNL     1      -0.015   6.700 -28.454  1.00  0.00     0.008 A 
HETATM   22  C   UNL     1      -0.035   6.421 -27.080  1.00  0.00     0.026 A 
HETATM   23  C   UNL     1       0.754   7.149 -26.182  1.00  0.00     0.038 A 
HETATM   24  C   UNL     1       1.565   8.190 -26.630  1.00  0.00     0.068 A 
HETATM   25  C   UNL     1       1.551   8.517 -27.982  1.00  0.00     0.038 A 
HETATM   26  C   UNL     1       0.752   7.790 -28.879  1.00  0.00     0.026 A 
BRANCH  24  27
HETATM   27  O   UNL     1       2.298   8.810 -25.657  1.00  0.00    -0.356 OA
HETATM   28  C   UNL     1       1.574   9.559 -24.688  1.00  0.00     0.210 C 
ENDBRANCH  24  27
ENDBRANCH  19  21
ENDBRANCH  18  19
ENDBRANCH   2  18
TORSDOF 6
ENDMDL
MODEL 6
REMARK VINA RESULT:      -7.6      5.992      9.988
REMARK  6 active torsions:
REMARK  status: ('A' for Active; 'I' for Inactive)
REMARK    1  A    between atoms: C_7  and  C_8 
REMARK    2  A    between atoms: N_9  and  N_10 
REMARK       I    between atoms: N_10  and  C_11 
REMARK    3  A    between atoms: C_11  and  C_12 
REMARK    4  A    between atoms: C_12  and  N_13 
REMARK    5  A    between atoms: N_13  and  C_14 
REMARK    6  A    between atoms: C_17  and  O_18 
ROOT
HETATM    1  N   UNL     1      -3.148   4.588 -33.356  1.00  0.00    -0.246 N 
HETATM    2  C   UNL     1      -2.880   5.388 -34.459  1.00  0.00     0.250 C 
HETATM    3  O   UNL     1      -3.679   5.656 -35.355  1.00  0.00    -0.270 OA
HETATM    4  H   UNL     1      -2.417   4.435 -32.665  1.00  0.00     0.192 HD
ENDROOT
BRANCH   1   5
HETATM    5  N   UNL     1      -4.361   3.979 -33.256  1.00  0.00    -0.184 NA
HETATM    6  C   UNL     1      -4.480   3.033 -32.384  1.00  0.00     0.153 C 
BRANCH   6   7
HETATM    7  C   UNL     1      -5.753   2.343 -32.249  1.00  0.00     0.018 A 
HETATM    8  C   UNL     1      -6.812   2.709 -31.425  1.00  0.00     0.018 A 
HETATM    9  C   UNL     1      -6.972   3.848 -30.480  1.00  0.00     0.069 C 
HETATM   10  N   UNL     1      -7.817   1.792 -31.601  1.00  0.00    -0.358 N 
HETATM   11  H   UNL     1      -8.709   1.812 -31.124  1.00  0.00     0.166 HD
HETATM   12  C   UNL     1      -7.448   0.836 -32.514  1.00  0.00     0.043 A 
HETATM   13  C   UNL     1      -6.159   1.151 -32.941  1.00  0.00     0.004 A 
HETATM   14  C   UNL     1      -8.159  -0.274 -32.985  1.00  0.00     0.030 A 
HETATM   15  C   UNL     1      -5.548   0.302 -33.891  1.00  0.00     0.014 A 
HETATM   16  C   UNL     1      -6.244  -0.813 -34.372  1.00  0.00     0.001 A 
HETATM   17  C   UNL     1      -7.532  -1.095 -33.924  1.00  0.00     0.002 A 
ENDBRANCH   6   7
ENDBRANCH   1   5
BRANCH   2  18
HETATM   18  C   UNL     1      -1.473   5.984 -34.438  1.00  0.00     0.197 C 
BRANCH  18  19
HETATM   19  N   UNL     1      -1.468   7.343 -33.858  1.00  0.00    -0.284 NA
HETATM   20  H   UNL     1      -2.361   7.811 -34.026  1.00  0.00     0.128 HD
BRANCH  19  21
HETATM   21  C   UNL     1      -1.155   7.446 -32.488  1.00  0.00     0.008 A 
HETATM   22  C   UNL     1      -0.118   6.651 -31.981  1.00  0.00     0.026 A 
HETATM   23  C   UNL     1       0.221   6.682 -30.623  1.00  0.00     0.038 A 
HETATM   24  C   UNL     1      -0.483   7.491 -29.734  1.00  0.00     0.068 A 
HETATM   25  C   UNL     1      -1.553   8.241 -30.212  1.00  0.00     0.038 A 
HETATM   26  C   UNL     1      -1.895   8.201 -31.572  1.00  0.00     0.026 A 
BRANCH  24  27
HETATM   27  O   UNL     1      -0.044   7.445 -28.440  1.00  0.00    -0.356 OA
HETATM   28  C   UNL     1       1.001   8.344 -28.085  1.00  0.00     0.210 C 
ENDBRANCH  24  27
ENDBRANCH  19  21
ENDBRANCH  18  19
ENDBRANCH   2  18
TORSDOF 6
ENDMDL
MODEL 7
REMARK VINA RESULT:      -7.6      4.874      8.537
REMARK  6 active torsions:
REMARK  status: ('A' for Active; 'I' for Inactive)
REMARK    1  A    between atoms: C_7  and  C_8 
REMARK    2  A    between atoms: N_9  and  N_10 
REMARK       I    between atoms: N_10  and  C_11 
REMARK    3  A    between atoms: C_11  and  C_12 
REMARK    4  A    between atoms: C_12  and  N_13 
REMARK    5  A    between atoms: N_13  and  C_14 
REMARK    6  A    between atoms: C_17  and  O_18 
ROOT
HETATM    1  N   UNL     1      -5.525   3.232 -32.723  1.00  0.00    -0.246 N 
HETATM    2  C   UNL     1      -5.903   4.449 -33.275  1.00  0.00     0.250 C 
HETATM    3  O   UNL     1      -6.422   4.600 -34.381  1.00  0.00    -0.270 OA
HETATM    4  H   UNL     1      -5.109   3.218 -31.794  1.00  0.00     0.192 HD
ENDROOT
BRANCH   1   5
HETATM    5  N   UNL     1      -5.663   2.097 -33.460  1.00  0.00    -0.184 NA
HETATM    6  C   UNL     1      -5.580   0.969 -32.834  1.00  0.00     0.153 C 
BRANCH   6   7
HETATM    7  C   UNL     1      -5.709  -0.272 -33.581  1.00  0.00     0.018 A 
HETATM    8  C   UNL     1      -6.607  -0.531 -34.611  1.00  0.00     0.018 A 
HETATM    9  C   UNL     1      -7.654   0.320 -35.238  1.00  0.00     0.069 C 
HETATM   10  N   UNL     1      -6.395  -1.817 -35.038  1.00  0.00    -0.358 N 
HETATM   11  H   UNL     1      -6.909  -2.273 -35.780  1.00  0.00     0.166 HD
HETATM   12  C   UNL     1      -5.386  -2.409 -34.319  1.00  0.00     0.043 A 
HETATM   13  C   UNL     1      -4.933  -1.467 -33.396  1.00  0.00     0.004 A 
HETATM   14  C   UNL     1      -4.851  -3.698 -34.420  1.00  0.00     0.030 A 
HETATM   15  C   UNL     1      -3.887  -1.842 -32.523  1.00  0.00     0.014 A 
HETATM   16  C   UNL     1      -3.341  -3.128 -32.610  1.00  0.00     0.001 A 
HETATM   17  C   UNL     1      -3.818  -4.042 -33.546  1.00  0.00     0.002 A 
ENDBRANCH   6   7
ENDBRANCH   1   5
BRANCH   2  18
HETATM   18  C   UNL     1      -5.668   5.632 -32.336  1.00  0.00     0.197 C 
BRANCH  18  19
HETATM   19  N   UNL     1      -4.547   6.477 -32.797  1.00  0.00    -0.284 NA
HETATM   20  H   UNL     1      -4.736   7.464 -32.606  1.00  0.00     0.128 HD
BRANCH  19  21
HETATM   21  C   UNL     1      -3.267   6.158 -32.303  1.00  0.00     0.008 A 
HETATM   22  C   UNL     1      -2.394   5.439 -33.130  1.00  0.00     0.026 A 
HETATM   23  C   UNL     1      -1.121   5.062 -32.686  1.00  0.00     0.038 A 
HETATM   24  C   UNL     1      -0.698   5.375 -31.396  1.00  0.00     0.068 A 
HETATM   25  C   UNL     1      -1.575   6.037 -30.543  1.00  0.00     0.038 A 
HETATM   26  C   UNL     1      -2.854   6.405 -30.989  1.00  0.00     0.026 A 
BRANCH  24  27
HETATM   27  O   UNL     1       0.571   4.967 -31.091  1.00  0.00    -0.356 OA
HETATM   28  C   UNL     1       0.853   4.723 -29.717  1.00  0.00     0.210 C 
ENDBRANCH  24  27
ENDBRANCH  19  21
ENDBRANCH  18  19
ENDBRANCH   2  18
TORSDOF 6
ENDMDL
MODEL 8
REMARK VINA RESULT:      -7.5      6.062     10.076
REMARK  6 active torsions:
REMARK  status: ('A' for Active; 'I' for Inactive)
REMARK    1  A    between atoms: C_7  and  C_8 
REMARK    2  A    between atoms: N_9  and  N_10 
REMARK       I    between atoms: N_10  and  C_11 
REMARK    3  A    between atoms: C_11  and  C_12 
REMARK    4  A    between atoms: C_12  and  N_13 
REMARK    5  A    between atoms: N_13  and  C_14 
REMARK    6  A    between atoms: C_17  and  O_18 
ROOT
HETATM    1  N   UNL     1      -3.112   3.238 -31.897  1.00  0.00    -0.246 N 
HETATM    2  C   UNL     1      -2.475   4.172 -32.705  1.00  0.00     0.250 C 
HETATM    3  O   UNL     1      -2.815   4.476 -33.847  1.00  0.00    -0.270 OA
HETATM    4  H   UNL     1      -2.752   3.066 -30.961  1.00  0.00     0.192 HD
ENDROOT
BRANCH   1   5
HETATM    5  N   UNL     1      -4.162   2.534 -32.399  1.00  0.00    -0.184 NA
HETATM    6  C   UNL     1      -4.318   1.322 -31.978  1.00  0.00     0.153 C 
BRANCH   6   7
HETATM    7  C   UNL     1      -5.419   0.524 -32.494  1.00  0.00     0.018 A 
HETATM    8  C   UNL     1      -6.776   0.797 -32.360  1.00  0.00     0.018 A 
HETATM    9  C   UNL     1      -7.490   1.919 -31.690  1.00  0.00     0.069 C 
HETATM   10  N   UNL     1      -7.470  -0.204 -32.990  1.00  0.00    -0.358 N 
HETATM   11  H   UNL     1      -8.478  -0.261 -33.050  1.00  0.00     0.166 HD
HETATM   12  C   UNL     1      -6.609  -1.125 -33.533  1.00  0.00     0.043 A 
HETATM   13  C   UNL     1      -5.314  -0.699 -33.240  1.00  0.00     0.004 A 
HETATM   14  C   UNL     1      -6.885  -2.293 -34.254  1.00  0.00     0.030 A 
HETATM   15  C   UNL     1      -4.236  -1.492 -33.693  1.00  0.00     0.014 A 
HETATM   16  C   UNL     1      -4.494  -2.665 -34.413  1.00  0.00     0.001 A 
HETATM   17  C   UNL     1      -5.801  -3.058 -34.689  1.00  0.00     0.002 A 
ENDBRANCH   6   7
ENDBRANCH   1   5
BRANCH   2  18
HETATM   18  C   UNL     1      -1.303   4.865 -32.010  1.00  0.00     0.197 C 
BRANCH  18  19
HETATM   19  N   UNL     1      -1.540   6.317 -31.866  1.00  0.00    -0.284 NA
HETATM   20  H   UNL     1      -2.528   6.537 -32.006  1.00  0.00     0.128 HD
BRANCH  19  21
HETATM   21  C   UNL     1      -1.110   6.913 -30.664  1.00  0.00     0.008 A 
HETATM   22  C   UNL     1       0.259   6.897 -30.365  1.00  0.00     0.026 A 
HETATM   23  C   UNL     1       0.746   7.443 -29.172  1.00  0.00     0.038 A 
HETATM   24  C   UNL     1      -0.125   7.997 -28.237  1.00  0.00     0.068 A 
HETATM   25  C   UNL     1      -1.492   7.967 -28.492  1.00  0.00     0.038 A 
HETATM   26  C   UNL     1      -1.978   7.411 -29.685  1.00  0.00     0.026 A 
BRANCH  24  27
HETATM   27  O   UNL     1       0.477   8.513 -27.122  1.00  0.00    -0.356 OA
HETATM   28  C   UNL     1       1.484   7.714 -26.510  1.00  0.00     0.210 C 
ENDBRANCH  24  27
ENDBRANCH  19  21
ENDBRANCH  18  19
ENDBRANCH   2  18
TORSDOF 6
ENDMDL
MODEL 9
REMARK VINA RESULT:      -7.4      2.322      3.280
REMARK  6 active torsions:
REMARK  status: ('A' for Active; 'I' for Inactive)
REMARK    1  A    between atoms: C_7  and  C_8 
REMARK    2  A    between atoms: N_9  and  N_10 
REMARK       I    between atoms: N_10  and  C_11 
REMARK    3  A    between atoms: C_11  and  C_12 
REMARK    4  A    between atoms: C_12  and  N_13 
REMARK    5  A    between atoms: N_13  and  C_14 
REMARK    6  A    between atoms: C_17  and  O_18 
ROOT
HETATM    1  N   UNL     1     -11.130   0.928 -33.269  1.00  0.00    -0.246 N 
HETATM    2  C   UNL     1     -12.255   0.121 -33.379  1.00  0.00     0.250 C 
HETATM    3  O   UNL     1     -12.303  -1.076 -33.096  1.00  0.00    -0.270 OA
HETATM    4  H   UNL     1     -11.200   1.912 -33.522  1.00  0.00     0.192 HD
ENDROOT
BRANCH   1   5
HETATM    5  N   UNL     1      -9.949   0.373 -32.884  1.00  0.00    -0.184 NA
HETATM    6  C   UNL     1      -8.872   1.049 -33.115  1.00  0.00     0.153 C 
BRANCH   6   7
HETATM    7  C   UNL     1      -7.585   0.492 -32.734  1.00  0.00     0.018 A 
HETATM    8  C   UNL     1      -6.807   0.868 -31.643  1.00  0.00     0.018 A 
HETATM    9  C   UNL     1      -7.029   1.894 -30.588  1.00  0.00     0.069 C 
HETATM   10  N   UNL     1      -5.674   0.096 -31.649  1.00  0.00    -0.358 N 
HETATM   11  H   UNL     1      -4.929   0.156 -30.968  1.00  0.00     0.166 HD
HETATM   12  C   UNL     1      -5.685  -0.776 -32.710  1.00  0.00     0.043 A 
HETATM   13  C   UNL     1      -6.869  -0.554 -33.412  1.00  0.00     0.004 A 
HETATM   14  C   UNL     1      -4.738  -1.733 -33.092  1.00  0.00     0.030 A 
HETATM   15  C   UNL     1      -7.115  -1.334 -34.564  1.00  0.00     0.014 A 
HETATM   16  C   UNL     1      -6.177  -2.295 -34.962  1.00  0.00     0.001 A 
HETATM   17  C   UNL     1      -5.006  -2.490 -34.234  1.00  0.00     0.002 A 
ENDBRANCH   6   7
ENDBRANCH   1   5
BRANCH   2  18
HETATM   18  C   UNL     1     -13.497   0.883 -33.840  1.00  0.00     0.197 C 
BRANCH  18  19
HETATM   19  N   UNL     1     -14.531   0.924 -32.785  1.00  0.00    -0.284 NA
HETATM   20  H   UNL     1     -14.228   0.400 -31.961  1.00  0.00     0.128 HD
BRANCH  19  21
HETATM   21  C   UNL     1     -14.968   2.199 -32.375  1.00  0.00     0.008 A 
HETATM   22  C   UNL     1     -16.347   2.449 -32.338  1.00  0.00     0.026 A 
HETATM   23  C   UNL     1     -16.845   3.705 -31.971  1.00  0.00     0.038 A 
HETATM   24  C   UNL     1     -15.977   4.749 -31.655  1.00  0.00     0.068 A 
HETATM   25  C   UNL     1     -14.606   4.532 -31.744  1.00  0.00     0.038 A 
HETATM   26  C   UNL     1     -14.110   3.274 -32.121  1.00  0.00     0.026 A 
BRANCH  24  27
HETATM   27  O   UNL     1     -16.588   5.918 -31.296  1.00  0.00    -0.356 OA
HETATM   28  C   UNL     1     -16.282   6.430 -30.003  1.00  0.00     0.210 C 
ENDBRANCH  24  27
ENDBRANCH  19  21
ENDBRANCH  18  19
ENDBRANCH   2  18
TORSDOF 6
ENDMDL
MODEL 10
REMARK VINA RESULT:      -7.3      4.773      8.208
REMARK  6 active torsions:
REMARK  status: ('A' for Active; 'I' for Inactive)
REMARK    1  A    between atoms: C_7  and  C_8 
REMARK    2  A    between atoms: N_9  and  N_10 
REMARK       I    between atoms: N_10  and  C_11 
REMARK    3  A    between atoms: C_11  and  C_12 
REMARK    4  A    between atoms: C_12  and  N_13 
REMARK    5  A    between atoms: N_13  and  C_14 
REMARK    6  A    between atoms: C_17  and  O_18 
ROOT
HETATM    1  N   UNL     1      -7.423   3.681 -32.104  1.00  0.00    -0.246 N 
HETATM    2  C   UNL     1      -8.102   3.190 -30.996  1.00  0.00     0.250 C 
HETATM    3  O   UNL     1      -7.793   3.395 -29.823  1.00  0.00    -0.270 OA
HETATM    4  H   UNL     1      -7.768   3.457 -33.035  1.00  0.00     0.192 HD
ENDROOT
BRANCH   1   5
HETATM    5  N   UNL     1      -6.280   4.396 -31.919  1.00  0.00    -0.184 NA
HETATM    6  C   UNL     1      -6.018   5.327 -32.776  1.00  0.00     0.153 C 
BRANCH   6   7
HETATM    7  C   UNL     1      -4.802   6.110 -32.628  1.00  0.00     0.018 A 
HETATM    8  C   UNL     1      -4.599   7.170 -31.750  1.00  0.00     0.018 A 
HETATM    9  C   UNL     1      -5.501   7.801 -30.748  1.00  0.00     0.069 C 
HETATM   10  N   UNL     1      -3.319   7.627 -31.933  1.00  0.00    -0.358 N 
HETATM   11  H   UNL     1      -2.900   8.395 -31.425  1.00  0.00     0.166 HD
HETATM   12  C   UNL     1      -2.676   6.899 -32.904  1.00  0.00     0.043 A 
HETATM   13  C   UNL     1      -3.578   5.939 -33.361  1.00  0.00     0.004 A 
HETATM   14  C   UNL     1      -1.375   7.025 -33.403  1.00  0.00     0.030 A 
HETATM   15  C   UNL     1      -3.151   5.058 -34.380  1.00  0.00     0.014 A 
HETATM   16  C   UNL     1      -1.852   5.171 -34.892  1.00  0.00     0.001 A 
HETATM   17  C   UNL     1      -0.978   6.141 -34.408  1.00  0.00     0.002 A 
ENDBRANCH   6   7
ENDBRANCH   1   5
BRANCH   2  18
HETATM   18  C   UNL     1      -9.351   2.391 -31.365  1.00  0.00     0.197 C 
BRANCH  18  19
HETATM   19  N   UNL     1      -9.154   0.943 -31.147  1.00  0.00    -0.284 NA
HETATM   20  H   UNL     1     -10.028   0.433 -31.294  1.00  0.00     0.128 HD
BRANCH  19  21
HETATM   21  C   UNL     1      -8.137   0.322 -31.898  1.00  0.00     0.008 A 
HETATM   22  C   UNL     1      -8.434  -0.096 -33.202  1.00  0.00     0.026 A 
HETATM   23  C   UNL     1      -7.478  -0.749 -33.990  1.00  0.00     0.038 A 
HETATM   24  C   UNL     1      -6.208  -1.021 -33.485  1.00  0.00     0.068 A 
HETATM   25  C   UNL     1      -5.917  -0.664 -32.172  1.00  0.00     0.038 A 
HETATM   26  C   UNL     1      -6.881  -0.018 -31.383  1.00  0.00     0.026 A 
BRANCH  24  27
HETATM   27  O   UNL     1      -5.362  -1.646 -34.358  1.00  0.00    -0.356 OA
HETATM   28  C   UNL     1      -4.386  -2.514 -33.794  1.00  0.00     0.210 C 
ENDBRANCH  24  27
ENDBRANCH  19  21
ENDBRANCH  18  19
ENDBRANCH   2  18
TORSDOF 6
ENDMDL
