MODEL 1
REMARK VINA RESULT:      -8.2      0.000      0.000
REMARK  6 active torsions:
REMARK  status: ('A' for Active; 'I' for Inactive)
REMARK    1  A    between atoms: C_2  and  C_3 
REMARK    2  A    between atoms: C_3  and  N_4 
REMARK       I    between atoms: N_4  and  C_5 
REMARK    3  A    between atoms: C_5  and  C_6 
REMARK    4  A    between atoms: C_11  and  C_12 
REMARK    5  A    between atoms: C_15  and  O_16 
REMARK    6  A    between atoms: C_21  and  C_22 
ROOT
HETATM    1  C   UNL     1      -4.338   3.128 -32.621  1.00  0.00     0.170 A 
HETATM    2  N   UNL     1      -4.506   1.809 -32.350  1.00  0.00    -0.163 NA
HETATM    3  N   UNL     1      -5.807   1.591 -32.601  1.00  0.00    -0.238 N 
HETATM    4  C   UNL     1      -6.508   2.727 -32.909  1.00  0.00     0.145 A 
HETATM    5  N   UNL     1      -7.849   2.688 -33.113  1.00  0.00    -0.365 N 
HETATM    6  C   UNL     1      -8.616   1.520 -32.690  1.00  0.00     0.118 C 
HETATM    7  C   UNL     1      -7.825   0.249 -33.024  1.00  0.00     0.066 C 
HETATM    8  C   UNL     1      -6.426   0.293 -32.383  1.00  0.00     0.221 C 
HETATM    9  C   UNL     1      -5.577   3.740 -32.957  1.00  0.00     0.115 A 
HETATM   10 CL   UNL     1      -5.872   5.369 -33.331  1.00  0.00    -0.077 Cl
HETATM   11  H   UNL     1      -8.374   3.563 -33.148  1.00  0.00     0.162 HD
ENDROOT
BRANCH   6  12
HETATM   12  C   UNL     1      -9.972   1.500 -33.369  1.00  0.00    -0.035 A 
HETATM   13  C   UNL     1     -10.873   0.442 -33.181  1.00  0.00     0.012 A 
HETATM   14  C   UNL     1     -12.133   0.465 -33.783  1.00  0.00     0.037 A 
HETATM   15  C   UNL     1     -12.528   1.547 -34.571  1.00  0.00     0.068 A 
HETATM   16  C   UNL     1     -11.640   2.604 -34.766  1.00  0.00     0.037 A 
HETATM   17  C   UNL     1     -10.373   2.582 -34.168  1.00  0.00     0.012 A 
BRANCH  15  18
HETATM   18  O   UNL     1     -13.789   1.447 -35.089  1.00  0.00    -0.356 OA
HETATM   19  C   UNL     1     -14.784   0.874 -34.251  1.00  0.00     0.210 C 
ENDBRANCH  15  18
ENDBRANCH   6  12
BRANCH   8  20
HETATM   20  C   UNL     1      -5.582  -0.840 -32.925  1.00  0.00     0.409 C 
HETATM   21  F   UNL     1      -4.872  -0.481 -34.017  1.00  0.00    -0.169 F 
HETATM   22  F   UNL     1      -4.725  -1.350 -32.013  1.00  0.00    -0.169 F 
HETATM   23  F   UNL     1      -6.386  -1.869 -33.302  1.00  0.00    -0.169 F 
ENDBRANCH   8  20
BRANCH   1  24
HETATM   24  C   UNL     1      -3.005   3.747 -32.540  1.00  0.00     0.273 C 
HETATM   25  N   UNL     1      -2.672   4.456 -33.675  1.00  0.00    -0.356 N 
HETATM   26  H   UNL     1      -3.358   4.437 -34.426  1.00  0.00     0.162 HD
HETATM   27  O   UNL     1      -2.265   3.654 -31.567  1.00  0.00    -0.266 OA
BRANCH  25  28
HETATM   28  C   UNL     1      -1.425   5.165 -33.830  1.00  0.00     0.122 C 
BRANCH  28  29
HETATM   29  C   UNL     1      -1.645   6.652 -34.093  1.00  0.00     0.015 C 
HETATM   30  C   UNL     1      -1.930   7.406 -32.806  1.00  0.00     0.006 C 
ENDBRANCH  28  29
ENDBRANCH  25  28
ENDBRANCH   1  24
TORSDOF 6
ENDMDL
MODEL 2
REMARK VINA RESULT:      -8.1      2.129      2.632
REMARK  6 active torsions:
REMARK  status: ('A' for Active; 'I' for Inactive)
REMARK    1  A    between atoms: C_2  and  C_3 
REMARK    2  A    between atoms: C_3  and  N_4 
REMARK       I    between atoms: N_4  and  C_5 
REMARK    3  A    between atoms: C_5  and  C_6 
REMARK    4  A    between atoms: C_11  and  C_12 
REMARK    5  A    between atoms: C_15  and  O_16 
REMARK    6  A    between atoms: C_21  and  C_22 
ROOT
HETATM    1  C   UNL     1      -2.765   4.021 -31.774  1.00  0.00     0.170 A 
HETATM    2  N   UNL     1      -2.763   2.728 -31.361  1.00  0.00    -0.163 NA
HETATM    3  N   UNL     1      -4.021   2.316 -31.587  1.00  0.00    -0.238 N 
HETATM    4  C   UNL     1      -4.859   3.311 -32.017  1.00  0.00     0.145 A 
HETATM    5  N   UNL     1      -6.181   3.074 -32.217  1.00  0.00    -0.365 N 
HETATM    6  C   UNL     1      -6.796   1.869 -31.669  1.00  0.00     0.118 C 
HETATM    7  C   UNL     1      -5.842   0.683 -31.862  1.00  0.00     0.066 C 
HETATM    8  C   UNL     1      -4.470   0.979 -31.230  1.00  0.00     0.221 C 
HETATM    9  C   UNL     1      -4.068   4.425 -32.175  1.00  0.00     0.115 A 
HETATM   10 CL   UNL     1      -4.566   5.952 -32.724  1.00  0.00    -0.077 Cl
HETATM   11  H   UNL     1      -6.814   3.864 -32.347  1.00  0.00     0.162 HD
ENDROOT
BRANCH   6  12
HETATM   12  C   UNL     1      -8.127   1.599 -32.343  1.00  0.00    -0.035 A 
HETATM   13  C   UNL     1      -8.803   0.382 -32.174  1.00  0.00     0.012 A 
HETATM   14  C   UNL     1     -10.049   0.170 -32.770  1.00  0.00     0.037 A 
HETATM   15  C   UNL     1     -10.653   1.170 -33.533  1.00  0.00     0.068 A 
HETATM   16  C   UNL     1      -9.990   2.384 -33.708  1.00  0.00     0.037 A 
HETATM   17  C   UNL     1      -8.738   2.597 -33.117  1.00  0.00     0.012 A 
BRANCH  15  18
HETATM   18  O   UNL     1     -11.875   0.837 -34.047  1.00  0.00    -0.356 OA
HETATM   19  C   UNL     1     -12.358   1.630 -35.124  1.00  0.00     0.210 C 
ENDBRANCH  15  18
ENDBRANCH   6  12
BRANCH   8  20
HETATM   20  C   UNL     1      -3.477  -0.085 -31.644  1.00  0.00     0.409 C 
HETATM   21  F   UNL     1      -3.033   0.085 -32.909  1.00  0.00    -0.169 F 
HETATM   22  F   UNL     1      -2.405  -0.163 -30.826  1.00  0.00    -0.169 F 
HETATM   23  F   UNL     1      -4.073  -1.307 -31.600  1.00  0.00    -0.169 F 
ENDBRANCH   8  20
BRANCH   1  24
HETATM   24  C   UNL     1      -1.524   4.814 -31.761  1.00  0.00     0.273 C 
HETATM   25  N   UNL     1      -0.992   4.957 -30.497  1.00  0.00    -0.356 N 
HETATM   26  H   UNL     1      -1.527   4.536 -29.741  1.00  0.00     0.162 HD
HETATM   27  O   UNL     1      -1.007   5.293 -32.764  1.00  0.00    -0.266 OA
BRANCH  25  28
HETATM   28  C   UNL     1       0.229   5.677 -30.227  1.00  0.00     0.122 C 
BRANCH  28  29
HETATM   29  C   UNL     1      -0.034   7.149 -29.923  1.00  0.00     0.015 C 
HETATM   30  C   UNL     1       0.723   7.603 -28.686  1.00  0.00     0.006 C 
ENDBRANCH  28  29
ENDBRANCH  25  28
ENDBRANCH   1  24
TORSDOF 6
ENDMDL
MODEL 3
REMARK VINA RESULT:      -8.0      4.271      8.423
REMARK  6 active torsions:
REMARK  status: ('A' for Active; 'I' for Inactive)
REMARK    1  A    between atoms: C_2  and  C_3 
REMARK    2  A    between atoms: C_3  and  N_4 
REMARK       I    between atoms: N_4  and  C_5 
REMARK    3  A    between atoms: C_5  and  C_6 
REMARK    4  A    between atoms: C_11  and  C_12 
REMARK    5  A    between atoms: C_15  and  O_16 
REMARK    6  A    between atoms: C_21  and  C_22 
ROOT
HETATM    1  C   UNL     1     -11.456   2.712 -33.142  1.00  0.00     0.170 A 
HETATM    2  N   UNL     1     -10.356   3.487 -32.965  1.00  0.00    -0.163 NA
HETATM    3  N   UNL     1      -9.333   2.625 -33.082  1.00  0.00    -0.238 N 
HETATM    4  C   UNL     1      -9.723   1.318 -33.212  1.00  0.00     0.145 A 
HETATM    5  N   UNL     1      -8.809   0.317 -33.263  1.00  0.00    -0.365 N 
HETATM    6  C   UNL     1      -7.430   0.568 -32.854  1.00  0.00     0.118 C 
HETATM    7  C   UNL     1      -6.989   1.939 -33.381  1.00  0.00     0.066 C 
HETATM    8  C   UNL     1      -7.951   3.042 -32.904  1.00  0.00     0.221 C 
HETATM    9  C   UNL     1     -11.097   1.343 -33.281  1.00  0.00     0.115 A 
HETATM   10 CL   UNL     1     -12.125   0.008 -33.482  1.00  0.00    -0.077 Cl
HETATM   11  H   UNL     1      -9.122  -0.650 -33.165  1.00  0.00     0.162 HD
ENDROOT
BRANCH   6  12
HETATM   12  C   UNL     1      -6.514  -0.524 -33.373  1.00  0.00    -0.035 A 
HETATM   13  C   UNL     1      -5.148  -0.550 -33.056  1.00  0.00     0.012 A 
HETATM   14  C   UNL     1      -4.332  -1.589 -33.510  1.00  0.00     0.037 A 
HETATM   15  C   UNL     1      -4.861  -2.629 -34.274  1.00  0.00     0.068 A 
HETATM   16  C   UNL     1      -6.217  -2.614 -34.596  1.00  0.00     0.037 A 
HETATM   17  C   UNL     1      -7.037  -1.571 -34.147  1.00  0.00     0.012 A 
BRANCH  15  18
HETATM   18  O   UNL     1      -3.956  -3.586 -34.641  1.00  0.00    -0.356 OA
HETATM   19  C   UNL     1      -3.837  -4.718 -33.789  1.00  0.00     0.210 C 
ENDBRANCH  15  18
ENDBRANCH   6  12
BRANCH   8  20
HETATM   20  C   UNL     1      -7.646   4.334 -33.631  1.00  0.00     0.409 C 
HETATM   21  F   UNL     1      -6.421   4.332 -34.201  1.00  0.00    -0.169 F 
HETATM   22  F   UNL     1      -8.555   4.637 -34.584  1.00  0.00    -0.169 F 
HETATM   23  F   UNL     1      -7.667   5.370 -32.751  1.00  0.00    -0.169 F 
ENDBRANCH   8  20
BRANCH   1  24
HETATM   24  C   UNL     1     -12.801   3.312 -33.164  1.00  0.00     0.273 C 
HETATM   25  N   UNL     1     -13.598   2.881 -32.124  1.00  0.00    -0.356 N 
HETATM   26  H   UNL     1     -13.181   2.192 -31.503  1.00  0.00     0.162 HD
HETATM   27  O   UNL     1     -13.177   4.117 -34.008  1.00  0.00    -0.266 OA
BRANCH  25  28
HETATM   28  C   UNL     1     -14.951   3.339 -31.920  1.00  0.00     0.122 C 
BRANCH  28  29
HETATM   29  C   UNL     1     -15.966   2.216 -32.110  1.00  0.00     0.015 C 
HETATM   30  C   UNL     1     -17.387   2.712 -31.905  1.00  0.00     0.006 C 
ENDBRANCH  28  29
ENDBRANCH  25  28
ENDBRANCH   1  24
TORSDOF 6
ENDMDL
MODEL 4
REMARK VINA RESULT:      -7.8      4.247      5.346
REMARK  6 active torsions:
REMARK  status: ('A' for Active; 'I' for Inactive)
REMARK    1  A    between atoms: C_2  and  C_3 
REMARK    2  A    between atoms: C_3  and  N_4 
REMARK       I    between atoms: N_4  and  C_5 
REMARK    3  A    between atoms: C_5  and  C_6 
REMARK    4  A    between atoms: C_11  and  C_12 
REMARK    5  A    between atoms: C_15  and  O_16 
REMARK    6  A    between atoms: C_21  and  C_22 
ROOT
HETATM    1  C   UNL     1      -4.540   5.256 -31.209  1.00  0.00     0.170 A 
HETATM    2  N   UNL     1      -5.865   4.997 -31.070  1.00  0.00    -0.163 NA
HETATM    3  N   UNL     1      -6.015   3.782 -31.620  1.00  0.00    -0.238 N 
HETATM    4  C   UNL     1      -4.877   3.296 -32.208  1.00  0.00     0.145 A 
HETATM    5  N   UNL     1      -4.884   2.115 -32.875  1.00  0.00    -0.365 N 
HETATM    6  C   UNL     1      -6.152   1.505 -33.264  1.00  0.00     0.118 C 
HETATM    7  C   UNL     1      -7.159   1.660 -32.118  1.00  0.00     0.066 C 
HETATM    8  C   UNL     1      -7.317   3.141 -31.729  1.00  0.00     0.221 C 
HETATM    9  C   UNL     1      -3.893   4.218 -31.936  1.00  0.00     0.115 A 
HETATM   10 CL   UNL     1      -2.260   4.120 -32.388  1.00  0.00    -0.077 Cl
HETATM   11  H   UNL     1      -4.085   1.870 -33.463  1.00  0.00     0.162 HD
ENDROOT
BRANCH   6  12
HETATM   12  C   UNL     1      -5.954   0.041 -33.608  1.00  0.00    -0.035 A 
HETATM   13  C   UNL     1      -6.928  -0.688 -34.305  1.00  0.00     0.012 A 
HETATM   14  C   UNL     1      -6.707  -2.025 -34.648  1.00  0.00     0.037 A 
HETATM   15  C   UNL     1      -5.508  -2.657 -34.317  1.00  0.00     0.068 A 
HETATM   16  C   UNL     1      -4.533  -1.942 -33.624  1.00  0.00     0.037 A 
HETATM   17  C   UNL     1      -4.754  -0.603 -33.273  1.00  0.00     0.012 A 
BRANCH  15  18
HETATM   18  O   UNL     1      -5.417  -3.959 -34.724  1.00  0.00    -0.356 OA
HETATM   19  C   UNL     1      -6.522  -4.485 -35.448  1.00  0.00     0.210 C 
ENDBRANCH  15  18
ENDBRANCH   6  12
BRANCH   8  20
HETATM   20  C   UNL     1      -8.114   3.248 -30.446  1.00  0.00     0.409 C 
HETATM   21  F   UNL     1      -7.382   2.937 -29.354  1.00  0.00    -0.169 F 
HETATM   22  F   UNL     1      -8.658   4.470 -30.257  1.00  0.00    -0.169 F 
HETATM   23  F   UNL     1      -9.155   2.375 -30.481  1.00  0.00    -0.169 F 
ENDBRANCH   8  20
BRANCH   1  24
HETATM   24  C   UNL     1      -3.953   6.485 -30.650  1.00  0.00     0.273 C 
HETATM   25  N   UNL     1      -2.915   6.235 -29.777  1.00  0.00    -0.356 N 
HETATM   26  H   UNL     1      -2.708   5.254 -29.604  1.00  0.00     0.162 HD
HETATM   27  O   UNL     1      -4.335   7.615 -30.932  1.00  0.00    -0.266 OA
BRANCH  25  28
HETATM   28  C   UNL     1      -2.169   7.277 -29.113  1.00  0.00     0.122 C 
BRANCH  28  29
HETATM   29  C   UNL     1      -0.932   7.685 -29.907  1.00  0.00     0.015 C 
HETATM   30  C   UNL     1       0.343   7.206 -29.232  1.00  0.00     0.006 C 
ENDBRANCH  28  29
ENDBRANCH  25  28
ENDBRANCH   1  24
TORSDOF 6
ENDMDL
MODEL 5
REMARK VINA RESULT:      -7.6      4.134      9.668
REMARK  6 active torsions:
REMARK  status: ('A' for Active; 'I' for Inactive)
REMARK    1  A    between atoms: C_2  and  C_3 
REMARK    2  A    between atoms: C_3  and  N_4 
REMARK       I    between atoms: N_4  and  C_5 
REMARK    3  A    between atoms: C_5  and  C_6 
REMARK    4  A    between atoms: C_11  and  C_12 
REMARK    5  A    between atoms: C_15  and  O_16 
REMARK    6  A    between atoms: C_21  and  C_22 
ROOT
HETATM    1  C   UNL     1      -5.407   3.349 -32.486  1.00  0.00     0.170 A 
HETATM    2  N   UNL     1      -4.792   4.122 -33.416  1.00  0.00    -0.163 NA
HETATM    3  N   UNL     1      -3.932   4.864 -32.699  1.00  0.00    -0.238 N 
HETATM    4  C   UNL     1      -4.045   4.688 -31.346  1.00  0.00     0.145 A 
HETATM    5  N   UNL     1      -3.301   5.422 -30.480  1.00  0.00    -0.365 N 
HETATM    6  C   UNL     1      -2.619   6.626 -30.945  1.00  0.00     0.118 C 
HETATM    7  C   UNL     1      -2.014   6.361 -32.329  1.00  0.00     0.066 C 
HETATM    8  C   UNL     1      -3.096   5.883 -33.314  1.00  0.00     0.221 C 
HETATM    9  C   UNL     1      -4.977   3.690 -31.175  1.00  0.00     0.115 A 
HETATM   10 CL   UNL     1      -5.493   3.028 -29.700  1.00  0.00    -0.077 Cl
HETATM   11  H   UNL     1      -3.538   5.413 -29.487  1.00  0.00     0.162 HD
ENDROOT
BRANCH   6  12
HETATM   12  C   UNL     1      -1.542   7.040 -29.961  1.00  0.00    -0.035 A 
HETATM   13  C   UNL     1      -0.184   7.031 -30.310  1.00  0.00     0.012 A 
HETATM   14  C   UNL     1       0.788   7.458 -29.401  1.00  0.00     0.037 A 
HETATM   15  C   UNL     1       0.427   7.915 -28.134  1.00  0.00     0.068 A 
HETATM   16  C   UNL     1      -0.920   7.928 -27.775  1.00  0.00     0.037 A 
HETATM   17  C   UNL     1      -1.897   7.496 -28.682  1.00  0.00     0.012 A 
BRANCH  15  18
HETATM   18  O   UNL     1       1.474   8.314 -27.350  1.00  0.00    -0.356 OA
HETATM   19  C   UNL     1       1.516   7.803 -26.024  1.00  0.00     0.210 C 
ENDBRANCH  15  18
ENDBRANCH   6  12
BRANCH   8  20
HETATM   20  C   UNL     1      -2.443   5.392 -34.589  1.00  0.00     0.409 C 
HETATM   21  F   UNL     1      -3.310   5.326 -35.623  1.00  0.00    -0.169 F 
HETATM   22  F   UNL     1      -1.386   6.143 -34.970  1.00  0.00    -0.169 F 
HETATM   23  F   UNL     1      -1.962   4.135 -34.400  1.00  0.00    -0.169 F 
ENDBRANCH   8  20
BRANCH   1  24
HETATM   24  C   UNL     1      -6.384   2.324 -32.891  1.00  0.00     0.273 C 
HETATM   25  N   UNL     1      -5.841   1.058 -32.952  1.00  0.00    -0.356 N 
HETATM   26  H   UNL     1      -4.846   0.993 -32.747  1.00  0.00     0.162 HD
HETATM   27  O   UNL     1      -7.560   2.561 -33.142  1.00  0.00    -0.266 OA
BRANCH  25  28
HETATM   28  C   UNL     1      -6.601  -0.116 -33.308  1.00  0.00     0.122 C 
BRANCH  28  29
HETATM   29  C   UNL     1      -5.783  -1.090 -34.150  1.00  0.00     0.015 C 
HETATM   30  C   UNL     1      -6.605  -2.302 -34.551  1.00  0.00     0.006 C 
ENDBRANCH  28  29
ENDBRANCH  25  28
ENDBRANCH   1  24
TORSDOF 6
ENDMDL
MODEL 6
REMARK VINA RESULT:      -7.6      3.760      5.098
REMARK  6 active torsions:
REMARK  status: ('A' for Active; 'I' for Inactive)
REMARK    1  A    between atoms: C_2  and  C_3 
REMARK    2  A    between atoms: C_3  and  N_4 
REMARK       I    between atoms: N_4  and  C_5 
REMARK    3  A    between atoms: C_5  and  C_6 
REMARK    4  A    between atoms: C_11  and  C_12 
REMARK    5  A    between atoms: C_15  and  O_16 
REMARK    6  A    between atoms: C_21  and  C_22 
ROOT
HETATM    1  C   UNL     1      -5.359  -0.416 -32.812  1.00  0.00     0.170 A 
HETATM    2  N   UNL     1      -5.508   0.725 -32.091  1.00  0.00    -0.163 NA
HETATM    3  N   UNL     1      -6.797   1.054 -32.271  1.00  0.00    -0.238 N 
HETATM    4  C   UNL     1      -7.454   0.246 -33.162  1.00  0.00     0.145 A 
HETATM    5  N   UNL     1      -8.742   0.494 -33.512  1.00  0.00    -0.365 N 
HETATM    6  C   UNL     1      -9.342   1.790 -33.213  1.00  0.00     0.118 C 
HETATM    7  C   UNL     1      -8.905   2.238 -31.812  1.00  0.00     0.066 C 
HETATM    8  C   UNL     1      -7.370   2.264 -31.703  1.00  0.00     0.221 C 
HETATM    9  C   UNL     1      -6.555  -0.735 -33.511  1.00  0.00     0.115 A 
HETATM   10 CL   UNL     1      -6.835  -2.036 -34.564  1.00  0.00    -0.077 Cl
HETATM   11  H   UNL     1      -9.144   0.003 -34.312  1.00  0.00     0.162 HD
ENDROOT
BRANCH   6  12
HETATM   12  C   UNL     1     -10.854   1.709 -33.301  1.00  0.00    -0.035 A 
HETATM   13  C   UNL     1     -11.656   2.859 -33.244  1.00  0.00     0.012 A 
HETATM   14  C   UNL     1     -13.044   2.764 -33.370  1.00  0.00     0.037 A 
HETATM   15  C   UNL     1     -13.660   1.529 -33.570  1.00  0.00     0.068 A 
HETATM   16  C   UNL     1     -12.872   0.380 -33.628  1.00  0.00     0.037 A 
HETATM   17  C   UNL     1     -11.481   0.470 -33.497  1.00  0.00     0.012 A 
BRANCH  15  18
HETATM   18  O   UNL     1     -15.021   1.581 -33.690  1.00  0.00    -0.356 OA
HETATM   19  C   UNL     1     -15.753   1.978 -32.537  1.00  0.00     0.210 C 
ENDBRANCH  15  18
ENDBRANCH   6  12
BRANCH   8  20
HETATM   20  C   UNL     1      -6.965   2.462 -30.258  1.00  0.00     0.409 C 
HETATM   21  F   UNL     1      -5.815   3.160 -30.132  1.00  0.00    -0.169 F 
HETATM   22  F   UNL     1      -7.915   3.075 -29.517  1.00  0.00    -0.169 F 
HETATM   23  F   UNL     1      -6.755   1.253 -29.672  1.00  0.00    -0.169 F 
ENDBRANCH   8  20
BRANCH   1  24
HETATM   24  C   UNL     1      -4.080  -1.145 -32.805  1.00  0.00     0.273 C 
HETATM   25  N   UNL     1      -4.222  -2.475 -32.470  1.00  0.00    -0.356 N 
HETATM   26  H   UNL     1      -5.166  -2.775 -32.239  1.00  0.00     0.162 HD
HETATM   27  O   UNL     1      -2.999  -0.634 -33.078  1.00  0.00    -0.266 OA
BRANCH  25  28
HETATM   28  C   UNL     1      -3.116  -3.401 -32.411  1.00  0.00     0.122 C 
BRANCH  28  29
HETATM   29  C   UNL     1      -3.424  -4.702 -33.145  1.00  0.00     0.015 C 
HETATM   30  C   UNL     1      -4.475  -4.495 -34.224  1.00  0.00     0.006 C 
ENDBRANCH  28  29
ENDBRANCH  25  28
ENDBRANCH   1  24
TORSDOF 6
ENDMDL
MODEL 7
REMARK VINA RESULT:      -7.6      4.010      6.914
REMARK  6 active torsions:
REMARK  status: ('A' for Active; 'I' for Inactive)
REMARK    1  A    between atoms: C_2  and  C_3 
REMARK    2  A    between atoms: C_3  and  N_4 
REMARK       I    between atoms: N_4  and  C_5 
REMARK    3  A    between atoms: C_5  and  C_6 
REMARK    4  A    between atoms: C_11  and  C_12 
REMARK    5  A    between atoms: C_15  and  O_16 
REMARK    6  A    between atoms: C_21  and  C_22 
ROOT
HETATM    1  C   UNL     1      -8.770   4.695 -33.841  1.00  0.00     0.170 A 
HETATM    2  N   UNL     1      -9.682   3.711 -34.045  1.00  0.00    -0.163 NA
HETATM    3  N   UNL     1      -8.943   2.590 -34.079  1.00  0.00    -0.238 N 
HETATM    4  C   UNL     1      -7.593   2.816 -34.022  1.00  0.00     0.145 A 
HETATM    5  N   UNL     1      -6.708   1.792 -34.124  1.00  0.00    -0.365 N 
HETATM    6  C   UNL     1      -7.151   0.493 -34.622  1.00  0.00     0.118 C 
HETATM    7  C   UNL     1      -8.526   0.165 -34.026  1.00  0.00     0.066 C 
HETATM    8  C   UNL     1      -9.535   1.286 -34.335  1.00  0.00     0.221 C 
HETATM    9  C   UNL     1      -7.448   4.171 -33.840  1.00  0.00     0.115 A 
HETATM   10 CL   UNL     1      -5.988   5.018 -33.663  1.00  0.00    -0.077 Cl
HETATM   11  H   UNL     1      -5.720   2.000 -34.273  1.00  0.00     0.162 HD
ENDROOT
BRANCH   6  12
HETATM   12  C   UNL     1      -6.144  -0.584 -34.267  1.00  0.00    -0.035 A 
HETATM   13  C   UNL     1      -5.099  -0.343 -33.363  1.00  0.00     0.012 A 
HETATM   14  C   UNL     1      -4.208  -1.362 -33.018  1.00  0.00     0.037 A 
HETATM   15  C   UNL     1      -4.346  -2.643 -33.554  1.00  0.00     0.068 A 
HETATM   16  C   UNL     1      -5.381  -2.893 -34.454  1.00  0.00     0.037 A 
HETATM   17  C   UNL     1      -6.273  -1.873 -34.807  1.00  0.00     0.012 A 
BRANCH  15  18
HETATM   18  O   UNL     1      -3.416  -3.547 -33.123  1.00  0.00    -0.356 OA
HETATM   19  C   UNL     1      -3.413  -4.819 -33.758  1.00  0.00     0.210 C 
ENDBRANCH  15  18
ENDBRANCH   6  12
BRANCH   8  20
HETATM   20  C   UNL     1     -10.801   1.066 -33.535  1.00  0.00     0.409 C 
HETATM   21  F   UNL     1     -10.844   1.824 -32.417  1.00  0.00    -0.169 F 
HETATM   22  F   UNL     1     -11.927   1.295 -34.245  1.00  0.00    -0.169 F 
HETATM   23  F   UNL     1     -10.867  -0.231 -33.133  1.00  0.00    -0.169 F 
ENDBRANCH   8  20
BRANCH   1  24
HETATM   24  C   UNL     1      -9.201   6.092 -33.664  1.00  0.00     0.273 C 
HETATM   25  N   UNL     1      -9.944   6.564 -34.725  1.00  0.00    -0.356 N 
HETATM   26  H   UNL     1     -10.071   5.916 -35.499  1.00  0.00     0.162 HD
HETATM   27  O   UNL     1      -8.939   6.768 -32.675  1.00  0.00    -0.266 OA
BRANCH  25  28
HETATM   28  C   UNL     1     -10.493   7.897 -34.778  1.00  0.00     0.122 C 
BRANCH  28  29
HETATM   29  C   UNL     1     -10.845   8.311 -36.204  1.00  0.00     0.015 C 
HETATM   30  C   UNL     1     -12.280   7.950 -36.548  1.00  0.00     0.006 C 
ENDBRANCH  28  29
ENDBRANCH  25  28
ENDBRANCH   1  24
TORSDOF 6
ENDMDL
MODEL 8
REMARK VINA RESULT:      -7.5      4.267      7.913
REMARK  6 active torsions:
REMARK  status: ('A' for Active; 'I' for Inactive)
REMARK    1  A    between atoms: C_2  and  C_3 
REMARK    2  A    between atoms: C_3  and  N_4 
REMARK       I    between atoms: N_4  and  C_5 
REMARK    3  A    between atoms: C_5  and  C_6 
REMARK    4  A    between atoms: C_11  and  C_12 
REMARK    5  A    between atoms: C_15  and  O_16 
REMARK    6  A    between atoms: C_21  and  C_22 
ROOT
HETATM    1  C   UNL     1     -10.707   3.302 -32.045  1.00  0.00     0.170 A 
HETATM    2  N   UNL     1      -9.662   3.550 -31.217  1.00  0.00    -0.163 NA
HETATM    3  N   UNL     1      -8.777   2.586 -31.517  1.00  0.00    -0.238 N 
HETATM    4  C   UNL     1      -9.248   1.664 -32.414  1.00  0.00     0.145 A 
HETATM    5  N   UNL     1      -8.504   0.583 -32.762  1.00  0.00    -0.365 N 
HETATM    6  C   UNL     1      -7.347   0.205 -31.956  1.00  0.00     0.118 C 
HETATM    7  C   UNL     1      -6.584   1.470 -31.543  1.00  0.00     0.066 C 
HETATM    8  C   UNL     1      -7.514   2.452 -30.808  1.00  0.00     0.221 C 
HETATM    9  C   UNL     1     -10.490   2.115 -32.798  1.00  0.00     0.115 A 
HETATM   10 CL   UNL     1     -11.528   1.386 -33.925  1.00  0.00    -0.077 Cl
HETATM   11  H   UNL     1      -8.945  -0.182 -33.275  1.00  0.00     0.162 HD
ENDROOT
BRANCH   6  12
HETATM   12  C   UNL     1      -6.444  -0.736 -32.730  1.00  0.00    -0.035 A 
HETATM   13  C   UNL     1      -5.130  -0.998 -32.318  1.00  0.00     0.012 A 
HETATM   14  C   UNL     1      -4.329  -1.901 -33.023  1.00  0.00     0.037 A 
HETATM   15  C   UNL     1      -4.826  -2.572 -34.141  1.00  0.00     0.068 A 
HETATM   16  C   UNL     1      -6.131  -2.319 -34.560  1.00  0.00     0.037 A 
HETATM   17  C   UNL     1      -6.934  -1.410 -33.859  1.00  0.00     0.012 A 
BRANCH  15  18
HETATM   18  O   UNL     1      -3.943  -3.435 -34.728  1.00  0.00    -0.356 OA
HETATM   19  C   UNL     1      -3.534  -4.558 -33.957  1.00  0.00     0.210 C 
ENDBRANCH  15  18
ENDBRANCH   6  12
BRANCH   8  20
HETATM   20  C   UNL     1      -6.814   3.783 -30.634  1.00  0.00     0.409 C 
HETATM   21  F   UNL     1      -6.872   4.548 -31.745  1.00  0.00    -0.169 F 
HETATM   22  F   UNL     1      -7.291   4.505 -29.597  1.00  0.00    -0.169 F 
HETATM   23  F   UNL     1      -5.496   3.574 -30.371  1.00  0.00    -0.169 F 
ENDBRANCH   8  20
BRANCH   1  24
HETATM   24  C   UNL     1     -11.870   4.204 -32.076  1.00  0.00     0.273 C 
HETATM   25  N   UNL     1     -12.990   3.658 -31.485  1.00  0.00    -0.356 N 
HETATM   26  H   UNL     1     -12.889   2.707 -31.139  1.00  0.00     0.162 HD
HETATM   27  O   UNL     1     -11.851   5.328 -32.566  1.00  0.00    -0.266 OA
BRANCH  25  28
HETATM   28  C   UNL     1     -14.249   4.354 -31.377  1.00  0.00     0.122 C 
BRANCH  28  29
HETATM   29  C   UNL     1     -15.394   3.559 -31.996  1.00  0.00     0.015 C 
HETATM   30  C   UNL     1     -14.978   2.128 -32.294  1.00  0.00     0.006 C 
ENDBRANCH  28  29
ENDBRANCH  25  28
ENDBRANCH   1  24
TORSDOF 6
ENDMDL
MODEL 9
REMARK VINA RESULT:      -7.5      2.152      8.282
REMARK  6 active torsions:
REMARK  status: ('A' for Active; 'I' for Inactive)
REMARK    1  A    between atoms: C_2  and  C_3 
REMARK    2  A    between atoms: C_3  and  N_4 
REMARK       I    between atoms: N_4  and  C_5 
REMARK    3  A    between atoms: C_5  and  C_6 
REMARK    4  A    between atoms: C_11  and  C_12 
REMARK    5  A    between atoms: C_15  and  O_16 
REMARK    6  A    between atoms: C_21  and  C_22 
ROOT
HETATM    1  C   UNL     1     -10.628   1.980 -34.280  1.00  0.00     0.170 A 
HETATM    2  N   UNL     1      -9.726   0.967 -34.232  1.00  0.00    -0.163 NA
HETATM    3  N   UNL     1      -8.556   1.587 -34.008  1.00  0.00    -0.238 N 
HETATM    4  C   UNL     1      -8.644   2.954 -34.025  1.00  0.00     0.145 A 
HETATM    5  N   UNL     1      -7.536   3.728 -33.892  1.00  0.00    -0.365 N 
HETATM    6  C   UNL     1      -6.211   3.138 -34.061  1.00  0.00     0.118 C 
HETATM    7  C   UNL     1      -6.182   1.761 -33.386  1.00  0.00     0.066 C 
HETATM    8  C   UNL     1      -7.299   0.858 -33.939  1.00  0.00     0.221 C 
HETATM    9  C   UNL     1      -9.981   3.242 -34.172  1.00  0.00     0.115 A 
HETATM   10 CL   UNL     1     -10.685   4.786 -34.222  1.00  0.00    -0.077 Cl
HETATM   11  H   UNL     1      -7.597   4.726 -34.100  1.00  0.00     0.162 HD
ENDROOT
BRANCH   6  12
HETATM   12  C   UNL     1      -5.147   4.045 -33.474  1.00  0.00    -0.035 A 
HETATM   13  C   UNL     1      -4.491   5.009 -34.254  1.00  0.00     0.012 A 
HETATM   14  C   UNL     1      -3.544   5.862 -33.682  1.00  0.00     0.037 A 
HETATM   15  C   UNL     1      -3.242   5.784 -32.322  1.00  0.00     0.068 A 
HETATM   16  C   UNL     1      -3.888   4.830 -31.538  1.00  0.00     0.037 A 
HETATM   17  C   UNL     1      -4.834   3.968 -32.109  1.00  0.00     0.012 A 
BRANCH  15  18
HETATM   18  O   UNL     1      -2.309   6.685 -31.891  1.00  0.00    -0.356 OA
HETATM   19  C   UNL     1      -2.034   7.786 -32.748  1.00  0.00     0.210 C 
ENDBRANCH  15  18
ENDBRANCH   6  12
BRANCH   8  20
HETATM   20  C   UNL     1      -7.411  -0.391 -33.092  1.00  0.00     0.409 C 
HETATM   21  F   UNL     1      -8.147  -0.197 -31.976  1.00  0.00    -0.169 F 
HETATM   22  F   UNL     1      -7.926  -1.445 -33.762  1.00  0.00    -0.169 F 
HETATM   23  F   UNL     1      -6.173  -0.777 -32.682  1.00  0.00    -0.169 F 
ENDBRANCH   8  20
BRANCH   1  24
HETATM   24  C   UNL     1     -12.065   1.699 -34.434  1.00  0.00     0.273 C 
HETATM   25  N   UNL     1     -12.753   1.749 -33.240  1.00  0.00    -0.356 N 
HETATM   26  H   UNL     1     -12.191   1.936 -32.413  1.00  0.00     0.162 HD
HETATM   27  O   UNL     1     -12.603   1.453 -35.508  1.00  0.00    -0.266 OA
BRANCH  25  28
HETATM   28  C   UNL     1     -14.174   1.525 -33.134  1.00  0.00     0.122 C 
BRANCH  28  29
HETATM   29  C   UNL     1     -14.822   2.456 -32.114  1.00  0.00     0.015 C 
HETATM   30  C   UNL     1     -16.338   2.357 -32.157  1.00  0.00     0.006 C 
ENDBRANCH  28  29
ENDBRANCH  25  28
ENDBRANCH   1  24
TORSDOF 6
ENDMDL
MODEL 10
REMARK VINA RESULT:      -7.5      3.923      5.753
REMARK  6 active torsions:
REMARK  status: ('A' for Active; 'I' for Inactive)
REMARK    1  A    between atoms: C_2  and  C_3 
REMARK    2  A    between atoms: C_3  and  N_4 
REMARK       I    between atoms: N_4  and  C_5 
REMARK    3  A    between atoms: C_5  and  C_6 
REMARK    4  A    between atoms: C_11  and  C_12 
REMARK    5  A    between atoms: C_15  and  O_16 
REMARK    6  A    between atoms: C_21  and  C_22 
ROOT
HETATM    1  C   UNL     1      -5.413   4.402 -31.847  1.00  0.00     0.170 A 
HETATM    2  N   UNL     1      -6.722   4.064 -31.965  1.00  0.00    -0.163 NA
HETATM    3  N   UNL     1      -6.690   2.816 -32.460  1.00  0.00    -0.238 N 
HETATM    4  C   UNL     1      -5.430   2.379 -32.772  1.00  0.00     0.145 A 
HETATM    5  N   UNL     1      -5.234   1.168 -33.353  1.00  0.00    -0.365 N 
HETATM    6  C   UNL     1      -6.359   0.458 -33.955  1.00  0.00     0.118 C 
HETATM    7  C   UNL     1      -7.589   0.603 -33.050  1.00  0.00     0.066 C 
HETATM    8  C   UNL     1      -7.904   2.088 -32.792  1.00  0.00     0.221 C 
HETATM    9  C   UNL     1      -4.575   3.375 -32.361  1.00  0.00     0.115 A 
HETATM   10 CL   UNL     1      -2.881   3.362 -32.464  1.00  0.00    -0.077 Cl
HETATM   11  H   UNL     1      -4.319   0.947 -33.750  1.00  0.00     0.162 HD
ENDROOT
BRANCH   6  12
HETATM   12  C   UNL     1      -6.016  -1.004 -34.161  1.00  0.00    -0.035 A 
HETATM   13  C   UNL     1      -4.741  -1.509 -33.865  1.00  0.00     0.012 A 
HETATM   14  C   UNL     1      -4.459  -2.868 -34.022  1.00  0.00     0.037 A 
HETATM   15  C   UNL     1      -5.443  -3.754 -34.463  1.00  0.00     0.068 A 
HETATM   16  C   UNL     1      -6.714  -3.264 -34.760  1.00  0.00     0.037 A 
HETATM   17  C   UNL     1      -6.998  -1.900 -34.609  1.00  0.00     0.012 A 
BRANCH  15  18
HETATM   18  O   UNL     1      -5.038  -5.056 -34.559  1.00  0.00    -0.356 OA
HETATM   19  C   UNL     1      -3.925  -5.444 -33.764  1.00  0.00     0.210 C 
ENDBRANCH  15  18
ENDBRANCH   6  12
BRANCH   8  20
HETATM   20  C   UNL     1      -8.954   2.205 -31.708  1.00  0.00     0.409 C 
HETATM   21  F   UNL     1      -8.415   2.333 -30.476  1.00  0.00    -0.169 F 
HETATM   22  F   UNL     1      -9.811   3.231 -31.904  1.00  0.00    -0.169 F 
HETATM   23  F   UNL     1      -9.716   1.079 -31.688  1.00  0.00    -0.169 F 
ENDBRANCH   8  20
BRANCH   1  24
HETATM   24  C   UNL     1      -5.022   5.692 -31.255  1.00  0.00     0.273 C 
HETATM   25  N   UNL     1      -4.453   5.560 -30.006  1.00  0.00    -0.356 N 
HETATM   26  H   UNL     1      -4.405   4.612 -29.639  1.00  0.00     0.162 HD
HETATM   27  O   UNL     1      -5.175   6.774 -31.811  1.00  0.00    -0.266 OA
BRANCH  25  28
HETATM   28  C   UNL     1      -3.974   6.678 -29.230  1.00  0.00     0.122 C 
BRANCH  28  29
HETATM   29  C   UNL     1      -4.637   6.746 -27.859  1.00  0.00     0.015 C 
HETATM   30  C   UNL     1      -5.657   5.633 -27.681  1.00  0.00     0.006 C 
ENDBRANCH  28  29
ENDBRANCH  25  28
ENDBRANCH   1  24
TORSDOF 6
ENDMDL
