MODEL 1
REMARK VINA RESULT:      -9.4      0.000      0.000
REMARK  6 active torsions:
REMARK  status: ('A' for Active; 'I' for Inactive)
REMARK    1  A    between atoms: C_2  and  O_3 
REMARK    2  A    between atoms: O_3  and  C_4 
REMARK    3  A    between atoms: C_5  and  O_6 
REMARK    4  A    between atoms: O_6  and  C_7 
REMARK    5  A    between atoms: C_7  and  C_8 
REMARK    6  A    between atoms: C_18  and  C_19 
ROOT
HETATM    1  C   UNL     1      -5.744   3.603 -31.911  1.00  0.00     0.103 A 
HETATM    2  C   UNL     1      -5.271   2.381 -32.404  1.00  0.00     0.112 A 
HETATM    3  C   UNL     1      -3.908   2.131 -32.566  1.00  0.00     0.041 A 
HETATM    4  C   UNL     1      -2.989   3.106 -32.195  1.00  0.00     0.014 A 
HETATM    5  C   UNL     1      -3.425   4.340 -31.679  1.00  0.00    -0.013 A 
HETATM    6  C   UNL     1      -4.809   4.578 -31.547  1.00  0.00     0.050 A 
ENDROOT
BRANCH   5   7
HETATM    7  C   UNL     1      -2.423   5.395 -31.267  1.00  0.00     0.219 C 
HETATM    8  N   UNL     1      -1.269   4.803 -30.642  1.00  0.00    -0.332 N 
HETATM    9  C   UNL     1      -0.384   5.537 -29.897  1.00  0.00     0.256 C 
HETATM   10  H   UNL     1      -0.879   3.973 -31.064  1.00  0.00     0.165 HD
HETATM   11  O   UNL     1       0.756   5.148 -29.669  1.00  0.00    -0.267 OA
HETATM   12  C   UNL     1      -0.909   6.785 -29.368  1.00  0.00     0.073 A 
HETATM   13  C   UNL     1      -2.222   7.113 -29.616  1.00  0.00     0.088 A 
HETATM   14  C   UNL     1      -0.260   7.771 -28.557  1.00  0.00    -0.023 A 
HETATM   15  S   UNL     1      -2.685   8.575 -28.884  1.00  0.00    -0.074 SA
HETATM   16  N   UNL     1      -3.043   6.331 -30.349  1.00  0.00    -0.358 N 
HETATM   17  C   UNL     1      -1.132   8.791 -28.219  1.00  0.00     0.018 A 
HETATM   18  C   UNL     1      -0.785   9.970 -27.379  1.00  0.00     0.281 C 
HETATM   19  N   UNL     1       0.511   9.740 -26.608  1.00  0.00    -0.070 N 
HETATM   20  C   UNL     1       1.584   9.109 -27.493  1.00  0.00     0.239 C 
HETATM   21  H   UNL     1       0.855  10.671 -26.348  1.00  0.00     0.279 HD
HETATM   22  C   UNL     1       0.292   8.999 -25.319  1.00  0.00     0.270 C 
HETATM   23  C   UNL     1       1.152   7.743 -28.055  1.00  0.00     0.068 C 
HETATM   24  H   UNL     1      -3.948   6.685 -30.647  1.00  0.00     0.162 HD
ENDBRANCH   5   7
BRANCH   1  25
HETATM   25  O   UNL     1      -7.104   3.741 -31.840  1.00  0.00    -0.349 OA
BRANCH  25  26
HETATM   26  C   UNL     1      -7.724   3.495 -30.579  1.00  0.00     0.171 C 
HETATM   27  C   UNL     1      -8.935   2.610 -30.813  1.00  0.00     0.034 C 
ENDBRANCH  25  26
ENDBRANCH   1  25
BRANCH   2  28
HETATM   28  O   UNL     1      -6.166   1.383 -32.800  1.00  0.00    -0.272 OA
BRANCH  28  29
HETATM   29  C   UNL     1      -6.005   0.234 -32.056  1.00  0.00     0.300 C 
HETATM   30  O   UNL     1      -6.089   0.091 -30.845  1.00  0.00    -0.259 OA
BRANCH  29  31
HETATM   31  C   UNL     1      -5.780  -0.893 -32.980  1.00  0.00     0.061 A 
HETATM   32  C   UNL     1      -4.569  -1.592 -33.044  1.00  0.00     0.050 A 
HETATM   33 CL   UNL     1      -3.222  -1.238 -32.021  1.00  0.00    -0.083 Cl
HETATM   34  C   UNL     1      -4.438  -2.665 -33.931  1.00  0.00     0.025 A 
HETATM   35  C   UNL     1      -5.512  -3.048 -34.739  1.00  0.00     0.002 A 
HETATM   36  C   UNL     1      -6.724  -2.365 -34.658  1.00  0.00     0.001 A 
HETATM   37  C   UNL     1      -6.863  -1.292 -33.778  1.00  0.00     0.019 A 
ENDBRANCH  29  31
ENDBRANCH  28  29
ENDBRANCH   2  28
TORSDOF 6
ENDMDL
MODEL 2
REMARK VINA RESULT:      -8.6      5.936      9.417
REMARK  6 active torsions:
REMARK  status: ('A' for Active; 'I' for Inactive)
REMARK    1  A    between atoms: C_2  and  O_3 
REMARK    2  A    between atoms: O_3  and  C_4 
REMARK    3  A    between atoms: C_5  and  O_6 
REMARK    4  A    between atoms: O_6  and  C_7 
REMARK    5  A    between atoms: C_7  and  C_8 
REMARK    6  A    between atoms: C_18  and  C_19 
ROOT
HETATM    1  C   UNL     1      -7.653   1.048 -31.727  1.00  0.00     0.103 A 
HETATM    2  C   UNL     1      -7.385  -0.029 -32.580  1.00  0.00     0.112 A 
HETATM    3  C   UNL     1      -8.187  -0.309 -33.687  1.00  0.00     0.041 A 
HETATM    4  C   UNL     1      -9.263   0.523 -33.974  1.00  0.00     0.014 A 
HETATM    5  C   UNL     1      -9.555   1.625 -33.151  1.00  0.00    -0.013 A 
HETATM    6  C   UNL     1      -8.743   1.873 -32.024  1.00  0.00     0.050 A 
ENDROOT
BRANCH   5   7
HETATM    7  C   UNL     1     -10.720   2.534 -33.470  1.00  0.00     0.219 C 
HETATM    8  N   UNL     1     -11.078   2.453 -34.863  1.00  0.00    -0.332 N 
HETATM    9  C   UNL     1     -11.865   3.395 -35.472  1.00  0.00     0.256 C 
HETATM   10  H   UNL     1     -11.109   1.538 -35.289  1.00  0.00     0.165 HD
HETATM   11  O   UNL     1     -12.463   3.168 -36.518  1.00  0.00    -0.267 OA
HETATM   12  C   UNL     1     -11.905   4.688 -34.809  1.00  0.00     0.073 A 
HETATM   13  C   UNL     1     -11.149   4.878 -33.676  1.00  0.00     0.088 A 
HETATM   14  C   UNL     1     -12.613   5.875 -35.179  1.00  0.00    -0.023 A 
HETATM   15  S   UNL     1     -11.271   6.457 -33.060  1.00  0.00    -0.074 SA
HETATM   16  N   UNL     1     -10.383   3.905 -33.138  1.00  0.00    -0.358 N 
HETATM   17  C   UNL     1     -12.338   6.913 -34.306  1.00  0.00     0.018 A 
HETATM   18  C   UNL     1     -12.902   8.287 -34.405  1.00  0.00     0.281 C 
HETATM   19  N   UNL     1     -13.502   8.543 -35.784  1.00  0.00    -0.070 N 
HETATM   20  C   UNL     1     -14.335   7.355 -36.261  1.00  0.00     0.239 C 
HETATM   21  H   UNL     1     -14.151   9.330 -35.670  1.00  0.00     0.279 HD
HETATM   22  C   UNL     1     -12.475   8.989 -36.787  1.00  0.00     0.270 C 
HETATM   23  C   UNL     1     -13.507   6.063 -36.369  1.00  0.00     0.068 C 
HETATM   24  H   UNL     1      -9.974   4.032 -32.216  1.00  0.00     0.162 HD
ENDBRANCH   5   7
BRANCH   1  25
HETATM   25  O   UNL     1      -6.818   1.191 -30.652  1.00  0.00    -0.349 OA
BRANCH  25  26
HETATM   26  C   UNL     1      -6.004   2.361 -30.604  1.00  0.00     0.171 C 
HETATM   27  C   UNL     1      -4.575   1.953 -30.914  1.00  0.00     0.034 C 
ENDBRANCH  25  26
ENDBRANCH   1  25
BRANCH   2  28
HETATM   28  O   UNL     1      -6.320  -0.894 -32.314  1.00  0.00    -0.272 OA
BRANCH  28  29
HETATM   29  C   UNL     1      -5.386  -0.874 -33.327  1.00  0.00     0.300 C 
HETATM   30  O   UNL     1      -4.847   0.092 -33.849  1.00  0.00    -0.259 OA
BRANCH  29  31
HETATM   31  C   UNL     1      -5.038  -2.264 -33.670  1.00  0.00     0.061 A 
HETATM   32  C   UNL     1      -3.951  -2.938 -33.100  1.00  0.00     0.050 A 
HETATM   33 CL   UNL     1      -2.927  -2.229 -31.903  1.00  0.00    -0.083 Cl
HETATM   34  C   UNL     1      -3.696  -4.266 -33.460  1.00  0.00     0.025 A 
HETATM   35  C   UNL     1      -4.527  -4.921 -34.371  1.00  0.00     0.002 A 
HETATM   36  C   UNL     1      -5.621  -4.257 -34.922  1.00  0.00     0.001 A 
HETATM   37  C   UNL     1      -5.882  -2.931 -34.571  1.00  0.00     0.019 A 
ENDBRANCH  29  31
ENDBRANCH  28  29
ENDBRANCH   2  28
TORSDOF 6
ENDMDL
MODEL 3
REMARK VINA RESULT:      -8.6      6.348     10.726
REMARK  6 active torsions:
REMARK  status: ('A' for Active; 'I' for Inactive)
REMARK    1  A    between atoms: C_2  and  O_3 
REMARK    2  A    between atoms: O_3  and  C_4 
REMARK    3  A    between atoms: C_5  and  O_6 
REMARK    4  A    between atoms: O_6  and  C_7 
REMARK    5  A    between atoms: C_7  and  C_8 
REMARK    6  A    between atoms: C_18  and  C_19 
ROOT
HETATM    1  C   UNL     1      -8.701   1.888 -31.748  1.00  0.00     0.103 A 
HETATM    2  C   UNL     1      -8.510   0.736 -32.518  1.00  0.00     0.112 A 
HETATM    3  C   UNL     1      -9.463   0.299 -33.439  1.00  0.00     0.041 A 
HETATM    4  C   UNL     1     -10.621   1.047 -33.624  1.00  0.00     0.014 A 
HETATM    5  C   UNL     1     -10.841   2.221 -32.881  1.00  0.00    -0.013 A 
HETATM    6  C   UNL     1      -9.873   2.628 -31.940  1.00  0.00     0.050 A 
ENDROOT
BRANCH   5   7
HETATM    7  C   UNL     1     -12.096   3.038 -33.091  1.00  0.00     0.219 C 
HETATM    8  N   UNL     1     -11.991   4.326 -32.456  1.00  0.00    -0.332 N 
HETATM    9  C   UNL     1     -13.086   5.114 -32.217  1.00  0.00     0.256 C 
HETATM   10  H   UNL     1     -11.122   4.830 -32.554  1.00  0.00     0.165 HD
HETATM   11  O   UNL     1     -12.991   6.321 -32.021  1.00  0.00    -0.267 OA
HETATM   12  C   UNL     1     -14.357   4.410 -32.175  1.00  0.00     0.073 A 
HETATM   13  C   UNL     1     -14.366   3.043 -32.338  1.00  0.00     0.088 A 
HETATM   14  C   UNL     1     -15.672   4.924 -31.944  1.00  0.00    -0.023 A 
HETATM   15  S   UNL     1     -15.922   2.375 -32.209  1.00  0.00    -0.074 SA
HETATM   16  N   UNL     1     -13.242   2.328 -32.556  1.00  0.00    -0.358 N 
HETATM   17  C   UNL     1     -16.611   3.907 -31.929  1.00  0.00     0.018 A 
HETATM   18  C   UNL     1     -18.071   4.093 -31.706  1.00  0.00     0.281 C 
HETATM   19  N   UNL     1     -18.372   5.465 -31.110  1.00  0.00    -0.070 N 
HETATM   20  C   UNL     1     -17.573   6.565 -31.807  1.00  0.00     0.239 C 
HETATM   21  H   UNL     1     -19.362   5.649 -31.308  1.00  0.00     0.279 HD
HETATM   22  C   UNL     1     -18.232   5.487 -29.614  1.00  0.00     0.270 C 
HETATM   23  C   UNL     1     -16.054   6.352 -31.690  1.00  0.00     0.068 C 
HETATM   24  H   UNL     1     -13.308   1.353 -32.836  1.00  0.00     0.162 HD
ENDBRANCH   5   7
BRANCH   1  25
HETATM   25  O   UNL     1      -7.711   2.187 -30.850  1.00  0.00    -0.349 OA
BRANCH  25  26
HETATM   26  C   UNL     1      -6.835   3.265 -31.173  1.00  0.00     0.171 C 
HETATM   27  C   UNL     1      -5.424   2.856 -30.790  1.00  0.00     0.034 C 
ENDBRANCH  25  26
ENDBRANCH   1  25
BRANCH   2  28
HETATM   28  O   UNL     1      -7.365  -0.047 -32.349  1.00  0.00    -0.272 OA
BRANCH  28  29
HETATM   29  C   UNL     1      -6.492   0.096 -33.405  1.00  0.00     0.300 C 
HETATM   30  O   UNL     1      -6.083   1.125 -33.922  1.00  0.00    -0.259 OA
BRANCH  29  31
HETATM   31  C   UNL     1      -6.022  -1.242 -33.809  1.00  0.00     0.061 A 
HETATM   32  C   UNL     1      -4.730  -1.708 -33.536  1.00  0.00     0.050 A 
HETATM   33 CL   UNL     1      -3.562  -0.783 -32.662  1.00  0.00    -0.083 Cl
HETATM   34  C   UNL     1      -4.364  -2.998 -33.932  1.00  0.00     0.025 A 
HETATM   35  C   UNL     1      -5.284  -3.824 -34.582  1.00  0.00     0.002 A 
HETATM   36  C   UNL     1      -6.576  -3.368 -34.834  1.00  0.00     0.001 A 
HETATM   37  C   UNL     1      -6.950  -2.081 -34.445  1.00  0.00     0.019 A 
ENDBRANCH  29  31
ENDBRANCH  28  29
ENDBRANCH   2  28
TORSDOF 6
ENDMDL
MODEL 4
REMARK VINA RESULT:      -8.5      2.126      2.921
REMARK  6 active torsions:
REMARK  status: ('A' for Active; 'I' for Inactive)
REMARK    1  A    between atoms: C_2  and  O_3 
REMARK    2  A    between atoms: O_3  and  C_4 
REMARK    3  A    between atoms: C_5  and  O_6 
REMARK    4  A    between atoms: O_6  and  C_7 
REMARK    5  A    between atoms: C_7  and  C_8 
REMARK    6  A    between atoms: C_18  and  C_19 
ROOT
HETATM    1  C   UNL     1      -7.287   1.511 -31.961  1.00  0.00     0.103 A 
HETATM    2  C   UNL     1      -6.232   0.695 -32.384  1.00  0.00     0.112 A 
HETATM    3  C   UNL     1      -4.943   1.194 -32.568  1.00  0.00     0.041 A 
HETATM    4  C   UNL     1      -4.686   2.533 -32.290  1.00  0.00     0.014 A 
HETATM    5  C   UNL     1      -5.716   3.381 -31.846  1.00  0.00    -0.013 A 
HETATM    6  C   UNL     1      -7.017   2.857 -31.690  1.00  0.00     0.050 A 
ENDROOT
BRANCH   5   7
HETATM    7  C   UNL     1      -5.434   4.834 -31.535  1.00  0.00     0.219 C 
HETATM    8  N   UNL     1      -4.306   5.318 -32.289  1.00  0.00    -0.332 N 
HETATM    9  C   UNL     1      -3.649   6.474 -31.960  1.00  0.00     0.256 C 
HETATM   10  H   UNL     1      -4.246   5.060 -33.264  1.00  0.00     0.165 HD
HETATM   11  O   UNL     1      -2.949   7.078 -32.765  1.00  0.00    -0.267 OA
HETATM   12  C   UNL     1      -3.813   6.907 -30.582  1.00  0.00     0.073 A 
HETATM   13  C   UNL     1      -4.562   6.133 -29.726  1.00  0.00     0.088 A 
HETATM   14  C   UNL     1      -3.266   8.051 -29.920  1.00  0.00    -0.023 A 
HETATM   15  S   UNL     1      -4.607   6.754 -28.146  1.00  0.00    -0.074 SA
HETATM   16  N   UNL     1      -5.171   4.993 -30.118  1.00  0.00    -0.358 N 
HETATM   17  C   UNL     1      -3.620   8.071 -28.582  1.00  0.00     0.018 A 
HETATM   18  C   UNL     1      -3.213   9.116 -27.604  1.00  0.00     0.281 C 
HETATM   19  N   UNL     1      -2.048   9.947 -28.132  1.00  0.00    -0.070 N 
HETATM   20  C   UNL     1      -2.253  10.331 -29.597  1.00  0.00     0.239 C 
HETATM   21  H   UNL     1      -2.057  10.822 -27.596  1.00  0.00     0.279 HD
HETATM   22  C   UNL     1      -0.715   9.307 -27.867  1.00  0.00     0.270 C 
HETATM   23  C   UNL     1      -2.374   9.101 -30.514  1.00  0.00     0.068 C 
HETATM   24  H   UNL     1      -5.846   4.542 -29.506  1.00  0.00     0.162 HD
ENDBRANCH   5   7
BRANCH   1  25
HETATM   25  O   UNL     1      -8.513   0.911 -31.859  1.00  0.00    -0.349 OA
BRANCH  25  26
HETATM   26  C   UNL     1      -9.566   1.426 -32.672  1.00  0.00     0.171 C 
HETATM   27  C   UNL     1     -10.454   0.266 -33.084  1.00  0.00     0.034 C 
ENDBRANCH  25  26
ENDBRANCH   1  25
BRANCH   2  28
HETATM   28  O   UNL     1      -6.456  -0.652 -32.685  1.00  0.00    -0.272 OA
BRANCH  28  29
HETATM   29  C   UNL     1      -6.355  -0.892 -34.038  1.00  0.00     0.300 C 
HETATM   30  O   UNL     1      -6.558  -0.123 -34.967  1.00  0.00    -0.259 OA
BRANCH  29  31
HETATM   31  C   UNL     1      -5.861  -2.267 -34.234  1.00  0.00     0.061 A 
HETATM   32  C   UNL     1      -4.567  -2.667 -33.879  1.00  0.00     0.050 A 
HETATM   33 CL   UNL     1      -3.424  -1.606 -33.136  1.00  0.00    -0.083 Cl
HETATM   34  C   UNL     1      -4.178  -3.996 -34.075  1.00  0.00     0.025 A 
HETATM   35  C   UNL     1      -5.076  -4.923 -34.608  1.00  0.00     0.002 A 
HETATM   36  C   UNL     1      -6.371  -4.529 -34.941  1.00  0.00     0.001 A 
HETATM   37  C   UNL     1      -6.767  -3.205 -34.751  1.00  0.00     0.019 A 
ENDBRANCH  29  31
ENDBRANCH  28  29
ENDBRANCH   2  28
TORSDOF 6
ENDMDL
MODEL 5
REMARK VINA RESULT:      -8.5      4.509     10.238
REMARK  6 active torsions:
REMARK  status: ('A' for Active; 'I' for Inactive)
REMARK    1  A    between atoms: C_2  and  O_3 
REMARK    2  A    between atoms: O_3  and  C_4 
REMARK    3  A    between atoms: C_5  and  O_6 
REMARK    4  A    between atoms: O_6  and  C_7 
REMARK    5  A    between atoms: C_7  and  C_8 
REMARK    6  A    between atoms: C_18  and  C_19 
ROOT
HETATM    1  C   UNL     1      -3.386   2.430 -31.799  1.00  0.00     0.103 A 
HETATM    2  C   UNL     1      -2.842   3.717 -31.733  1.00  0.00     0.112 A 
HETATM    3  C   UNL     1      -3.450   4.807 -32.356  1.00  0.00     0.041 A 
HETATM    4  C   UNL     1      -4.651   4.620 -33.033  1.00  0.00     0.014 A 
HETATM    5  C   UNL     1      -5.238   3.344 -33.106  1.00  0.00    -0.013 A 
HETATM    6  C   UNL     1      -4.591   2.254 -32.488  1.00  0.00     0.050 A 
ENDROOT
BRANCH   5   7
HETATM    7  C   UNL     1      -6.549   3.144 -33.835  1.00  0.00     0.219 C 
HETATM    8  N   UNL     1      -7.293   4.374 -33.914  1.00  0.00    -0.332 N 
HETATM    9  C   UNL     1      -8.628   4.402 -34.223  1.00  0.00     0.256 C 
HETATM   10  H   UNL     1      -6.788   5.216 -34.148  1.00  0.00     0.165 HD
HETATM   11  O   UNL     1      -9.180   5.414 -34.641  1.00  0.00    -0.267 OA
HETATM   12  C   UNL     1      -9.344   3.160 -33.982  1.00  0.00     0.073 A 
HETATM   13  C   UNL     1      -8.661   2.092 -33.447  1.00  0.00     0.088 A 
HETATM   14  C   UNL     1     -10.727   2.855 -34.189  1.00  0.00    -0.023 A 
HETATM   15  S   UNL     1      -9.656   0.741 -33.182  1.00  0.00    -0.074 SA
HETATM   16  N   UNL     1      -7.344   2.142 -33.153  1.00  0.00    -0.358 N 
HETATM   17  C   UNL     1     -11.020   1.566 -33.778  1.00  0.00     0.018 A 
HETATM   18  C   UNL     1     -12.366   0.932 -33.845  1.00  0.00     0.281 C 
HETATM   19  N   UNL     1     -13.461   1.975 -34.045  1.00  0.00    -0.070 N 
HETATM   20  C   UNL     1     -13.066   3.007 -35.100  1.00  0.00     0.239 C 
HETATM   21  H   UNL     1     -14.271   1.467 -34.420  1.00  0.00     0.279 HD
HETATM   22  C   UNL     1     -13.915   2.591 -32.752  1.00  0.00     0.270 C 
HETATM   23  C   UNL     1     -11.786   3.773 -34.720  1.00  0.00     0.068 C 
HETATM   24  H   UNL     1      -6.844   1.288 -32.918  1.00  0.00     0.162 HD
ENDBRANCH   5   7
BRANCH   1  25
HETATM   25  O   UNL     1      -2.671   1.438 -31.184  1.00  0.00    -0.349 OA
BRANCH  25  26
HETATM   26  C   UNL     1      -3.318   0.181 -30.996  1.00  0.00     0.171 C 
HETATM   27  C   UNL     1      -2.607  -0.848 -31.856  1.00  0.00     0.034 C 
ENDBRANCH  25  26
ENDBRANCH   1  25
BRANCH   2  28
HETATM   28  O   UNL     1      -1.630   3.940 -31.073  1.00  0.00    -0.272 OA
BRANCH  28  29
HETATM   29  C   UNL     1      -0.941   5.000 -31.621  1.00  0.00     0.300 C 
HETATM   30  O   UNL     1      -0.762   5.265 -32.801  1.00  0.00    -0.259 OA
BRANCH  29  31
HETATM   31  C   UNL     1      -0.484   5.877 -30.528  1.00  0.00     0.061 A 
HETATM   32  C   UNL     1      -0.846   7.226 -30.434  1.00  0.00     0.050 A 
HETATM   33 CL   UNL     1      -1.901   7.998 -31.564  1.00  0.00    -0.083 Cl
HETATM   34  C   UNL     1      -0.390   7.989 -29.355  1.00  0.00     0.025 A 
HETATM   35  C   UNL     1       0.410   7.409 -28.368  1.00  0.00     0.002 A 
HETATM   36  C   UNL     1       0.753   6.060 -28.451  1.00  0.00     0.001 A 
HETATM   37  C   UNL     1       0.304   5.291 -29.526  1.00  0.00     0.019 A 
ENDBRANCH  29  31
ENDBRANCH  28  29
ENDBRANCH   2  28
TORSDOF 6
ENDMDL
MODEL 6
REMARK VINA RESULT:      -8.5      1.864      2.689
REMARK  6 active torsions:
REMARK  status: ('A' for Active; 'I' for Inactive)
REMARK    1  A    between atoms: C_2  and  O_3 
REMARK    2  A    between atoms: O_3  and  C_4 
REMARK    3  A    between atoms: C_5  and  O_6 
REMARK    4  A    between atoms: O_6  and  C_7 
REMARK    5  A    between atoms: C_7  and  C_8 
REMARK    6  A    between atoms: C_18  and  C_19 
ROOT
HETATM    1  C   UNL     1      -3.377   3.477 -32.496  1.00  0.00     0.103 A 
HETATM    2  C   UNL     1      -4.392   4.143 -33.194  1.00  0.00     0.112 A 
HETATM    3  C   UNL     1      -4.515   5.532 -33.167  1.00  0.00     0.041 A 
HETATM    4  C   UNL     1      -3.584   6.283 -32.457  1.00  0.00     0.014 A 
HETATM    5  C   UNL     1      -2.540   5.652 -31.758  1.00  0.00    -0.013 A 
HETATM    6  C   UNL     1      -2.451   4.245 -31.782  1.00  0.00     0.050 A 
ENDROOT
BRANCH   5   7
HETATM    7  C   UNL     1      -1.523   6.471 -30.995  1.00  0.00     0.219 C 
HETATM    8  N   UNL     1      -0.822   5.664 -30.031  1.00  0.00    -0.332 N 
HETATM    9  C   UNL     1      -0.099   6.214 -29.004  1.00  0.00     0.256 C 
HETATM   10  H   UNL     1      -0.515   4.746 -30.319  1.00  0.00     0.165 HD
HETATM   11  O   UNL     1       0.772   5.587 -28.412  1.00  0.00    -0.267 OA
HETATM   12  C   UNL     1      -0.468   7.574 -28.649  1.00  0.00     0.073 A 
HETATM   13  C   UNL     1      -1.504   8.180 -29.322  1.00  0.00     0.088 A 
HETATM   14  C   UNL     1       0.075   8.425 -27.635  1.00  0.00    -0.023 A 
HETATM   15  S   UNL     1      -1.837   9.744 -28.747  1.00  0.00    -0.074 SA
HETATM   16  N   UNL     1      -2.183   7.569 -30.316  1.00  0.00    -0.358 N 
HETATM   17  C   UNL     1      -0.599   9.634 -27.584  1.00  0.00     0.018 A 
HETATM   18  C   UNL     1      -0.296  10.744 -26.639  1.00  0.00     0.281 C 
HETATM   19  N   UNL     1       0.569  10.263 -25.478  1.00  0.00    -0.070 N 
HETATM   20  C   UNL     1       1.703   9.360 -25.961  1.00  0.00     0.239 C 
HETATM   21  H   UNL     1       1.010  11.104 -25.087  1.00  0.00     0.279 HD
HETATM   22  C   UNL     1      -0.240   9.659 -24.367  1.00  0.00     0.270 C 
HETATM   23  C   UNL     1       1.185   8.102 -26.679  1.00  0.00     0.068 C 
HETATM   24  H   UNL     1      -2.825   8.105 -30.895  1.00  0.00     0.162 HD
ENDBRANCH   5   7
BRANCH   1  25
HETATM   25  O   UNL     1      -3.390   2.111 -32.567  1.00  0.00    -0.349 OA
BRANCH  25  26
HETATM   26  C   UNL     1      -3.270   1.388 -31.344  1.00  0.00     0.171 C 
HETATM   27  C   UNL     1      -3.171  -0.090 -31.677  1.00  0.00     0.034 C 
ENDBRANCH  25  26
ENDBRANCH   1  25
BRANCH   2  28
HETATM   28  O   UNL     1      -5.353   3.419 -33.906  1.00  0.00    -0.272 OA
BRANCH  28  29
HETATM   29  C   UNL     1      -6.352   2.954 -33.080  1.00  0.00     0.300 C 
HETATM   30  O   UNL     1      -6.976   3.560 -32.222  1.00  0.00    -0.259 OA
BRANCH  29  31
HETATM   31  C   UNL     1      -6.647   1.556 -33.443  1.00  0.00     0.061 A 
HETATM   32  C   UNL     1      -6.761   0.532 -32.494  1.00  0.00     0.050 A 
HETATM   33 CL   UNL     1      -6.611   0.804 -30.795  1.00  0.00    -0.083 Cl
HETATM   34  C   UNL     1      -7.064  -0.767 -32.914  1.00  0.00     0.025 A 
HETATM   35  C   UNL     1      -7.266  -1.042 -34.268  1.00  0.00     0.002 A 
HETATM   36  C   UNL     1      -7.174  -0.018 -35.210  1.00  0.00     0.001 A 
HETATM   37  C   UNL     1      -6.869   1.281 -34.801  1.00  0.00     0.019 A 
ENDBRANCH  29  31
ENDBRANCH  28  29
ENDBRANCH   2  28
TORSDOF 6
ENDMDL
MODEL 7
REMARK VINA RESULT:      -8.4      1.774      2.252
REMARK  6 active torsions:
REMARK  status: ('A' for Active; 'I' for Inactive)
REMARK    1  A    between atoms: C_2  and  O_3 
REMARK    2  A    between atoms: O_3  and  C_4 
REMARK    3  A    between atoms: C_5  and  O_6 
REMARK    4  A    between atoms: O_6  and  C_7 
REMARK    5  A    between atoms: C_7  and  C_8 
REMARK    6  A    between atoms: C_18  and  C_19 
ROOT
HETATM    1  C   UNL     1      -7.029   2.463 -31.349  1.00  0.00     0.103 A 
HETATM    2  C   UNL     1      -6.032   1.592 -31.801  1.00  0.00     0.112 A 
HETATM    3  C   UNL     1      -4.692   1.976 -31.865  1.00  0.00     0.041 A 
HETATM    4  C   UNL     1      -4.328   3.248 -31.436  1.00  0.00     0.014 A 
HETATM    5  C   UNL     1      -5.299   4.146 -30.959  1.00  0.00    -0.013 A 
HETATM    6  C   UNL     1      -6.651   3.742 -30.926  1.00  0.00     0.050 A 
ENDROOT
BRANCH   5   7
HETATM    7  C   UNL     1      -4.901   5.525 -30.484  1.00  0.00     0.219 C 
HETATM    8  N   UNL     1      -3.582   5.875 -30.946  1.00  0.00    -0.332 N 
HETATM    9  C   UNL     1      -2.864   6.905 -30.398  1.00  0.00     0.256 C 
HETATM   10  H   UNL     1      -3.345   5.658 -31.903  1.00  0.00     0.165 HD
HETATM   11  O   UNL     1      -1.932   7.438 -30.989  1.00  0.00    -0.267 OA
HETATM   12  C   UNL     1      -3.266   7.291 -29.055  1.00  0.00     0.073 A 
HETATM   13  C   UNL     1      -4.279   6.595 -28.437  1.00  0.00     0.088 A 
HETATM   14  C   UNL     1      -2.729   8.310 -28.206  1.00  0.00    -0.023 A 
HETATM   15  S   UNL     1      -4.585   7.140 -26.858  1.00  0.00    -0.074 SA
HETATM   16  N   UNL     1      -4.934   5.577 -29.035  1.00  0.00    -0.358 N 
HETATM   17  C   UNL     1      -3.360   8.318 -26.974  1.00  0.00     0.018 A 
HETATM   18  C   UNL     1      -3.041   9.245 -25.854  1.00  0.00     0.281 C 
HETATM   19  N   UNL     1      -1.689   9.920 -26.061  1.00  0.00    -0.070 N 
HETATM   20  C   UNL     1      -1.517  10.399 -27.502  1.00  0.00     0.239 C 
HETATM   21  H   UNL     1      -1.698  10.761 -25.472  1.00  0.00     0.279 HD
HETATM   22  C   UNL     1      -0.543   9.080 -25.573  1.00  0.00     0.270 C 
HETATM   23  C   UNL     1      -1.598   9.245 -28.516  1.00  0.00     0.068 C 
HETATM   24  H   UNL     1      -5.780   5.202 -28.614  1.00  0.00     0.162 HD
ENDBRANCH   5   7
BRANCH   1  25
HETATM   25  O   UNL     1      -8.310   1.982 -31.374  1.00  0.00    -0.349 OA
BRANCH  25  26
HETATM   26  C   UNL     1      -9.152   2.410 -32.443  1.00  0.00     0.171 C 
HETATM   27  C   UNL     1      -9.857   1.189 -33.006  1.00  0.00     0.034 C 
ENDBRANCH  25  26
ENDBRANCH   1  25
BRANCH   2  28
HETATM   28  O   UNL     1      -6.362   0.311 -32.253  1.00  0.00    -0.272 OA
BRANCH  28  29
HETATM   29  C   UNL     1      -6.310   0.229 -33.627  1.00  0.00     0.300 C 
HETATM   30  O   UNL     1      -6.449   1.121 -34.450  1.00  0.00    -0.259 OA
BRANCH  29  31
HETATM   31  C   UNL     1      -5.962  -1.154 -34.000  1.00  0.00     0.061 A 
HETATM   32  C   UNL     1      -4.659  -1.660 -33.914  1.00  0.00     0.050 A 
HETATM   33 CL   UNL     1      -3.327  -0.732 -33.322  1.00  0.00    -0.083 Cl
HETATM   34  C   UNL     1      -4.410  -2.990 -34.265  1.00  0.00     0.025 A 
HETATM   35  C   UNL     1      -5.455  -3.815 -34.687  1.00  0.00     0.002 A 
HETATM   36  C   UNL     1      -6.756  -3.318 -34.752  1.00  0.00     0.001 A 
HETATM   37  C   UNL     1      -7.013  -1.991 -34.405  1.00  0.00     0.019 A 
ENDBRANCH  29  31
ENDBRANCH  28  29
ENDBRANCH   2  28
TORSDOF 6
ENDMDL
MODEL 8
REMARK VINA RESULT:      -8.3      2.065      3.451
REMARK  6 active torsions:
REMARK  status: ('A' for Active; 'I' for Inactive)
REMARK    1  A    between atoms: C_2  and  O_3 
REMARK    2  A    between atoms: O_3  and  C_4 
REMARK    3  A    between atoms: C_5  and  O_6 
REMARK    4  A    between atoms: O_6  and  C_7 
REMARK    5  A    between atoms: C_7  and  C_8 
REMARK    6  A    between atoms: C_18  and  C_19 
ROOT
HETATM    1  C   UNL     1      -3.910   2.100 -32.265  1.00  0.00     0.103 A 
HETATM    2  C   UNL     1      -5.231   2.501 -32.494  1.00  0.00     0.112 A 
HETATM    3  C   UNL     1      -5.645   3.818 -32.298  1.00  0.00     0.041 A 
HETATM    4  C   UNL     1      -4.715   4.771 -31.898  1.00  0.00     0.014 A 
HETATM    5  C   UNL     1      -3.373   4.411 -31.675  1.00  0.00    -0.013 A 
HETATM    6  C   UNL     1      -2.985   3.067 -31.857  1.00  0.00     0.050 A 
ENDROOT
BRANCH   5   7
HETATM    7  C   UNL     1      -2.361   5.450 -31.249  1.00  0.00     0.219 C 
HETATM    8  N   UNL     1      -1.230   4.839 -30.599  1.00  0.00    -0.332 N 
HETATM    9  C   UNL     1      -0.346   5.560 -29.840  1.00  0.00     0.256 C 
HETATM   10  H   UNL     1      -0.847   4.000 -31.009  1.00  0.00     0.165 HD
HETATM   11  O   UNL     1       0.783   5.152 -29.589  1.00  0.00    -0.267 OA
HETATM   12  C   UNL     1      -0.857   6.821 -29.328  1.00  0.00     0.073 A 
HETATM   13  C   UNL     1      -2.158   7.172 -29.602  1.00  0.00     0.088 A 
HETATM   14  C   UNL     1      -0.205   7.798 -28.510  1.00  0.00    -0.023 A 
HETATM   15  S   UNL     1      -2.608   8.645 -28.886  1.00  0.00    -0.074 SA
HETATM   16  N   UNL     1      -2.979   6.402 -30.347  1.00  0.00    -0.358 N 
HETATM   17  C   UNL     1      -1.064   8.836 -28.193  1.00  0.00     0.018 A 
HETATM   18  C   UNL     1      -0.711  10.013 -27.352  1.00  0.00     0.281 C 
HETATM   19  N   UNL     1       0.565   9.763 -26.555  1.00  0.00    -0.070 N 
HETATM   20  C   UNL     1       1.643   9.107 -27.417  1.00  0.00     0.239 C 
HETATM   21  H   UNL     1       0.922  10.689 -26.293  1.00  0.00     0.279 HD
HETATM   22  C   UNL     1       0.309   9.033 -25.267  1.00  0.00     0.270 C 
HETATM   23  C   UNL     1       1.197   7.747 -27.981  1.00  0.00     0.068 C 
HETATM   24  H   UNL     1      -3.872   6.771 -30.664  1.00  0.00     0.162 HD
ENDBRANCH   5   7
BRANCH   1  25
HETATM   25  O   UNL     1      -3.640   0.771 -32.452  1.00  0.00    -0.349 OA
BRANCH  25  26
HETATM   26  C   UNL     1      -3.326  -0.005 -31.297  1.00  0.00     0.171 C 
HETATM   27  C   UNL     1      -2.409  -1.137 -31.725  1.00  0.00     0.034 C 
ENDBRANCH  25  26
ENDBRANCH   1  25
BRANCH   2  28
HETATM   28  O   UNL     1      -6.196   1.568 -32.883  1.00  0.00    -0.272 OA
BRANCH  28  29
HETATM   29  C   UNL     1      -7.065   1.278 -31.854  1.00  0.00     0.300 C 
HETATM   30  O   UNL     1      -6.806   0.939 -30.709  1.00  0.00    -0.259 OA
BRANCH  29  31
HETATM   31  C   UNL     1      -8.442   1.521 -32.322  1.00  0.00     0.061 A 
HETATM   32  C   UNL     1      -9.234   2.570 -31.838  1.00  0.00     0.050 A 
HETATM   33 CL   UNL     1      -8.671   3.716 -30.674  1.00  0.00    -0.083 Cl
HETATM   34  C   UNL     1     -10.525   2.751 -32.346  1.00  0.00     0.025 A 
HETATM   35  C   UNL     1     -11.017   1.901 -33.340  1.00  0.00     0.002 A 
HETATM   36  C   UNL     1     -10.220   0.871 -33.836  1.00  0.00     0.001 A 
HETATM   37  C   UNL     1      -8.932   0.681 -33.333  1.00  0.00     0.019 A 
ENDBRANCH  29  31
ENDBRANCH  28  29
ENDBRANCH   2  28
TORSDOF 6
ENDMDL
MODEL 9
REMARK VINA RESULT:      -8.2     18.831     20.151
REMARK  6 active torsions:
REMARK  status: ('A' for Active; 'I' for Inactive)
REMARK    1  A    between atoms: C_2  and  O_3 
REMARK    2  A    between atoms: O_3  and  C_4 
REMARK    3  A    between atoms: C_5  and  O_6 
REMARK    4  A    between atoms: O_6  and  C_7 
REMARK    5  A    between atoms: C_7  and  C_8 
REMARK    6  A    between atoms: C_18  and  C_19 
ROOT
HETATM    1  C   UNL     1      -4.629 -13.363 -36.524  1.00  0.00     0.103 A 
HETATM    2  C   UNL     1      -5.966 -13.462 -36.922  1.00  0.00     0.112 A 
HETATM    3  C   UNL     1      -6.864 -14.316 -36.281  1.00  0.00     0.041 A 
HETATM    4  C   UNL     1      -6.431 -15.065 -35.192  1.00  0.00     0.014 A 
HETATM    5  C   UNL     1      -5.098 -14.979 -34.750  1.00  0.00    -0.013 A 
HETATM    6  C   UNL     1      -4.204 -14.126 -35.431  1.00  0.00     0.050 A 
ENDROOT
BRANCH   5   7
HETATM    7  C   UNL     1      -4.631 -15.786 -33.560  1.00  0.00     0.219 C 
HETATM    8  N   UNL     1      -5.128 -15.233 -32.327  1.00  0.00    -0.332 N 
HETATM    9  C   UNL     1      -4.597 -15.567 -31.109  1.00  0.00     0.256 C 
HETATM   10  H   UNL     1      -6.092 -14.933 -32.300  1.00  0.00     0.165 HD
HETATM   11  O   UNL     1      -5.213 -15.402 -30.062  1.00  0.00    -0.267 OA
HETATM   12  C   UNL     1      -3.243 -16.094 -31.149  1.00  0.00     0.073 A 
HETATM   13  C   UNL     1      -2.600 -16.183 -32.362  1.00  0.00     0.088 A 
HETATM   14  C   UNL     1      -2.407 -16.528 -30.072  1.00  0.00    -0.023 A 
HETATM   15  S   UNL     1      -1.011 -16.769 -32.223  1.00  0.00    -0.074 SA
HETATM   16  N   UNL     1      -3.182 -15.820 -33.525  1.00  0.00    -0.358 N 
HETATM   17  C   UNL     1      -1.158 -16.910 -30.533  1.00  0.00     0.018 A 
HETATM   18  C   UNL     1      -0.045 -17.404 -29.677  1.00  0.00     0.281 C 
HETATM   19  N   UNL     1      -0.287 -17.078 -28.207  1.00  0.00    -0.070 N 
HETATM   20  C   UNL     1      -1.731 -17.367 -27.800  1.00  0.00     0.239 C 
HETATM   21  H   UNL     1       0.304 -17.724 -27.671  1.00  0.00     0.279 HD
HETATM   22  C   UNL     1       0.167 -15.693 -27.841  1.00  0.00     0.270 C 
HETATM   23  C   UNL     1      -2.746 -16.544 -28.612  1.00  0.00     0.068 C 
HETATM   24  H   UNL     1      -2.739 -16.055 -34.409  1.00  0.00     0.162 HD
ENDBRANCH   5   7
BRANCH   1  25
HETATM   25  O   UNL     1      -3.839 -12.522 -37.260  1.00  0.00    -0.349 OA
BRANCH  25  26
HETATM   26  C   UNL     1      -2.916 -13.117 -38.171  1.00  0.00     0.171 C 
HETATM   27  C   UNL     1      -1.679 -12.239 -38.228  1.00  0.00     0.034 C 
ENDBRANCH  25  26
ENDBRANCH   1  25
BRANCH   2  28
HETATM   28  O   UNL     1      -6.434 -12.735 -38.020  1.00  0.00    -0.272 OA
BRANCH  28  29
HETATM   29  C   UNL     1      -6.665 -13.550 -39.107  1.00  0.00     0.300 C 
HETATM   30  O   UNL     1      -5.900 -14.334 -39.649  1.00  0.00    -0.259 OA
BRANCH  29  31
HETATM   31  C   UNL     1      -8.075 -13.402 -39.511  1.00  0.00     0.061 A 
HETATM   32  C   UNL     1      -9.003 -14.447 -39.424  1.00  0.00     0.050 A 
HETATM   33 CL   UNL     1      -8.608 -16.008 -38.797  1.00  0.00    -0.083 Cl
HETATM   34  C   UNL     1     -10.330 -14.225 -39.806  1.00  0.00     0.025 A 
HETATM   35  C   UNL     1     -10.732 -12.966 -40.258  1.00  0.00     0.002 A 
HETATM   36  C   UNL     1      -9.813 -11.921 -40.323  1.00  0.00     0.001 A 
HETATM   37  C   UNL     1      -8.486 -12.134 -39.946  1.00  0.00     0.019 A 
ENDBRANCH  29  31
ENDBRANCH  28  29
ENDBRANCH   2  28
TORSDOF 6
ENDMDL
MODEL 10
REMARK VINA RESULT:      -8.2      3.790      9.923
REMARK  6 active torsions:
REMARK  status: ('A' for Active; 'I' for Inactive)
REMARK    1  A    between atoms: C_2  and  O_3 
REMARK    2  A    between atoms: O_3  and  C_4 
REMARK    3  A    between atoms: C_5  and  O_6 
REMARK    4  A    between atoms: O_6  and  C_7 
REMARK    5  A    between atoms: C_7  and  C_8 
REMARK    6  A    between atoms: C_18  and  C_19 
ROOT
HETATM    1  C   UNL     1      -1.345   7.751 -30.005  1.00  0.00     0.103 A 
HETATM    2  C   UNL     1      -0.137   7.349 -29.424  1.00  0.00     0.112 A 
HETATM    3  C   UNL     1       0.379   6.067 -29.610  1.00  0.00     0.041 A 
HETATM    4  C   UNL     1      -0.305   5.170 -30.424  1.00  0.00     0.014 A 
HETATM    5  C   UNL     1      -1.513   5.542 -31.040  1.00  0.00    -0.013 A 
HETATM    6  C   UNL     1      -2.027   6.837 -30.817  1.00  0.00     0.050 A 
ENDROOT
BRANCH   5   7
HETATM    7  C   UNL     1      -2.251   4.569 -31.932  1.00  0.00     0.219 C 
HETATM    8  N   UNL     1      -3.368   5.204 -32.583  1.00  0.00    -0.332 N 
HETATM    9  C   UNL     1      -4.374   4.485 -33.173  1.00  0.00     0.256 C 
HETATM   10  H   UNL     1      -3.227   6.127 -32.967  1.00  0.00     0.165 HD
HETATM   11  O   UNL     1      -5.116   4.974 -34.018  1.00  0.00    -0.267 OA
HETATM   12  C   UNL     1      -4.520   3.120 -32.697  1.00  0.00     0.073 A 
HETATM   13  C   UNL     1      -3.688   2.672 -31.696  1.00  0.00     0.088 A 
HETATM   14  C   UNL     1      -5.460   2.117 -33.093  1.00  0.00    -0.023 A 
HETATM   15  S   UNL     1      -4.027   1.076 -31.223  1.00  0.00    -0.074 SA
HETATM   16  N   UNL     1      -2.724   3.444 -31.150  1.00  0.00    -0.358 N 
HETATM   17  C   UNL     1      -5.298   0.959 -32.351  1.00  0.00     0.018 A 
HETATM   18  C   UNL     1      -6.116  -0.275 -32.500  1.00  0.00     0.281 C 
HETATM   19  N   UNL     1      -7.399  -0.000 -33.277  1.00  0.00    -0.070 N 
HETATM   20  C   UNL     1      -7.136   0.877 -34.500  1.00  0.00     0.239 C 
HETATM   21  H   UNL     1      -7.717  -0.910 -33.631  1.00  0.00     0.279 HD
HETATM   22  C   UNL     1      -8.504   0.518 -32.401  1.00  0.00     0.270 C 
HETATM   23  C   UNL     1      -6.542   2.245 -34.123  1.00  0.00     0.068 C 
HETATM   24  H   UNL     1      -2.028   3.028 -30.537  1.00  0.00     0.162 HD
ENDBRANCH   5   7
BRANCH   1  25
HETATM   25  O   UNL     1      -1.766   9.020 -29.711  1.00  0.00    -0.349 OA
BRANCH  25  26
HETATM   26  C   UNL     1      -2.996   9.157 -29.003  1.00  0.00     0.171 C 
HETATM   27  C   UNL     1      -3.132  10.606 -28.571  1.00  0.00     0.034 C 
ENDBRANCH  25  26
ENDBRANCH   1  25
BRANCH   2  28
HETATM   28  O   UNL     1       0.570   8.219 -28.589  1.00  0.00    -0.272 OA
BRANCH  28  29
HETATM   29  C   UNL     1       0.746   7.685 -27.332  1.00  0.00     0.300 C 
HETATM   30  O   UNL     1       1.734   7.135 -26.867  1.00  0.00    -0.259 OA
BRANCH  29  31
HETATM   31  C   UNL     1      -0.468   7.949 -26.537  1.00  0.00     0.061 A 
HETATM   32  C   UNL     1      -0.771   9.210 -26.009  1.00  0.00     0.050 A 
HETATM   33 CL   UNL     1       0.222  10.601 -26.266  1.00  0.00    -0.083 Cl
HETATM   34  C   UNL     1      -1.953   9.389 -25.284  1.00  0.00     0.025 A 
HETATM   35  C   UNL     1      -2.834   8.322 -25.098  1.00  0.00     0.002 A 
HETATM   36  C   UNL     1      -2.543   7.072 -25.642  1.00  0.00     0.001 A 
HETATM   37  C   UNL     1      -1.365   6.884 -26.366  1.00  0.00     0.019 A 
ENDBRANCH  29  31
ENDBRANCH  28  29
ENDBRANCH   2  28
TORSDOF 6
ENDMDL
