MODEL 1
REMARK VINA RESULT:     -10.2      0.000      0.000
REMARK  7 active torsions:
REMARK  status: ('A' for Active; 'I' for Inactive)
REMARK    1  A    between atoms: C_4  and  C_5 
REMARK    2  A    between atoms: C_5  and  N_6 
REMARK    3  A    between atoms: N_6  and  C_7 
REMARK    4  A    between atoms: C_11  and  N_12 
REMARK       I    between atoms: N_12  and  C_13 
REMARK    5  A    between atoms: C_13  and  C_14 
REMARK    6  A    between atoms: C_17  and  C_18 
REMARK    7  A    between atoms: C_18  and  C_19 
ROOT
HETATM    1  N   UNL     1      -2.961   3.868 -31.055  1.00  0.00    -0.323 N 
HETATM    2  C   UNL     1      -1.993   4.602 -31.719  1.00  0.00     0.256 C 
HETATM    3  O   UNL     1      -1.682   4.479 -32.899  1.00  0.00    -0.267 OA
HETATM    4  H   UNL     1      -3.114   4.069 -30.078  1.00  0.00     0.169 HD
ENDROOT
BRANCH   1   5
HETATM    5  C   UNL     1      -3.702   2.775 -31.557  1.00  0.00     0.036 A 
HETATM    6  C   UNL     1      -3.370   1.437 -31.351  1.00  0.00     0.055 A 
HETATM    7  C   UNL     1      -4.219   0.423 -31.814  1.00  0.00     0.057 A 
HETATM    8  C   UNL     1      -5.425   0.716 -32.483  1.00  0.00     0.030 A 
HETATM    9 CL   UNL     1      -3.783  -1.222 -31.481  1.00  0.00    -0.082 Cl
HETATM   10  C   UNL     1      -5.702   2.061 -32.749  1.00  0.00     0.027 A 
HETATM   11  C   UNL     1      -4.864   3.077 -32.277  1.00  0.00     0.031 A 
BRANCH   8  12
HETATM   12  N   UNL     1      -6.272  -0.314 -32.938  1.00  0.00    -0.287 NA
HETATM   13  H   UNL     1      -7.237  -0.130 -32.656  1.00  0.00     0.128 HD
BRANCH  12  14
HETATM   14  C   UNL     1      -6.162  -0.689 -34.344  1.00  0.00     0.131 C 
BRANCH  14  15
HETATM   15  C   UNL     1      -5.877  -2.166 -34.470  1.00  0.00    -0.045 A 
HETATM   16  C   UNL     1      -4.575  -2.650 -34.264  1.00  0.00     0.008 A 
HETATM   17  C   UNL     1      -4.301  -4.014 -34.361  1.00  0.00     0.001 A 
HETATM   18  C   UNL     1      -5.324  -4.909 -34.668  1.00  0.00     0.000 A 
HETATM   19  C   UNL     1      -6.618  -4.439 -34.888  1.00  0.00     0.001 A 
HETATM   20  C   UNL     1      -6.894  -3.073 -34.795  1.00  0.00     0.008 A 
ENDBRANCH  14  15
ENDBRANCH  12  14
ENDBRANCH   8  12
ENDBRANCH   1   5
BRANCH   2  21
HETATM   21  C   UNL     1      -1.242   5.600 -30.889  1.00  0.00     0.032 A 
HETATM   22  C   UNL     1      -1.709   6.893 -30.626  1.00  0.00     0.017 A 
HETATM   23  C   UNL     1      -0.984   7.749 -29.788  1.00  0.00     0.008 A 
HETATM   24  C   UNL     1       0.224   7.335 -29.212  1.00  0.00    -0.057 A 
HETATM   25  C   UNL     1       0.716   6.062 -29.522  1.00  0.00     0.008 A 
HETATM   26  C   UNL     1      -0.012   5.202 -30.348  1.00  0.00     0.017 A 
BRANCH  24  27
HETATM   27  C   UNL     1       0.984   8.243 -28.269  1.00  0.00     0.053 C 
BRANCH  27  28
HETATM   28  C   UNL     1       0.896   7.883 -26.779  1.00  0.00     0.091 C 
HETATM   29  C   UNL     1      -0.236   8.604 -26.093  1.00  0.00     0.229 C 
HETATM   30  O   UNL     1      -1.421   8.487 -26.362  1.00  0.00    -0.273 OA
HETATM   31  N   UNL     1       0.276   9.439 -25.155  1.00  0.00    -0.297 N 
HETATM   32  C   UNL     1       1.625   9.369 -25.055  1.00  0.00     0.225 C 
HETATM   33  H   UNL     1      -0.286  10.081 -24.619  1.00  0.00     0.171 HD
HETATM   34  O   UNL     1       2.322  10.057 -24.330  1.00  0.00    -0.273 OA
HETATM   35  C   UNL     1       2.119   8.262 -25.943  1.00  0.00     0.117 C 
ENDBRANCH  27  28
ENDBRANCH  24  27
ENDBRANCH   2  21
TORSDOF 7
ENDMDL
MODEL 2
REMARK VINA RESULT:      -9.8      3.452     11.996
REMARK  7 active torsions:
REMARK  status: ('A' for Active; 'I' for Inactive)
REMARK    1  A    between atoms: C_4  and  C_5 
REMARK    2  A    between atoms: C_5  and  N_6 
REMARK    3  A    between atoms: N_6  and  C_7 
REMARK    4  A    between atoms: C_11  and  N_12 
REMARK       I    between atoms: N_12  and  C_13 
REMARK    5  A    between atoms: C_13  and  C_14 
REMARK    6  A    between atoms: C_17  and  C_18 
REMARK    7  A    between atoms: C_18  and  C_19 
ROOT
HETATM    1  N   UNL     1      -4.064   3.438 -32.067  1.00  0.00    -0.323 N 
HETATM    2  C   UNL     1      -4.911   2.589 -31.374  1.00  0.00     0.256 C 
HETATM    3  O   UNL     1      -5.215   2.688 -30.190  1.00  0.00    -0.267 OA
HETATM    4  H   UNL     1      -3.896   3.238 -33.042  1.00  0.00     0.169 HD
ENDROOT
BRANCH   1   5
HETATM    5  C   UNL     1      -3.303   4.506 -31.542  1.00  0.00     0.036 A 
HETATM    6  C   UNL     1      -1.913   4.512 -31.448  1.00  0.00     0.055 A 
HETATM    7  C   UNL     1      -1.245   5.657 -30.995  1.00  0.00     0.057 A 
HETATM    8  C   UNL     1      -1.943   6.828 -30.636  1.00  0.00     0.030 A 
HETATM    9 CL   UNL     1       0.488   5.628 -30.953  1.00  0.00    -0.082 Cl
HETATM   10  C   UNL     1      -3.341   6.776 -30.661  1.00  0.00     0.027 A 
HETATM   11  C   UNL     1      -4.011   5.639 -31.126  1.00  0.00     0.031 A 
BRANCH   8  12
HETATM   12  N   UNL     1      -1.257   7.975 -30.187  1.00  0.00    -0.287 NA
HETATM   13  H   UNL     1      -1.294   8.710 -30.896  1.00  0.00     0.128 HD
BRANCH  12  14
HETATM   14  C   UNL     1      -1.590   8.466 -28.854  1.00  0.00     0.131 C 
BRANCH  14  15
HETATM   15  C   UNL     1      -0.360   8.477 -27.979  1.00  0.00    -0.045 A 
HETATM   16  C   UNL     1       0.056   9.671 -27.368  1.00  0.00     0.008 A 
HETATM   17  C   UNL     1       1.181   9.691 -26.543  1.00  0.00     0.001 A 
HETATM   18  C   UNL     1       1.904   8.520 -26.324  1.00  0.00     0.000 A 
HETATM   19  C   UNL     1       1.508   7.332 -26.936  1.00  0.00     0.001 A 
HETATM   20  C   UNL     1       0.385   7.309 -27.764  1.00  0.00     0.008 A 
ENDBRANCH  14  15
ENDBRANCH  12  14
ENDBRANCH   8  12
ENDBRANCH   1   5
BRANCH   2  21
HETATM   21  C   UNL     1      -5.460   1.431 -32.152  1.00  0.00     0.032 A 
HETATM   22  C   UNL     1      -5.887   1.525 -33.481  1.00  0.00     0.017 A 
HETATM   23  C   UNL     1      -6.327   0.386 -34.165  1.00  0.00     0.008 A 
HETATM   24  C   UNL     1      -6.363  -0.863 -33.530  1.00  0.00    -0.057 A 
HETATM   25  C   UNL     1      -5.988  -0.943 -32.184  1.00  0.00     0.008 A 
HETATM   26  C   UNL     1      -5.537   0.190 -31.504  1.00  0.00     0.017 A 
BRANCH  24  27
HETATM   27  C   UNL     1      -6.794  -2.103 -34.282  1.00  0.00     0.053 C 
BRANCH  27  28
HETATM   28  C   UNL     1      -5.680  -2.857 -35.022  1.00  0.00     0.091 C 
HETATM   29  C   UNL     1      -5.949  -4.340 -35.082  1.00  0.00     0.229 C 
HETATM   30  O   UNL     1      -6.901  -4.868 -35.634  1.00  0.00    -0.273 OA
HETATM   31  N   UNL     1      -4.985  -4.992 -34.386  1.00  0.00    -0.297 N 
HETATM   32  C   UNL     1      -4.040  -4.166 -33.877  1.00  0.00     0.225 C 
HETATM   33  H   UNL     1      -4.997  -5.986 -34.224  1.00  0.00     0.171 HD
HETATM   34  O   UNL     1      -3.106  -4.503 -33.170  1.00  0.00    -0.273 OA
HETATM   35  C   UNL     1      -4.296  -2.772 -34.376  1.00  0.00     0.117 C 
ENDBRANCH  27  28
ENDBRANCH  24  27
ENDBRANCH   2  21
TORSDOF 7
ENDMDL
MODEL 3
REMARK VINA RESULT:      -9.2      4.500      5.831
REMARK  7 active torsions:
REMARK  status: ('A' for Active; 'I' for Inactive)
REMARK    1  A    between atoms: C_4  and  C_5 
REMARK    2  A    between atoms: C_5  and  N_6 
REMARK    3  A    between atoms: N_6  and  C_7 
REMARK    4  A    between atoms: C_11  and  N_12 
REMARK       I    between atoms: N_12  and  C_13 
REMARK    5  A    between atoms: C_13  and  C_14 
REMARK    6  A    between atoms: C_17  and  C_18 
REMARK    7  A    between atoms: C_18  and  C_19 
ROOT
HETATM    1  N   UNL     1      -5.268   4.768 -33.137  1.00  0.00    -0.323 N 
HETATM    2  C   UNL     1      -4.243   5.098 -34.007  1.00  0.00     0.256 C 
HETATM    3  O   UNL     1      -4.285   5.016 -35.230  1.00  0.00    -0.267 OA
HETATM    4  H   UNL     1      -5.098   4.880 -32.148  1.00  0.00     0.169 HD
ENDROOT
BRANCH   1   5
HETATM    5  C   UNL     1      -6.510   4.177 -33.460  1.00  0.00     0.036 A 
HETATM    6  C   UNL     1      -7.672   4.892 -33.746  1.00  0.00     0.055 A 
HETATM    7  C   UNL     1      -8.833   4.216 -34.144  1.00  0.00     0.057 A 
HETATM    8  C   UNL     1      -8.862   2.813 -34.279  1.00  0.00     0.030 A 
HETATM    9 CL   UNL     1     -10.232   5.159 -34.541  1.00  0.00    -0.082 Cl
HETATM   10  C   UNL     1      -7.711   2.107 -33.912  1.00  0.00     0.027 A 
HETATM   11  C   UNL     1      -6.546   2.779 -33.527  1.00  0.00     0.031 A 
BRANCH   8  12
HETATM   12  N   UNL     1     -10.035   2.146 -34.686  1.00  0.00    -0.287 NA
HETATM   13  H   UNL     1      -9.943   1.823 -35.651  1.00  0.00     0.128 HD
BRANCH  12  14
HETATM   14  C   UNL     1     -10.551   1.111 -33.796  1.00  0.00     0.131 C 
BRANCH  14  15
HETATM   15  C   UNL     1     -12.041   1.273 -33.614  1.00  0.00    -0.045 A 
HETATM   16  C   UNL     1     -12.906   0.209 -33.918  1.00  0.00     0.008 A 
HETATM   17  C   UNL     1     -14.283   0.340 -33.738  1.00  0.00     0.001 A 
HETATM   18  C   UNL     1     -14.810   1.537 -33.257  1.00  0.00     0.000 A 
HETATM   19  C   UNL     1     -13.963   2.605 -32.964  1.00  0.00     0.001 A 
HETATM   20  C   UNL     1     -12.585   2.477 -33.147  1.00  0.00     0.008 A 
ENDBRANCH  14  15
ENDBRANCH  12  14
ENDBRANCH   8  12
ENDBRANCH   1   5
BRANCH   2  21
HETATM   21  C   UNL     1      -2.964   5.555 -33.371  1.00  0.00     0.032 A 
HETATM   22  C   UNL     1      -2.406   6.821 -33.581  1.00  0.00     0.017 A 
HETATM   23  C   UNL     1      -1.242   7.202 -32.902  1.00  0.00     0.008 A 
HETATM   24  C   UNL     1      -0.609   6.322 -32.015  1.00  0.00    -0.057 A 
HETATM   25  C   UNL     1      -1.138   5.037 -31.850  1.00  0.00     0.008 A 
HETATM   26  C   UNL     1      -2.307   4.659 -32.517  1.00  0.00     0.017 A 
BRANCH  24  27
HETATM   27  C   UNL     1       0.622   6.749 -31.246  1.00  0.00     0.053 C 
BRANCH  27  28
HETATM   28  C   UNL     1       0.375   7.250 -29.815  1.00  0.00     0.091 C 
HETATM   29  C   UNL     1       0.219   6.111 -28.840  1.00  0.00     0.229 C 
HETATM   30  O   UNL     1       1.071   5.277 -28.578  1.00  0.00    -0.273 OA
HETATM   31  N   UNL     1      -1.037   6.137 -28.330  1.00  0.00    -0.297 N 
HETATM   32  C   UNL     1      -1.779   7.175 -28.784  1.00  0.00     0.225 C 
HETATM   33  H   UNL     1      -1.398   5.427 -27.712  1.00  0.00     0.171 HD
HETATM   34  O   UNL     1      -2.950   7.382 -28.519  1.00  0.00    -0.273 OA
HETATM   35  C   UNL     1      -0.905   8.064 -29.621  1.00  0.00     0.117 C 
ENDBRANCH  27  28
ENDBRANCH  24  27
ENDBRANCH   2  21
TORSDOF 7
ENDMDL
MODEL 4
REMARK VINA RESULT:      -9.0      1.532      2.039
REMARK  7 active torsions:
REMARK  status: ('A' for Active; 'I' for Inactive)
REMARK    1  A    between atoms: C_4  and  C_5 
REMARK    2  A    between atoms: C_5  and  N_6 
REMARK    3  A    between atoms: N_6  and  C_7 
REMARK    4  A    between atoms: C_11  and  N_12 
REMARK       I    between atoms: N_12  and  C_13 
REMARK    5  A    between atoms: C_13  and  C_14 
REMARK    6  A    between atoms: C_17  and  C_18 
REMARK    7  A    between atoms: C_18  and  C_19 
ROOT
HETATM    1  N   UNL     1      -4.021   4.307 -30.717  1.00  0.00    -0.323 N 
HETATM    2  C   UNL     1      -3.471   5.375 -31.405  1.00  0.00     0.256 C 
HETATM    3  O   UNL     1      -3.363   5.465 -32.623  1.00  0.00    -0.267 OA
HETATM    4  H   UNL     1      -4.044   4.360 -29.709  1.00  0.00     0.169 HD
ENDROOT
BRANCH   1   5
HETATM    5  C   UNL     1      -4.465   3.078 -31.254  1.00  0.00     0.036 A 
HETATM    6  C   UNL     1      -3.758   1.881 -31.173  1.00  0.00     0.055 A 
HETATM    7  C   UNL     1      -4.324   0.695 -31.659  1.00  0.00     0.057 A 
HETATM    8  C   UNL     1      -5.614   0.671 -32.227  1.00  0.00     0.030 A 
HETATM    9 CL   UNL     1      -3.422  -0.775 -31.481  1.00  0.00    -0.082 Cl
HETATM   10  C   UNL     1      -6.277   1.894 -32.371  1.00  0.00     0.027 A 
HETATM   11  C   UNL     1      -5.720   3.078 -31.875  1.00  0.00     0.031 A 
BRANCH   8  12
HETATM   12  N   UNL     1      -6.175  -0.530 -32.707  1.00  0.00    -0.287 NA
HETATM   13  H   UNL     1      -7.148  -0.612 -32.408  1.00  0.00     0.128 HD
BRANCH  12  14
HETATM   14  C   UNL     1      -5.999  -0.822 -34.126  1.00  0.00     0.131 C 
BRANCH  14  15
HETATM   15  C   UNL     1      -5.729  -2.294 -34.326  1.00  0.00    -0.045 A 
HETATM   16  C   UNL     1      -4.447  -2.813 -34.080  1.00  0.00     0.008 A 
HETATM   17  C   UNL     1      -4.188  -4.173 -34.246  1.00  0.00     0.001 A 
HETATM   18  C   UNL     1      -5.205  -5.029 -34.663  1.00  0.00     0.000 A 
HETATM   19  C   UNL     1      -6.478  -4.524 -34.923  1.00  0.00     0.001 A 
HETATM   20  C   UNL     1      -6.739  -3.162 -34.762  1.00  0.00     0.008 A 
ENDBRANCH  14  15
ENDBRANCH  12  14
ENDBRANCH   8  12
ENDBRANCH   1   5
BRANCH   2  21
HETATM   21  C   UNL     1      -2.926   6.489 -30.561  1.00  0.00     0.032 A 
HETATM   22  C   UNL     1      -3.631   7.071 -29.502  1.00  0.00     0.017 A 
HETATM   23  C   UNL     1      -3.033   8.064 -28.716  1.00  0.00     0.008 A 
HETATM   24  C   UNL     1      -1.729   8.501 -28.983  1.00  0.00    -0.057 A 
HETATM   25  C   UNL     1      -1.048   7.956 -30.077  1.00  0.00     0.008 A 
HETATM   26  C   UNL     1      -1.638   6.957 -30.855  1.00  0.00     0.017 A 
BRANCH  24  27
HETATM   27  C   UNL     1      -1.066   9.540 -28.105  1.00  0.00     0.053 C 
BRANCH  27  28
HETATM   28  C   UNL     1      -0.295   8.997 -26.893  1.00  0.00     0.091 C 
HETATM   29  C   UNL     1       0.971   8.288 -27.303  1.00  0.00     0.229 C 
HETATM   30  O   UNL     1       1.915   8.798 -27.884  1.00  0.00    -0.273 OA
HETATM   31  N   UNL     1       0.874   6.980 -26.960  1.00  0.00    -0.297 N 
HETATM   32  C   UNL     1      -0.280   6.678 -26.318  1.00  0.00     0.225 C 
HETATM   33  H   UNL     1       1.570   6.292 -27.201  1.00  0.00     0.171 HD
HETATM   34  O   UNL     1      -0.624   5.565 -25.960  1.00  0.00    -0.273 OA
HETATM   35  C   UNL     1      -1.039   7.948 -26.064  1.00  0.00     0.117 C 
ENDBRANCH  27  28
ENDBRANCH  24  27
ENDBRANCH   2  21
TORSDOF 7
ENDMDL
MODEL 5
REMARK VINA RESULT:      -8.7      3.585     11.872
REMARK  7 active torsions:
REMARK  status: ('A' for Active; 'I' for Inactive)
REMARK    1  A    between atoms: C_4  and  C_5 
REMARK    2  A    between atoms: C_5  and  N_6 
REMARK    3  A    between atoms: N_6  and  C_7 
REMARK    4  A    between atoms: C_11  and  N_12 
REMARK       I    between atoms: N_12  and  C_13 
REMARK    5  A    between atoms: C_13  and  C_14 
REMARK    6  A    between atoms: C_17  and  C_18 
REMARK    7  A    between atoms: C_18  and  C_19 
ROOT
HETATM    1  N   UNL     1      -3.402   4.787 -30.980  1.00  0.00    -0.323 N 
HETATM    2  C   UNL     1      -3.889   4.382 -32.212  1.00  0.00     0.256 C 
HETATM    3  O   UNL     1      -4.068   5.104 -33.186  1.00  0.00    -0.267 OA
HETATM    4  H   UNL     1      -3.306   4.086 -30.261  1.00  0.00     0.169 HD
ENDROOT
BRANCH   1   5
HETATM    5  C   UNL     1      -3.118   6.106 -30.563  1.00  0.00     0.036 A 
HETATM    6  C   UNL     1      -4.031   6.945 -29.927  1.00  0.00     0.055 A 
HETATM    7  C   UNL     1      -3.626   8.206 -29.471  1.00  0.00     0.057 A 
HETATM    8  C   UNL     1      -2.300   8.658 -29.625  1.00  0.00     0.030 A 
HETATM    9 CL   UNL     1      -4.790   9.184 -28.636  1.00  0.00    -0.082 Cl
HETATM   10  C   UNL     1      -1.419   7.836 -30.335  1.00  0.00     0.027 A 
HETATM   11  C   UNL     1      -1.815   6.570 -30.781  1.00  0.00     0.031 A 
BRANCH   8  12
HETATM   12  N   UNL     1      -1.906   9.927 -29.156  1.00  0.00    -0.287 NA
HETATM   13  H   UNL     1      -2.531  10.650 -29.518  1.00  0.00     0.128 HD
BRANCH  12  14
HETATM   14  C   UNL     1      -1.671  10.059 -27.722  1.00  0.00     0.131 C 
BRANCH  14  15
HETATM   15  C   UNL     1      -0.532   9.163 -27.295  1.00  0.00    -0.045 A 
HETATM   16  C   UNL     1      -0.802   7.934 -26.671  1.00  0.00     0.008 A 
HETATM   17  C   UNL     1       0.240   7.090 -26.287  1.00  0.00     0.001 A 
HETATM   18  C   UNL     1       1.561   7.466 -26.517  1.00  0.00     0.000 A 
HETATM   19  C   UNL     1       1.842   8.690 -27.123  1.00  0.00     0.001 A 
HETATM   20  C   UNL     1       0.801   9.539 -27.506  1.00  0.00     0.008 A 
ENDBRANCH  14  15
ENDBRANCH  12  14
ENDBRANCH   8  12
ENDBRANCH   1   5
BRANCH   2  21
HETATM   21  C   UNL     1      -4.263   2.934 -32.325  1.00  0.00     0.032 A 
HETATM   22  C   UNL     1      -5.413   2.482 -32.982  1.00  0.00     0.017 A 
HETATM   23  C   UNL     1      -5.664   1.110 -33.105  1.00  0.00     0.008 A 
HETATM   24  C   UNL     1      -4.780   0.168 -32.563  1.00  0.00    -0.057 A 
HETATM   25  C   UNL     1      -3.660   0.624 -31.858  1.00  0.00     0.008 A 
HETATM   26  C   UNL     1      -3.401   1.992 -31.745  1.00  0.00     0.017 A 
BRANCH  24  27
HETATM   27  C   UNL     1      -5.027  -1.315 -32.736  1.00  0.00     0.053 C 
BRANCH  27  28
HETATM   28  C   UNL     1      -5.196  -1.800 -34.183  1.00  0.00     0.091 C 
HETATM   29  C   UNL     1      -6.634  -2.119 -34.504  1.00  0.00     0.229 C 
HETATM   30  O   UNL     1      -7.561  -1.325 -34.486  1.00  0.00    -0.273 OA
HETATM   31  N   UNL     1      -6.742  -3.444 -34.775  1.00  0.00    -0.297 N 
HETATM   32  C   UNL     1      -5.556  -4.097 -34.732  1.00  0.00     0.225 C 
HETATM   33  H   UNL     1      -7.622  -3.904 -34.944  1.00  0.00     0.171 HD
HETATM   34  O   UNL     1      -5.399  -5.297 -34.882  1.00  0.00    -0.273 OA
HETATM   35  C   UNL     1      -4.458  -3.094 -34.528  1.00  0.00     0.117 C 
ENDBRANCH  27  28
ENDBRANCH  24  27
ENDBRANCH   2  21
TORSDOF 7
ENDMDL
MODEL 6
REMARK VINA RESULT:      -8.6      4.745     12.084
REMARK  7 active torsions:
REMARK  status: ('A' for Active; 'I' for Inactive)
REMARK    1  A    between atoms: C_4  and  C_5 
REMARK    2  A    between atoms: C_5  and  N_6 
REMARK    3  A    between atoms: N_6  and  C_7 
REMARK    4  A    between atoms: C_11  and  N_12 
REMARK       I    between atoms: N_12  and  C_13 
REMARK    5  A    between atoms: C_13  and  C_14 
REMARK    6  A    between atoms: C_17  and  C_18 
REMARK    7  A    between atoms: C_18  and  C_19 
ROOT
HETATM    1  N   UNL     1      -5.249   3.997 -32.132  1.00  0.00    -0.323 N 
HETATM    2  C   UNL     1      -5.357   2.627 -31.958  1.00  0.00     0.256 C 
HETATM    3  O   UNL     1      -4.468   1.882 -31.561  1.00  0.00    -0.267 OA
HETATM    4  H   UNL     1      -6.061   4.491 -32.471  1.00  0.00     0.169 HD
ENDROOT
BRANCH   1   5
HETATM    5  C   UNL     1      -4.087   4.789 -31.997  1.00  0.00     0.036 A 
HETATM    6  C   UNL     1      -3.174   5.030 -33.021  1.00  0.00     0.055 A 
HETATM    7  C   UNL     1      -2.099   5.904 -32.812  1.00  0.00     0.057 A 
HETATM    8  C   UNL     1      -1.914   6.568 -31.583  1.00  0.00     0.030 A 
HETATM    9 CL   UNL     1      -1.026   6.210 -34.140  1.00  0.00    -0.082 Cl
HETATM   10  C   UNL     1      -2.794   6.254 -30.543  1.00  0.00     0.027 A 
HETATM   11  C   UNL     1      -3.877   5.392 -30.751  1.00  0.00     0.031 A 
BRANCH   8  12
HETATM   12  N   UNL     1      -0.831   7.450 -31.389  1.00  0.00    -0.287 NA
HETATM   13  H   UNL     1      -1.120   8.248 -30.820  1.00  0.00     0.128 HD
BRANCH  12  14
HETATM   14  C   UNL     1       0.426   6.864 -30.933  1.00  0.00     0.131 C 
BRANCH  14  15
HETATM   15  C   UNL     1       0.550   6.996 -29.434  1.00  0.00    -0.045 A 
HETATM   16  C   UNL     1       1.069   8.175 -28.874  1.00  0.00     0.008 A 
HETATM   17  C   UNL     1       1.174   8.316 -27.490  1.00  0.00     0.001 A 
HETATM   18  C   UNL     1       0.766   7.280 -26.652  1.00  0.00     0.000 A 
HETATM   19  C   UNL     1       0.261   6.100 -27.197  1.00  0.00     0.001 A 
HETATM   20  C   UNL     1       0.159   5.955 -28.582  1.00  0.00     0.008 A 
ENDBRANCH  14  15
ENDBRANCH  12  14
ENDBRANCH   8  12
ENDBRANCH   1   5
BRANCH   2  21
HETATM   21  C   UNL     1      -6.675   2.019 -32.335  1.00  0.00     0.032 A 
HETATM   22  C   UNL     1      -7.050   1.747 -33.656  1.00  0.00     0.017 A 
HETATM   23  C   UNL     1      -8.271   1.118 -33.927  1.00  0.00     0.008 A 
HETATM   24  C   UNL     1      -9.143   0.765 -32.889  1.00  0.00    -0.057 A 
HETATM   25  C   UNL     1      -8.789   1.088 -31.575  1.00  0.00     0.008 A 
HETATM   26  C   UNL     1      -7.566   1.705 -31.300  1.00  0.00     0.017 A 
BRANCH  24  27
HETATM   27  C   UNL     1     -10.441   0.043 -33.179  1.00  0.00     0.053 C 
BRANCH  27  28
HETATM   28  C   UNL     1     -11.701   0.920 -33.209  1.00  0.00     0.091 C 
HETATM   29  C   UNL     1     -12.885   0.182 -33.780  1.00  0.00     0.229 C 
HETATM   30  O   UNL     1     -13.394  -0.822 -33.308  1.00  0.00    -0.273 OA
HETATM   31  N   UNL     1     -13.270   0.790 -34.930  1.00  0.00    -0.297 N 
HETATM   32  C   UNL     1     -12.539   1.891 -35.225  1.00  0.00     0.225 C 
HETATM   33  H   UNL     1     -13.996   0.430 -35.530  1.00  0.00     0.171 HD
HETATM   34  O   UNL     1     -12.654   2.573 -36.229  1.00  0.00    -0.273 OA
HETATM   35  C   UNL     1     -11.604   2.171 -34.084  1.00  0.00     0.117 C 
ENDBRANCH  27  28
ENDBRANCH  24  27
ENDBRANCH   2  21
TORSDOF 7
ENDMDL
MODEL 7
REMARK VINA RESULT:      -8.6      3.339     12.389
REMARK  7 active torsions:
REMARK  status: ('A' for Active; 'I' for Inactive)
REMARK    1  A    between atoms: C_4  and  C_5 
REMARK    2  A    between atoms: C_5  and  N_6 
REMARK    3  A    between atoms: N_6  and  C_7 
REMARK    4  A    between atoms: C_11  and  N_12 
REMARK       I    between atoms: N_12  and  C_13 
REMARK    5  A    between atoms: C_13  and  C_14 
REMARK    6  A    between atoms: C_17  and  C_18 
REMARK    7  A    between atoms: C_18  and  C_19 
ROOT
HETATM    1  N   UNL     1      -3.009   4.419 -31.940  1.00  0.00    -0.323 N 
HETATM    2  C   UNL     1      -4.318   4.124 -31.598  1.00  0.00     0.256 C 
HETATM    3  O   UNL     1      -4.973   4.678 -30.723  1.00  0.00    -0.267 OA
HETATM    4  H   UNL     1      -2.586   3.880 -32.681  1.00  0.00     0.169 HD
ENDROOT
BRANCH   1   5
HETATM    5  C   UNL     1      -2.139   5.327 -31.297  1.00  0.00     0.036 A 
HETATM    6  C   UNL     1      -2.444   6.662 -31.038  1.00  0.00     0.055 A 
HETATM    7  C   UNL     1      -1.549   7.459 -30.313  1.00  0.00     0.057 A 
HETATM    8  C   UNL     1      -0.333   6.944 -29.819  1.00  0.00     0.030 A 
HETATM    9 CL   UNL     1      -2.006   9.096 -29.971  1.00  0.00    -0.082 Cl
HETATM   10  C   UNL     1      -0.009   5.626 -30.156  1.00  0.00     0.027 A 
HETATM   11  C   UNL     1      -0.906   4.823 -30.868  1.00  0.00     0.031 A 
BRANCH   8  12
HETATM   12  N   UNL     1       0.556   7.756 -29.086  1.00  0.00    -0.287 NA
HETATM   13  H   UNL     1       0.217   8.720 -29.061  1.00  0.00     0.128 HD
BRANCH  12  14
HETATM   14  C   UNL     1       0.963   7.273 -27.771  1.00  0.00     0.131 C 
BRANCH  14  15
HETATM   15  C   UNL     1       1.264   8.436 -26.857  1.00  0.00    -0.045 A 
HETATM   16  C   UNL     1       0.634   9.674 -27.064  1.00  0.00     0.008 A 
HETATM   17  C   UNL     1       0.890  10.752 -26.217  1.00  0.00     0.001 A 
HETATM   18  C   UNL     1       1.782  10.606 -25.156  1.00  0.00     0.000 A 
HETATM   19  C   UNL     1       2.424   9.386 -24.948  1.00  0.00     0.001 A 
HETATM   20  C   UNL     1       2.172   8.306 -25.797  1.00  0.00     0.008 A 
ENDBRANCH  14  15
ENDBRANCH  12  14
ENDBRANCH   8  12
ENDBRANCH   1   5
BRANCH   2  21
HETATM   21  C   UNL     1      -4.953   2.992 -32.349  1.00  0.00     0.032 A 
HETATM   22  C   UNL     1      -5.721   3.167 -33.506  1.00  0.00     0.017 A 
HETATM   23  C   UNL     1      -6.230   2.057 -34.191  1.00  0.00     0.008 A 
HETATM   24  C   UNL     1      -5.992   0.757 -33.726  1.00  0.00    -0.057 A 
HETATM   25  C   UNL     1      -5.272   0.588 -32.539  1.00  0.00     0.008 A 
HETATM   26  C   UNL     1      -4.753   1.693 -31.860  1.00  0.00     0.017 A 
BRANCH  24  27
HETATM   27  C   UNL     1      -6.502  -0.445 -34.492  1.00  0.00     0.053 C 
BRANCH  27  28
HETATM   28  C   UNL     1      -6.234  -1.812 -33.847  1.00  0.00     0.091 C 
HETATM   29  C   UNL     1      -4.883  -2.361 -34.232  1.00  0.00     0.229 C 
HETATM   30  O   UNL     1      -3.807  -1.844 -33.978  1.00  0.00    -0.273 OA
HETATM   31  N   UNL     1      -5.057  -3.501 -34.945  1.00  0.00    -0.297 N 
HETATM   32  C   UNL     1      -6.357  -3.858 -35.076  1.00  0.00     0.225 C 
HETATM   33  H   UNL     1      -4.298  -4.006 -35.374  1.00  0.00     0.171 HD
HETATM   34  O   UNL     1      -6.773  -4.807 -35.717  1.00  0.00    -0.273 OA
HETATM   35  C   UNL     1      -7.200  -2.926 -34.253  1.00  0.00     0.117 C 
ENDBRANCH  27  28
ENDBRANCH  24  27
ENDBRANCH   2  21
TORSDOF 7
ENDMDL
MODEL 8
REMARK VINA RESULT:      -8.6      7.743     11.991
REMARK  7 active torsions:
REMARK  status: ('A' for Active; 'I' for Inactive)
REMARK    1  A    between atoms: C_4  and  C_5 
REMARK    2  A    between atoms: C_5  and  N_6 
REMARK    3  A    between atoms: N_6  and  C_7 
REMARK    4  A    between atoms: C_11  and  N_12 
REMARK       I    between atoms: N_12  and  C_13 
REMARK    5  A    between atoms: C_13  and  C_14 
REMARK    6  A    between atoms: C_17  and  C_18 
REMARK    7  A    between atoms: C_18  and  C_19 
ROOT
HETATM    1  N   UNL     1      -9.939   2.705 -34.677  1.00  0.00    -0.323 N 
HETATM    2  C   UNL     1      -8.916   2.527 -33.760  1.00  0.00     0.256 C 
HETATM    3  O   UNL     1      -8.593   3.321 -32.883  1.00  0.00    -0.267 OA
HETATM    4  H   UNL     1     -10.096   1.970 -35.351  1.00  0.00     0.169 HD
ENDROOT
BRANCH   1   5
HETATM    5  C   UNL     1     -10.735   3.857 -34.861  1.00  0.00     0.036 A 
HETATM    6  C   UNL     1     -10.247   5.094 -35.275  1.00  0.00     0.055 A 
HETATM    7  C   UNL     1     -11.131   6.154 -35.516  1.00  0.00     0.057 A 
HETATM    8  C   UNL     1     -12.524   6.004 -35.360  1.00  0.00     0.030 A 
HETATM    9 CL   UNL     1     -10.473   7.654 -36.084  1.00  0.00    -0.082 Cl
HETATM   10  C   UNL     1     -12.988   4.780 -34.868  1.00  0.00     0.027 A 
HETATM   11  C   UNL     1     -12.110   3.715 -34.640  1.00  0.00     0.031 A 
BRANCH   8  12
HETATM   12  N   UNL     1     -13.403   7.077 -35.611  1.00  0.00    -0.287 NA
HETATM   13  H   UNL     1     -12.980   7.959 -35.315  1.00  0.00     0.128 HD
BRANCH  12  14
HETATM   14  C   UNL     1     -13.986   7.157 -36.945  1.00  0.00     0.131 C 
BRANCH  14  15
HETATM   15  C   UNL     1     -13.503   8.401 -37.653  1.00  0.00    -0.045 A 
HETATM   16  C   UNL     1     -12.939   8.304 -38.936  1.00  0.00     0.008 A 
HETATM   17  C   UNL     1     -12.504   9.447 -39.607  1.00  0.00     0.001 A 
HETATM   18  C   UNL     1     -12.624  10.697 -39.003  1.00  0.00     0.000 A 
HETATM   19  C   UNL     1     -13.170  10.804 -37.725  1.00  0.00     0.001 A 
HETATM   20  C   UNL     1     -13.603   9.661 -37.049  1.00  0.00     0.008 A 
ENDBRANCH  14  15
ENDBRANCH  12  14
ENDBRANCH   8  12
ENDBRANCH   1   5
BRANCH   2  21
HETATM   21  C   UNL     1      -8.121   1.263 -33.900  1.00  0.00     0.032 A 
HETATM   22  C   UNL     1      -7.573   0.825 -35.110  1.00  0.00     0.017 A 
HETATM   23  C   UNL     1      -6.787  -0.333 -35.152  1.00  0.00     0.008 A 
HETATM   24  C   UNL     1      -6.547  -1.079 -33.991  1.00  0.00    -0.057 A 
HETATM   25  C   UNL     1      -7.143  -0.669 -32.793  1.00  0.00     0.008 A 
HETATM   26  C   UNL     1      -7.917   0.493 -32.747  1.00  0.00     0.017 A 
BRANCH  24  27
HETATM   27  C   UNL     1      -5.659  -2.304 -34.027  1.00  0.00     0.053 C 
BRANCH  27  28
HETATM   28  C   UNL     1      -4.157  -2.046 -33.833  1.00  0.00     0.091 C 
HETATM   29  C   UNL     1      -3.541  -3.019 -32.860  1.00  0.00     0.229 C 
HETATM   30  O   UNL     1      -3.484  -4.230 -33.004  1.00  0.00    -0.273 OA
HETATM   31  N   UNL     1      -3.098  -2.337 -31.775  1.00  0.00    -0.297 N 
HETATM   32  C   UNL     1      -3.279  -0.998 -31.873  1.00  0.00     0.225 C 
HETATM   33  H   UNL     1      -2.715  -2.786 -30.957  1.00  0.00     0.171 HD
HETATM   34  O   UNL     1      -3.017  -0.180 -31.009  1.00  0.00    -0.273 OA
HETATM   35  C   UNL     1      -3.801  -0.680 -33.245  1.00  0.00     0.117 C 
ENDBRANCH  27  28
ENDBRANCH  24  27
ENDBRANCH   2  21
TORSDOF 7
ENDMDL
MODEL 9
REMARK VINA RESULT:      -8.2      7.633     11.673
REMARK  7 active torsions:
REMARK  status: ('A' for Active; 'I' for Inactive)
REMARK    1  A    between atoms: C_4  and  C_5 
REMARK    2  A    between atoms: C_5  and  N_6 
REMARK    3  A    between atoms: N_6  and  C_7 
REMARK    4  A    between atoms: C_11  and  N_12 
REMARK       I    between atoms: N_12  and  C_13 
REMARK    5  A    between atoms: C_13  and  C_14 
REMARK    6  A    between atoms: C_17  and  C_18 
REMARK    7  A    between atoms: C_18  and  C_19 
ROOT
HETATM    1  N   UNL     1      -9.067   3.191 -34.407  1.00  0.00    -0.323 N 
HETATM    2  C   UNL     1      -9.462   1.963 -33.902  1.00  0.00     0.256 C 
HETATM    3  O   UNL     1     -10.573   1.694 -33.458  1.00  0.00    -0.267 OA
HETATM    4  H   UNL     1      -8.117   3.277 -34.738  1.00  0.00     0.169 HD
ENDROOT
BRANCH   1   5
HETATM    5  C   UNL     1      -9.808   4.393 -34.415  1.00  0.00     0.036 A 
HETATM    6  C   UNL     1     -10.960   4.603 -35.171  1.00  0.00     0.055 A 
HETATM    7  C   UNL     1     -11.676   5.801 -35.042  1.00  0.00     0.057 A 
HETATM    8  C   UNL     1     -11.269   6.813 -34.150  1.00  0.00     0.030 A 
HETATM    9 CL   UNL     1     -13.132   5.984 -35.965  1.00  0.00    -0.082 Cl
HETATM   10  C   UNL     1     -10.069   6.617 -33.458  1.00  0.00     0.027 A 
HETATM   11  C   UNL     1      -9.359   5.418 -33.574  1.00  0.00     0.031 A 
BRANCH   8  12
HETATM   12  N   UNL     1     -12.003   8.010 -34.026  1.00  0.00    -0.287 NA
HETATM   13  H   UNL     1     -12.325   8.132 -33.064  1.00  0.00     0.128 HD
BRANCH  12  14
HETATM   14  C   UNL     1     -11.392   9.220 -34.568  1.00  0.00     0.131 C 
BRANCH  14  15
HETATM   15  C   UNL     1     -11.527   9.244 -36.071  1.00  0.00    -0.045 A 
HETATM   16  C   UNL     1     -12.768   9.534 -36.661  1.00  0.00     0.008 A 
HETATM   17  C   UNL     1     -12.902   9.576 -38.049  1.00  0.00     0.001 A 
HETATM   18  C   UNL     1     -11.799   9.326 -38.862  1.00  0.00     0.000 A 
HETATM   19  C   UNL     1     -10.564   9.024 -38.289  1.00  0.00     0.001 A 
HETATM   20  C   UNL     1     -10.428   8.978 -36.900  1.00  0.00     0.008 A 
ENDBRANCH  14  15
ENDBRANCH  12  14
ENDBRANCH   8  12
ENDBRANCH   1   5
BRANCH   2  21
HETATM   21  C   UNL     1      -8.408   0.897 -33.868  1.00  0.00     0.032 A 
HETATM   22  C   UNL     1      -7.927   0.324 -32.686  1.00  0.00     0.017 A 
HETATM   23  C   UNL     1      -6.988  -0.713 -32.735  1.00  0.00     0.008 A 
HETATM   24  C   UNL     1      -6.504  -1.185 -33.962  1.00  0.00    -0.057 A 
HETATM   25  C   UNL     1      -6.945  -0.573 -35.139  1.00  0.00     0.008 A 
HETATM   26  C   UNL     1      -7.891   0.454 -35.094  1.00  0.00     0.017 A 
BRANCH  24  27
HETATM   27  C   UNL     1      -5.524  -2.338 -34.016  1.00  0.00     0.053 C 
BRANCH  27  28
HETATM   28  C   UNL     1      -4.055  -1.980 -33.751  1.00  0.00     0.091 C 
HETATM   29  C   UNL     1      -3.448  -2.854 -32.683  1.00  0.00     0.229 C 
HETATM   30  O   UNL     1      -3.314  -4.066 -32.746  1.00  0.00    -0.273 OA
HETATM   31  N   UNL     1      -3.112  -2.082 -31.620  1.00  0.00    -0.297 N 
HETATM   32  C   UNL     1      -3.361  -0.765 -31.813  1.00  0.00     0.225 C 
HETATM   33  H   UNL     1      -2.757  -2.457 -30.754  1.00  0.00     0.171 HD
HETATM   34  O   UNL     1      -3.200   0.118 -30.989  1.00  0.00    -0.273 OA
HETATM   35  C   UNL     1      -3.813  -0.562 -33.231  1.00  0.00     0.117 C 
ENDBRANCH  27  28
ENDBRANCH  24  27
ENDBRANCH   2  21
TORSDOF 7
ENDMDL
MODEL 10
REMARK VINA RESULT:      -8.2      4.676     12.359
REMARK  7 active torsions:
REMARK  status: ('A' for Active; 'I' for Inactive)
REMARK    1  A    between atoms: C_4  and  C_5 
REMARK    2  A    between atoms: C_5  and  N_6 
REMARK    3  A    between atoms: N_6  and  C_7 
REMARK    4  A    between atoms: C_11  and  N_12 
REMARK       I    between atoms: N_12  and  C_13 
REMARK    5  A    between atoms: C_13  and  C_14 
REMARK    6  A    between atoms: C_17  and  C_18 
REMARK    7  A    between atoms: C_18  and  C_19 
ROOT
HETATM    1  N   UNL     1      -4.383   4.381 -32.013  1.00  0.00    -0.323 N 
HETATM    2  C   UNL     1      -5.190   4.878 -33.022  1.00  0.00     0.256 C 
HETATM    3  O   UNL     1      -5.032   5.943 -33.608  1.00  0.00    -0.267 OA
HETATM    4  H   UNL     1      -4.630   3.488 -31.613  1.00  0.00     0.169 HD
ENDROOT
BRANCH   1   5
HETATM    5  C   UNL     1      -3.297   5.030 -31.386  1.00  0.00     0.036 A 
HETATM    6  C   UNL     1      -1.959   4.689 -31.575  1.00  0.00     0.055 A 
HETATM    7  C   UNL     1      -0.948   5.452 -30.977  1.00  0.00     0.057 A 
HETATM    8  C   UNL     1      -1.243   6.581 -30.186  1.00  0.00     0.030 A 
HETATM    9 CL   UNL     1       0.700   5.015 -31.292  1.00  0.00    -0.082 Cl
HETATM   10  C   UNL     1      -2.592   6.862 -29.944  1.00  0.00     0.027 A 
HETATM   11  C   UNL     1      -3.605   6.110 -30.550  1.00  0.00     0.031 A 
BRANCH   8  12
HETATM   12  N   UNL     1      -0.216   7.344 -29.595  1.00  0.00    -0.287 NA
HETATM   13  H   UNL     1      -0.524   8.308 -29.457  1.00  0.00     0.128 HD
BRANCH  12  14
HETATM   14  C   UNL     1       0.424   6.786 -28.408  1.00  0.00     0.131 C 
BRANCH  14  15
HETATM   15  C   UNL     1       0.807   7.891 -27.453  1.00  0.00    -0.045 A 
HETATM   16  C   UNL     1       1.712   7.635 -26.410  1.00  0.00     0.008 A 
HETATM   17  C   UNL     1       2.088   8.652 -25.531  1.00  0.00     0.001 A 
HETATM   18  C   UNL     1       1.561   9.932 -25.683  1.00  0.00     0.000 A 
HETATM   19  C   UNL     1       0.651  10.195 -26.706  1.00  0.00     0.001 A 
HETATM   20  C   UNL     1       0.271   9.179 -27.585  1.00  0.00     0.008 A 
ENDBRANCH  14  15
ENDBRANCH  12  14
ENDBRANCH   8  12
ENDBRANCH   1   5
BRANCH   2  21
HETATM   21  C   UNL     1      -6.380   4.040 -33.384  1.00  0.00     0.032 A 
HETATM   22  C   UNL     1      -6.372   2.641 -33.373  1.00  0.00     0.017 A 
HETATM   23  C   UNL     1      -7.541   1.925 -33.660  1.00  0.00     0.008 A 
HETATM   24  C   UNL     1      -8.732   2.593 -33.975  1.00  0.00    -0.057 A 
HETATM   25  C   UNL     1      -8.722   3.991 -34.039  1.00  0.00     0.008 A 
HETATM   26  C   UNL     1      -7.560   4.707 -33.742  1.00  0.00     0.017 A 
BRANCH  24  27
HETATM   27  C   UNL     1     -10.007   1.821 -34.238  1.00  0.00     0.053 C 
BRANCH  27  28
HETATM   28  C   UNL     1     -11.284   2.664 -34.368  1.00  0.00     0.091 C 
HETATM   29  C   UNL     1     -12.015   2.781 -33.055  1.00  0.00     0.229 C 
HETATM   30  O   UNL     1     -11.577   3.299 -32.040  1.00  0.00    -0.273 OA
HETATM   31  N   UNL     1     -13.225   2.179 -33.169  1.00  0.00    -0.297 N 
HETATM   32  C   UNL     1     -13.465   1.689 -34.408  1.00  0.00     0.225 C 
HETATM   33  H   UNL     1     -13.861   2.066 -32.396  1.00  0.00     0.171 HD
HETATM   34  O   UNL     1     -14.452   1.059 -34.745  1.00  0.00    -0.273 OA
HETATM   35  C   UNL     1     -12.342   2.102 -35.317  1.00  0.00     0.117 C 
ENDBRANCH  27  28
ENDBRANCH  24  27
ENDBRANCH   2  21
TORSDOF 7
ENDMDL
