MODEL 1
REMARK VINA RESULT:      -9.2      0.000      0.000
REMARK  2 active torsions:
REMARK  status: ('A' for Active; 'I' for Inactive)
REMARK       I    between atoms: N_8  and  C_9 
REMARK    1  A    between atoms: C_9  and  C_10 
REMARK    2  A    between atoms: N_12  and  C_13 
ROOT
HETATM    1  C   UNL     1      -6.776   2.701 -31.814  1.00  0.00     0.021 C 
HETATM    2  C   UNL     1      -6.748   1.280 -31.261  1.00  0.00     0.087 C 
HETATM    3  C   UNL     1      -5.339   0.714 -31.212  1.00  0.00     0.207 C 
HETATM    4  O   UNL     1      -4.821   0.330 -30.169  1.00  0.00    -0.279 OA
HETATM    5  N   UNL     1      -4.744   0.580 -32.457  1.00  0.00    -0.227 NA
HETATM    6  C   UNL     1      -5.032  -0.660 -33.087  1.00  0.00     0.042 A 
HETATM    7  C   UNL     1      -6.289  -0.865 -33.694  1.00  0.00     0.059 A 
HETATM    8  N   UNL     1      -7.379   0.052 -33.437  1.00  0.00    -0.309 N 
HETATM    9  C   UNL     1      -8.298   0.366 -34.475  1.00  0.00     0.298 C 
HETATM   10  O   UNL     1      -8.139  -0.045 -35.628  1.00  0.00    -0.264 OA
HETATM   11  C   UNL     1      -7.655   0.274 -31.990  1.00  0.00     0.145 C 
HETATM   12  C   UNL     1      -4.000  -1.590 -33.204  1.00  0.00     0.026 A 
HETATM   13  C   UNL     1      -4.203  -2.744 -33.954  1.00  0.00     0.002 A 
HETATM   14  C   UNL     1      -5.427  -2.953 -34.592  1.00  0.00     0.002 A 
HETATM   15  C   UNL     1      -6.463  -2.020 -34.464  1.00  0.00     0.031 A 
HETATM   16  H   UNL     1      -5.115   1.303 -33.067  1.00  0.00     0.136 HD
ENDROOT
BRANCH   9  17
HETATM   17  C   UNL     1      -9.443   1.273 -34.177  1.00  0.00     0.239 A 
HETATM   18  N   UNL     1     -10.679   0.815 -33.904  1.00  0.00    -0.140 NA
HETATM   19  N   UNL     1     -11.414   1.943 -33.766  1.00  0.00    -0.225 N 
HETATM   20  C   UNL     1     -10.605   3.032 -33.956  1.00  0.00     0.237 A 
HETATM   21  N   UNL     1      -9.379   2.651 -34.221  1.00  0.00    -0.216 NA
BRANCH  19  22
HETATM   22  C   UNL     1     -12.803   1.913 -33.474  1.00  0.00     0.059 A 
HETATM   23  C   UNL     1     -13.621   0.968 -34.111  1.00  0.00     0.031 A 
HETATM   24  C   UNL     1     -14.991   0.932 -33.839  1.00  0.00     0.002 A 
HETATM   25  C   UNL     1     -15.549   1.830 -32.933  1.00  0.00     0.000 A 
HETATM   26  C   UNL     1     -14.740   2.768 -32.294  1.00  0.00     0.002 A 
HETATM   27  C   UNL     1     -13.370   2.815 -32.562  1.00  0.00     0.031 A 
ENDBRANCH  19  22
ENDBRANCH   9  17
TORSDOF 2
ENDMDL
MODEL 2
REMARK VINA RESULT:      -9.0      3.738      6.955
REMARK  2 active torsions:
REMARK  status: ('A' for Active; 'I' for Inactive)
REMARK       I    between atoms: N_8  and  C_9 
REMARK    1  A    between atoms: C_9  and  C_10 
REMARK    2  A    between atoms: N_12  and  C_13 
ROOT
HETATM    1  C   UNL     1      -4.043   1.361 -31.893  1.00  0.00     0.021 C 
HETATM    2  C   UNL     1      -4.409   2.794 -32.267  1.00  0.00     0.087 C 
HETATM    3  C   UNL     1      -4.163   3.763 -31.124  1.00  0.00     0.207 C 
HETATM    4  O   UNL     1      -3.407   4.723 -31.227  1.00  0.00    -0.279 OA
HETATM    5  N   UNL     1      -4.943   3.520 -30.004  1.00  0.00    -0.227 NA
HETATM    6  C   UNL     1      -6.207   4.167 -30.049  1.00  0.00     0.042 A 
HETATM    7  C   UNL     1      -7.239   3.638 -30.851  1.00  0.00     0.059 A 
HETATM    8  N   UNL     1      -6.945   2.623 -31.841  1.00  0.00    -0.309 N 
HETATM    9  C   UNL     1      -7.885   1.588 -32.092  1.00  0.00     0.298 C 
HETATM   10  O   UNL     1      -8.912   1.467 -31.419  1.00  0.00    -0.264 OA
HETATM   11  C   UNL     1      -5.847   2.993 -32.777  1.00  0.00     0.145 C 
HETATM   12  C   UNL     1      -6.427   5.235 -29.180  1.00  0.00     0.026 A 
HETATM   13  C   UNL     1      -7.701   5.786 -29.084  1.00  0.00     0.002 A 
HETATM   14  C   UNL     1      -8.746   5.257 -29.842  1.00  0.00     0.002 A 
HETATM   15  C   UNL     1      -8.519   4.191 -30.720  1.00  0.00     0.031 A 
HETATM   16  H   UNL     1      -5.135   2.523 -29.958  1.00  0.00     0.136 HD
ENDROOT
BRANCH   9  17
HETATM   17  C   UNL     1      -7.585   0.581 -33.150  1.00  0.00     0.239 A 
HETATM   18  N   UNL     1      -6.918  -0.561 -32.896  1.00  0.00    -0.140 NA
HETATM   19  N   UNL     1      -6.801  -1.140 -34.113  1.00  0.00    -0.225 N 
HETATM   20  C   UNL     1      -7.398  -0.339 -35.050  1.00  0.00     0.237 A 
HETATM   21  N   UNL     1      -7.885   0.740 -34.488  1.00  0.00    -0.216 NA
BRANCH  19  22
HETATM   22  C   UNL     1      -6.145  -2.384 -34.302  1.00  0.00     0.059 A 
HETATM   23  C   UNL     1      -6.868  -3.475 -34.807  1.00  0.00     0.031 A 
HETATM   24  C   UNL     1      -6.237  -4.708 -34.992  1.00  0.00     0.002 A 
HETATM   25  C   UNL     1      -4.888  -4.859 -34.678  1.00  0.00     0.000 A 
HETATM   26  C   UNL     1      -4.164  -3.777 -34.179  1.00  0.00     0.002 A 
HETATM   27  C   UNL     1      -4.787  -2.541 -33.988  1.00  0.00     0.031 A 
ENDBRANCH  19  22
ENDBRANCH   9  17
TORSDOF 2
ENDMDL
MODEL 3
REMARK VINA RESULT:      -8.8      3.732      8.020
REMARK  2 active torsions:
REMARK  status: ('A' for Active; 'I' for Inactive)
REMARK       I    between atoms: N_8  and  C_9 
REMARK    1  A    between atoms: C_9  and  C_10 
REMARK    2  A    between atoms: N_12  and  C_13 
ROOT
HETATM    1  C   UNL     1      -7.713   2.405 -32.115  1.00  0.00     0.021 C 
HETATM    2  C   UNL     1      -7.434   1.964 -33.548  1.00  0.00     0.087 C 
HETATM    3  C   UNL     1      -8.233   0.731 -33.933  1.00  0.00     0.207 C 
HETATM    4  O   UNL     1      -9.016   0.724 -34.877  1.00  0.00    -0.279 OA
HETATM    5  N   UNL     1      -7.918  -0.396 -33.190  1.00  0.00    -0.227 NA
HETATM    6  C   UNL     1      -6.838  -1.142 -33.730  1.00  0.00     0.042 A 
HETATM    7  C   UNL     1      -5.514  -0.689 -33.556  1.00  0.00     0.059 A 
HETATM    8  N   UNL     1      -5.261   0.658 -33.089  1.00  0.00    -0.309 N 
HETATM    9  C   UNL     1      -4.162   0.911 -32.223  1.00  0.00     0.298 C 
HETATM   10  O   UNL     1      -3.468  -0.004 -31.772  1.00  0.00    -0.264 OA
HETATM   11  C   UNL     1      -5.953   1.712 -33.881  1.00  0.00     0.145 C 
HETATM   12  C   UNL     1      -7.120  -2.382 -34.302  1.00  0.00     0.026 A 
HETATM   13  C   UNL     1      -6.071  -3.208 -34.695  1.00  0.00     0.002 A 
HETATM   14  C   UNL     1      -4.752  -2.796 -34.501  1.00  0.00     0.002 A 
HETATM   15  C   UNL     1      -4.473  -1.545 -33.935  1.00  0.00     0.031 A 
HETATM   16  H   UNL     1      -7.623  -0.096 -32.265  1.00  0.00     0.136 HD
ENDROOT
BRANCH   9  17
HETATM   17  C   UNL     1      -3.889   2.312 -31.793  1.00  0.00     0.239 A 
HETATM   18  N   UNL     1      -2.730   2.941 -32.065  1.00  0.00    -0.140 NA
HETATM   19  N   UNL     1      -2.865   4.138 -31.450  1.00  0.00    -0.225 N 
HETATM   20  C   UNL     1      -4.089   4.193 -30.838  1.00  0.00     0.237 A 
HETATM   21  N   UNL     1      -4.745   3.073 -31.023  1.00  0.00    -0.216 NA
BRANCH  19  22
HETATM   22  C   UNL     1      -1.847   5.127 -31.482  1.00  0.00     0.059 A 
HETATM   23  C   UNL     1      -2.036   6.286 -32.250  1.00  0.00     0.031 A 
HETATM   24  C   UNL     1      -1.040   7.265 -32.297  1.00  0.00     0.002 A 
HETATM   25  C   UNL     1       0.143   7.095 -31.580  1.00  0.00     0.000 A 
HETATM   26  C   UNL     1       0.334   5.947 -30.814  1.00  0.00     0.002 A 
HETATM   27  C   UNL     1      -0.654   4.962 -30.763  1.00  0.00     0.031 A 
ENDBRANCH  19  22
ENDBRANCH   9  17
TORSDOF 2
ENDMDL
MODEL 4
REMARK VINA RESULT:      -8.7      4.594      6.677
REMARK  2 active torsions:
REMARK  status: ('A' for Active; 'I' for Inactive)
REMARK       I    between atoms: N_8  and  C_9 
REMARK    1  A    between atoms: C_9  and  C_10 
REMARK    2  A    between atoms: N_12  and  C_13 
ROOT
HETATM    1  C   UNL     1      -2.623  -0.292 -31.979  1.00  0.00     0.021 C 
HETATM    2  C   UNL     1      -3.586  -1.382 -31.521  1.00  0.00     0.087 C 
HETATM    3  C   UNL     1      -3.237  -2.737 -32.110  1.00  0.00     0.207 C 
HETATM    4  O   UNL     1      -2.982  -3.712 -31.410  1.00  0.00    -0.279 OA
HETATM    5  N   UNL     1      -3.335  -2.791 -33.491  1.00  0.00    -0.227 NA
HETATM    6  C   UNL     1      -4.638  -3.123 -33.950  1.00  0.00     0.042 A 
HETATM    7  C   UNL     1      -5.656  -2.146 -33.941  1.00  0.00     0.059 A 
HETATM    8  N   UNL     1      -5.471  -0.909 -33.212  1.00  0.00    -0.309 N 
HETATM    9  C   UNL     1      -6.004   0.302 -33.731  1.00  0.00     0.298 C 
HETATM   10  O   UNL     1      -6.539   0.353 -34.842  1.00  0.00    -0.264 OA
HETATM   11  C   UNL     1      -5.074  -1.099 -31.790  1.00  0.00     0.145 C 
HETATM   12  C   UNL     1      -4.829  -4.377 -34.527  1.00  0.00     0.026 A 
HETATM   13  C   UNL     1      -6.048  -4.673 -35.130  1.00  0.00     0.002 A 
HETATM   14  C   UNL     1      -7.058  -3.711 -35.164  1.00  0.00     0.002 A 
HETATM   15  C   UNL     1      -6.865  -2.456 -34.575  1.00  0.00     0.031 A 
HETATM   16  H   UNL     1      -3.129  -1.868 -33.862  1.00  0.00     0.136 HD
ENDROOT
BRANCH   9  17
HETATM   17  C   UNL     1      -5.846   1.557 -32.941  1.00  0.00     0.239 A 
HETATM   18  N   UNL     1      -4.677   2.220 -32.860  1.00  0.00    -0.140 NA
HETATM   19  N   UNL     1      -4.946   3.238 -32.010  1.00  0.00    -0.225 N 
HETATM   20  C   UNL     1      -6.255   3.157 -31.613  1.00  0.00     0.237 A 
HETATM   21  N   UNL     1      -6.838   2.121 -32.165  1.00  0.00    -0.216 NA
BRANCH  19  22
HETATM   22  C   UNL     1      -3.966   4.195 -31.637  1.00  0.00     0.059 A 
HETATM   23  C   UNL     1      -4.371   5.403 -31.050  1.00  0.00     0.031 A 
HETATM   24  C   UNL     1      -3.420   6.357 -30.684  1.00  0.00     0.002 A 
HETATM   25  C   UNL     1      -2.065   6.113 -30.898  1.00  0.00     0.000 A 
HETATM   26  C   UNL     1      -1.656   4.914 -31.478  1.00  0.00     0.002 A 
HETATM   27  C   UNL     1      -2.601   3.954 -31.849  1.00  0.00     0.031 A 
ENDBRANCH  19  22
ENDBRANCH   9  17
TORSDOF 2
ENDMDL
MODEL 5
REMARK VINA RESULT:      -8.6      3.062      7.310
REMARK  2 active torsions:
REMARK  status: ('A' for Active; 'I' for Inactive)
REMARK       I    between atoms: N_8  and  C_9 
REMARK    1  A    between atoms: C_9  and  C_10 
REMARK    2  A    between atoms: N_12  and  C_13 
ROOT
HETATM    1  C   UNL     1      -9.826   2.558 -33.384  1.00  0.00     0.021 C 
HETATM    2  C   UNL     1      -9.676   2.393 -31.874  1.00  0.00     0.087 C 
HETATM    3  C   UNL     1      -9.997   3.675 -31.126  1.00  0.00     0.207 C 
HETATM    4  O   UNL     1     -10.881   3.737 -30.278  1.00  0.00    -0.279 OA
HETATM    5  N   UNL     1      -9.138   4.724 -31.416  1.00  0.00    -0.227 NA
HETATM    6  C   UNL     1      -7.978   4.743 -30.597  1.00  0.00     0.042 A 
HETATM    7  C   UNL     1      -6.923   3.843 -30.852  1.00  0.00     0.059 A 
HETATM    8  N   UNL     1      -7.124   2.721 -31.744  1.00  0.00    -0.309 N 
HETATM    9  C   UNL     1      -6.064   2.291 -32.589  1.00  0.00     0.298 C 
HETATM   10  O   UNL     1      -4.999   2.911 -32.660  1.00  0.00    -0.264 OA
HETATM   11  C   UNL     1      -8.305   1.881 -31.402  1.00  0.00     0.145 C 
HETATM   12  C   UNL     1      -7.865   5.756 -29.645  1.00  0.00     0.026 A 
HETATM   13  C   UNL     1      -6.674   5.900 -28.940  1.00  0.00     0.002 A 
HETATM   14  C   UNL     1      -5.604   5.043 -29.199  1.00  0.00     0.002 A 
HETATM   15  C   UNL     1      -5.726   4.021 -30.149  1.00  0.00     0.031 A 
HETATM   16  H   UNL     1      -8.811   4.615 -32.371  1.00  0.00     0.136 HD
ENDROOT
BRANCH   9  17
HETATM   17  C   UNL     1      -6.274   1.103 -33.464  1.00  0.00     0.239 A 
HETATM   18  N   UNL     1      -5.768  -0.110 -33.173  1.00  0.00    -0.140 NA
HETATM   19  N   UNL     1      -6.125  -0.868 -34.236  1.00  0.00    -0.225 N 
HETATM   20  C   UNL     1      -6.829  -0.096 -35.121  1.00  0.00     0.237 A 
HETATM   21  N   UNL     1      -6.932   1.133 -34.677  1.00  0.00    -0.216 NA
BRANCH  19  22
HETATM   22  C   UNL     1      -5.779  -2.241 -34.339  1.00  0.00     0.059 A 
HETATM   23  C   UNL     1      -4.483  -2.654 -33.996  1.00  0.00     0.031 A 
HETATM   24  C   UNL     1      -4.126  -4.000 -34.100  1.00  0.00     0.002 A 
HETATM   25  C   UNL     1      -5.056  -4.939 -34.542  1.00  0.00     0.000 A 
HETATM   26  C   UNL     1      -6.346  -4.535 -34.881  1.00  0.00     0.002 A 
HETATM   27  C   UNL     1      -6.711  -3.190 -34.784  1.00  0.00     0.031 A 
ENDBRANCH  19  22
ENDBRANCH   9  17
TORSDOF 2
ENDMDL
MODEL 6
REMARK VINA RESULT:      -8.5      3.484      5.120
REMARK  2 active torsions:
REMARK  status: ('A' for Active; 'I' for Inactive)
REMARK       I    between atoms: N_8  and  C_9 
REMARK    1  A    between atoms: C_9  and  C_10 
REMARK    2  A    between atoms: N_12  and  C_13 
ROOT
HETATM    1  C   UNL     1      -3.763   0.957 -32.325  1.00  0.00     0.021 C 
HETATM    2  C   UNL     1      -4.237  -0.370 -31.741  1.00  0.00     0.087 C 
HETATM    3  C   UNL     1      -3.467  -1.551 -32.307  1.00  0.00     0.207 C 
HETATM    4  O   UNL     1      -2.832  -2.322 -31.596  1.00  0.00    -0.279 OA
HETATM    5  N   UNL     1      -3.635  -1.729 -33.671  1.00  0.00    -0.227 NA
HETATM    6  C   UNL     1      -4.760  -2.530 -33.999  1.00  0.00     0.042 A 
HETATM    7  C   UNL     1      -6.057  -1.979 -33.938  1.00  0.00     0.059 A 
HETATM    8  N   UNL     1      -6.278  -0.711 -33.276  1.00  0.00    -0.309 N 
HETATM    9  C   UNL     1      -7.245   0.196 -33.791  1.00  0.00     0.298 C 
HETATM   10  O   UNL     1      -7.838  -0.022 -34.852  1.00  0.00    -0.264 OA
HETATM   11  C   UNL     1      -5.742  -0.652 -31.888  1.00  0.00     0.145 C 
HETATM   12  C   UNL     1      -4.528  -3.807 -34.509  1.00  0.00     0.026 A 
HETATM   13  C   UNL     1      -5.599  -4.555 -34.990  1.00  0.00     0.002 A 
HETATM   14  C   UNL     1      -6.887  -4.018 -34.971  1.00  0.00     0.002 A 
HETATM   15  C   UNL     1      -7.116  -2.739 -34.449  1.00  0.00     0.031 A 
HETATM   16  H   UNL     1      -3.799  -0.819 -34.094  1.00  0.00     0.136 HD
ENDROOT
BRANCH   9  17
HETATM   17  C   UNL     1      -7.493   1.475 -33.067  1.00  0.00     0.239 A 
HETATM   18  N   UNL     1      -6.667   2.534 -33.163  1.00  0.00    -0.140 NA
HETATM   19  N   UNL     1      -7.208   3.438 -32.315  1.00  0.00    -0.225 N 
HETATM   20  C   UNL     1      -8.332   2.902 -31.744  1.00  0.00     0.237 A 
HETATM   21  N   UNL     1      -8.531   1.682 -32.182  1.00  0.00    -0.216 NA
BRANCH  19  22
HETATM   22  C   UNL     1      -6.636   4.720 -32.105  1.00  0.00     0.059 A 
HETATM   23  C   UNL     1      -5.267   4.825 -31.812  1.00  0.00     0.031 A 
HETATM   24  C   UNL     1      -4.692   6.078 -31.596  1.00  0.00     0.002 A 
HETATM   25  C   UNL     1      -5.472   7.230 -31.672  1.00  0.00     0.000 A 
HETATM   26  C   UNL     1      -6.831   7.133 -31.965  1.00  0.00     0.002 A 
HETATM   27  C   UNL     1      -7.417   5.883 -32.180  1.00  0.00     0.031 A 
ENDBRANCH  19  22
ENDBRANCH   9  17
TORSDOF 2
ENDMDL
MODEL 7
REMARK VINA RESULT:      -8.5      4.052      7.653
REMARK  2 active torsions:
REMARK  status: ('A' for Active; 'I' for Inactive)
REMARK       I    between atoms: N_8  and  C_9 
REMARK    1  A    between atoms: C_9  and  C_10 
REMARK    2  A    between atoms: N_12  and  C_13 
ROOT
HETATM    1  C   UNL     1      -6.786   1.390 -34.552  1.00  0.00     0.021 C 
HETATM    2  C   UNL     1      -7.315   2.097 -33.308  1.00  0.00     0.087 C 
HETATM    3  C   UNL     1      -7.744   3.524 -33.602  1.00  0.00     0.207 C 
HETATM    4  O   UNL     1      -8.887   3.922 -33.399  1.00  0.00    -0.279 OA
HETATM    5  N   UNL     1      -6.709   4.348 -34.016  1.00  0.00    -0.227 NA
HETATM    6  C   UNL     1      -6.015   4.963 -32.941  1.00  0.00     0.042 A 
HETATM    7  C   UNL     1      -5.086   4.218 -32.186  1.00  0.00     0.059 A 
HETATM    8  N   UNL     1      -5.041   2.776 -32.305  1.00  0.00    -0.309 N 
HETATM    9  C   UNL     1      -3.792   2.100 -32.231  1.00  0.00     0.298 C 
HETATM   10  O   UNL     1      -2.724   2.715 -32.166  1.00  0.00    -0.264 OA
HETATM   11  C   UNL     1      -6.358   2.112 -32.104  1.00  0.00     0.145 C 
HETATM   12  C   UNL     1      -6.179   6.336 -32.756  1.00  0.00     0.026 A 
HETATM   13  C   UNL     1      -5.393   6.997 -31.817  1.00  0.00     0.002 A 
HETATM   14  C   UNL     1      -4.442   6.287 -31.083  1.00  0.00     0.002 A 
HETATM   15  C   UNL     1      -4.288   4.907 -31.265  1.00  0.00     0.031 A 
HETATM   16  H   UNL     1      -6.026   3.779 -34.508  1.00  0.00     0.136 HD
ENDROOT
BRANCH   9  17
HETATM   17  C   UNL     1      -3.772   0.611 -32.306  1.00  0.00     0.239 A 
HETATM   18  N   UNL     1      -4.471  -0.078 -33.228  1.00  0.00    -0.140 NA
HETATM   19  N   UNL     1      -4.234  -1.370 -32.907  1.00  0.00    -0.225 N 
HETATM   20  C   UNL     1      -3.409  -1.418 -31.815  1.00  0.00     0.237 A 
HETATM   21  N   UNL     1      -3.111  -0.207 -31.412  1.00  0.00    -0.216 NA
BRANCH  19  22
HETATM   22  C   UNL     1      -4.797  -2.449 -33.638  1.00  0.00     0.059 A 
HETATM   23  C   UNL     1      -6.056  -2.294 -34.237  1.00  0.00     0.031 A 
HETATM   24  C   UNL     1      -6.626  -3.349 -34.953  1.00  0.00     0.002 A 
HETATM   25  C   UNL     1      -5.946  -4.558 -35.079  1.00  0.00     0.000 A 
HETATM   26  C   UNL     1      -4.693  -4.717 -34.489  1.00  0.00     0.002 A 
HETATM   27  C   UNL     1      -4.117  -3.669 -33.768  1.00  0.00     0.031 A 
ENDBRANCH  19  22
ENDBRANCH   9  17
TORSDOF 2
ENDMDL
MODEL 8
REMARK VINA RESULT:      -8.4      3.748      8.086
REMARK  2 active torsions:
REMARK  status: ('A' for Active; 'I' for Inactive)
REMARK       I    between atoms: N_8  and  C_9 
REMARK    1  A    between atoms: C_9  and  C_10 
REMARK    2  A    between atoms: N_12  and  C_13 
ROOT
HETATM    1  C   UNL     1      -6.795   1.701 -33.749  1.00  0.00     0.021 C 
HETATM    2  C   UNL     1      -8.030   1.619 -32.857  1.00  0.00     0.087 C 
HETATM    3  C   UNL     1      -9.072   0.664 -33.411  1.00  0.00     0.207 C 
HETATM    4  O   UNL     1      -9.473  -0.309 -32.781  1.00  0.00    -0.279 OA
HETATM    5  N   UNL     1      -9.593   1.050 -34.636  1.00  0.00    -0.227 NA
HETATM    6  C   UNL     1     -10.708   1.923 -34.522  1.00  0.00     0.042 A 
HETATM    7  C   UNL     1     -10.507   3.283 -34.207  1.00  0.00     0.059 A 
HETATM    8  N   UNL     1      -9.220   3.734 -33.720  1.00  0.00    -0.309 N 
HETATM    9  C   UNL     1      -8.732   5.015 -34.098  1.00  0.00     0.298 C 
HETATM   10  O   UNL     1      -9.329   5.722 -34.915  1.00  0.00    -0.264 OA
HETATM   11  C   UNL     1      -8.711   2.964 -32.552  1.00  0.00     0.145 C 
HETATM   12  C   UNL     1     -11.965   1.427 -34.865  1.00  0.00     0.026 A 
HETATM   13  C   UNL     1     -13.050   2.297 -34.920  1.00  0.00     0.002 A 
HETATM   14  C   UNL     1     -12.869   3.653 -34.646  1.00  0.00     0.002 A 
HETATM   15  C   UNL     1     -11.607   4.144 -34.292  1.00  0.00     0.031 A 
HETATM   16  H   UNL     1      -8.877   1.567 -35.139  1.00  0.00     0.136 HD
ENDROOT
BRANCH   9  17
HETATM   17  C   UNL     1      -7.428   5.482 -33.547  1.00  0.00     0.239 A 
HETATM   18  N   UNL     1      -6.252   5.229 -34.154  1.00  0.00    -0.140 NA
HETATM   19  N   UNL     1      -5.337   5.755 -33.307  1.00  0.00    -0.225 N 
HETATM   20  C   UNL     1      -5.984   6.304 -32.232  1.00  0.00     0.237 A 
HETATM   21  N   UNL     1      -7.280   6.144 -32.345  1.00  0.00    -0.216 NA
BRANCH  19  22
HETATM   22  C   UNL     1      -3.943   5.701 -33.568  1.00  0.00     0.059 A 
HETATM   23  C   UNL     1      -3.046   6.245 -32.635  1.00  0.00     0.031 A 
HETATM   24  C   UNL     1      -1.672   6.205 -32.881  1.00  0.00     0.002 A 
HETATM   25  C   UNL     1      -1.185   5.624 -34.050  1.00  0.00     0.000 A 
HETATM   26  C   UNL     1      -2.071   5.079 -34.978  1.00  0.00     0.002 A 
HETATM   27  C   UNL     1      -3.448   5.117 -34.742  1.00  0.00     0.031 A 
ENDBRANCH  19  22
ENDBRANCH   9  17
TORSDOF 2
ENDMDL
MODEL 9
REMARK VINA RESULT:      -8.3      4.672      8.849
REMARK  2 active torsions:
REMARK  status: ('A' for Active; 'I' for Inactive)
REMARK       I    between atoms: N_8  and  C_9 
REMARK    1  A    between atoms: C_9  and  C_10 
REMARK    2  A    between atoms: N_12  and  C_13 
ROOT
HETATM    1  C   UNL     1      -5.539   4.527 -29.880  1.00  0.00     0.021 C 
HETATM    2  C   UNL     1      -6.479   4.444 -31.079  1.00  0.00     0.087 C 
HETATM    3  C   UNL     1      -7.711   3.607 -30.780  1.00  0.00     0.207 C 
HETATM    4  O   UNL     1      -8.849   4.057 -30.869  1.00  0.00    -0.279 OA
HETATM    5  N   UNL     1      -7.434   2.277 -30.504  1.00  0.00    -0.227 NA
HETATM    6  C   UNL     1      -7.376   1.462 -31.666  1.00  0.00     0.042 A 
HETATM    7  C   UNL     1      -6.237   1.501 -32.496  1.00  0.00     0.059 A 
HETATM    8  N   UNL     1      -5.260   2.558 -32.342  1.00  0.00    -0.309 N 
HETATM    9  C   UNL     1      -3.880   2.278 -32.533  1.00  0.00     0.298 C 
HETATM   10  O   UNL     1      -3.472   1.129 -32.732  1.00  0.00    -0.264 OA
HETATM   11  C   UNL     1      -5.841   3.929 -32.380  1.00  0.00     0.145 C 
HETATM   12  C   UNL     1      -8.402   0.541 -31.870  1.00  0.00     0.026 A 
HETATM   13  C   UNL     1      -8.296  -0.381 -32.908  1.00  0.00     0.002 A 
HETATM   14  C   UNL     1      -7.162  -0.384 -33.721  1.00  0.00     0.002 A 
HETATM   15  C   UNL     1      -6.139   0.550 -33.518  1.00  0.00     0.031 A 
HETATM   16  H   UNL     1      -6.515   2.226 -30.074  1.00  0.00     0.136 HD
ENDROOT
BRANCH   9  17
HETATM   17  C   UNL     1      -2.894   3.390 -32.419  1.00  0.00     0.239 A 
HETATM   18  N   UNL     1      -2.397   3.800 -31.236  1.00  0.00    -0.140 NA
HETATM   19  N   UNL     1      -1.611   4.850 -31.567  1.00  0.00    -0.225 N 
HETATM   20  C   UNL     1      -1.657   5.036 -32.923  1.00  0.00     0.237 A 
HETATM   21  N   UNL     1      -2.451   4.153 -33.480  1.00  0.00    -0.216 NA
BRANCH  19  22
HETATM   22  C   UNL     1      -0.888   5.592 -30.597  1.00  0.00     0.059 A 
HETATM   23  C   UNL     1      -1.204   6.943 -30.385  1.00  0.00     0.031 A 
HETATM   24  C   UNL     1      -0.496   7.688 -29.440  1.00  0.00     0.002 A 
HETATM   25  C   UNL     1       0.524   7.094 -28.700  1.00  0.00     0.000 A 
HETATM   26  C   UNL     1       0.840   5.752 -28.904  1.00  0.00     0.002 A 
HETATM   27  C   UNL     1       0.140   4.999 -29.850  1.00  0.00     0.031 A 
ENDBRANCH  19  22
ENDBRANCH   9  17
TORSDOF 2
ENDMDL
MODEL 10
REMARK VINA RESULT:      -8.3      4.746      8.277
REMARK  2 active torsions:
REMARK  status: ('A' for Active; 'I' for Inactive)
REMARK       I    between atoms: N_8  and  C_9 
REMARK    1  A    between atoms: C_9  and  C_10 
REMARK    2  A    between atoms: N_12  and  C_13 
ROOT
HETATM    1  C   UNL     1      -2.343   4.398 -33.896  1.00  0.00     0.021 C 
HETATM    2  C   UNL     1      -2.889   5.822 -33.912  1.00  0.00     0.087 C 
HETATM    3  C   UNL     1      -1.891   6.822 -33.352  1.00  0.00     0.207 C 
HETATM    4  O   UNL     1      -1.476   7.773 -34.006  1.00  0.00    -0.279 OA
HETATM    5  N   UNL     1      -1.582   6.617 -32.016  1.00  0.00    -0.227 NA
HETATM    6  C   UNL     1      -2.473   7.273 -31.126  1.00  0.00     0.042 A 
HETATM    7  C   UNL     1      -3.752   6.729 -30.886  1.00  0.00     0.059 A 
HETATM    8  N   UNL     1      -4.272   5.684 -31.742  1.00  0.00    -0.309 N 
HETATM    9  C   UNL     1      -5.073   4.649 -31.188  1.00  0.00     0.298 C 
HETATM   10  O   UNL     1      -5.261   4.556 -29.972  1.00  0.00    -0.264 OA
HETATM   11  C   UNL     1      -4.234   6.018 -33.193  1.00  0.00     0.145 C 
HETATM   12  C   UNL     1      -1.994   8.367 -30.407  1.00  0.00     0.026 A 
HETATM   13  C   UNL     1      -2.787   8.931 -29.412  1.00  0.00     0.002 A 
HETATM   14  C   UNL     1      -4.042   8.389 -29.133  1.00  0.00     0.002 A 
HETATM   15  C   UNL     1      -4.523   7.296 -29.863  1.00  0.00     0.031 A 
HETATM   16  H   UNL     1      -1.660   5.624 -31.819  1.00  0.00     0.136 HD
ENDROOT
BRANCH   9  17
HETATM   17  C   UNL     1      -5.639   3.610 -32.094  1.00  0.00     0.239 A 
HETATM   18  N   UNL     1      -5.146   2.359 -32.160  1.00  0.00    -0.140 NA
HETATM   19  N   UNL     1      -5.884   1.776 -33.133  1.00  0.00    -0.225 N 
HETATM   20  C   UNL     1      -6.790   2.684 -33.614  1.00  0.00     0.237 A 
HETATM   21  N   UNL     1      -6.658   3.834 -32.998  1.00  0.00    -0.216 NA
BRANCH  19  22
HETATM   22  C   UNL     1      -5.684   0.429 -33.534  1.00  0.00     0.059 A 
HETATM   23  C   UNL     1      -4.516  -0.241 -33.140  1.00  0.00     0.031 A 
HETATM   24  C   UNL     1      -4.302  -1.564 -33.533  1.00  0.00     0.002 A 
HETATM   25  C   UNL     1      -5.247  -2.225 -34.314  1.00  0.00     0.000 A 
HETATM   26  C   UNL     1      -6.411  -1.565 -34.705  1.00  0.00     0.002 A 
HETATM   27  C   UNL     1      -6.633  -0.241 -34.320  1.00  0.00     0.031 A 
ENDBRANCH  19  22
ENDBRANCH   9  17
TORSDOF 2
ENDMDL
