MODEL 1
REMARK VINA RESULT:      -8.2      0.000      0.000
REMARK  6 active torsions:
REMARK  status: ('A' for Active; 'I' for Inactive)
REMARK    1  A    between atoms: C_2  and  O_3 
REMARK    2  A    between atoms: O_3  and  C_4 
REMARK    3  A    between atoms: C_9  and  S_10 
REMARK    4  A    between atoms: S_10  and  C_11 
REMARK    5  A    between atoms: C_11  and  C_12 
REMARK       I    between atoms: C_12  and  N_13 
REMARK    6  A    between atoms: N_13  and  C_14 
ROOT
HETATM    1  C   UNL     1      -2.689   4.729 -33.743  1.00  0.00     0.069 A 
HETATM    2  C   UNL     1      -2.879   3.706 -32.816  1.00  0.00     0.050 A 
HETATM    3  C   UNL     1      -4.179   3.247 -32.518  1.00  0.00    -0.004 A 
HETATM    4  C   UNL     1      -5.301   3.819 -33.142  1.00  0.00     0.068 A 
HETATM    5  N   UNL     1      -6.553   3.408 -32.886  1.00  0.00    -0.241 NA
HETATM    6  C   UNL     1      -6.744   2.404 -31.994  1.00  0.00     0.100 A 
HETATM    7  C   UNL     1      -5.700   1.756 -31.337  1.00  0.00    -0.026 A 
HETATM    8  C   UNL     1      -5.894   0.652 -30.341  1.00  0.00     0.051 C 
HETATM    9  C   UNL     1      -4.402   2.210 -31.602  1.00  0.00     0.023 A 
HETATM   10  C   UNL     1      -5.090   4.841 -34.054  1.00  0.00     0.035 A 
HETATM   11  C   UNL     1      -3.802   5.296 -34.358  1.00  0.00     0.039 A 
ENDROOT
BRANCH   6  12
HETATM   12  S   UNL     1      -8.465   2.014 -31.765  1.00  0.00    -0.096 SA
BRANCH  12  13
HETATM   13  C   UNL     1      -8.879   1.333 -33.414  1.00  0.00     0.142 C 
HETATM   14  C   UNL     1     -10.125   0.464 -33.282  1.00  0.00     0.031 C 
BRANCH  13  15
HETATM   15  C   UNL     1      -7.750   0.520 -34.054  1.00  0.00     0.236 C 
HETATM   16  N   UNL     1      -7.435  -0.650 -33.390  1.00  0.00    -0.326 N 
HETATM   17  H   UNL     1      -7.767  -0.706 -32.430  1.00  0.00     0.169 HD
HETATM   18  O   UNL     1      -7.263   0.901 -35.117  1.00  0.00    -0.272 OA
BRANCH  16  19
HETATM   19  C   UNL     1      -6.518  -1.645 -33.780  1.00  0.00     0.034 A 
HETATM   20  C   UNL     1      -6.850  -2.746 -34.570  1.00  0.00     0.029 A 
HETATM   21  C   UNL     1      -5.878  -3.693 -34.910  1.00  0.00     0.002 A 
HETATM   22  C   UNL     1      -4.569  -3.549 -34.457  1.00  0.00     0.000 A 
HETATM   23  C   UNL     1      -4.229  -2.457 -33.664  1.00  0.00     0.002 A 
HETATM   24  C   UNL     1      -5.199  -1.511 -33.326  1.00  0.00     0.029 A 
ENDBRANCH  16  19
ENDBRANCH  13  15
ENDBRANCH  12  13
ENDBRANCH   6  12
BRANCH   1  25
HETATM   25  O   UNL     1      -1.489   5.255 -34.132  1.00  0.00    -0.351 OA
BRANCH  25  26
HETATM   26  C   UNL     1      -1.274   6.643 -33.887  1.00  0.00     0.171 C 
HETATM   27  C   UNL     1      -0.781   6.798 -32.459  1.00  0.00     0.034 C 
ENDBRANCH  25  26
ENDBRANCH   1  25
TORSDOF 6
ENDMDL
MODEL 2
REMARK VINA RESULT:      -8.0      2.043      6.474
REMARK  6 active torsions:
REMARK  status: ('A' for Active; 'I' for Inactive)
REMARK    1  A    between atoms: C_2  and  O_3 
REMARK    2  A    between atoms: O_3  and  C_4 
REMARK    3  A    between atoms: C_9  and  S_10 
REMARK    4  A    between atoms: S_10  and  C_11 
REMARK    5  A    between atoms: C_11  and  C_12 
REMARK       I    between atoms: C_12  and  N_13 
REMARK    6  A    between atoms: N_13  and  C_14 
ROOT
HETATM    1  C   UNL     1      -5.039  -2.004 -34.133  1.00  0.00     0.069 A 
HETATM    2  C   UNL     1      -6.420  -1.854 -34.248  1.00  0.00     0.050 A 
HETATM    3  C   UNL     1      -7.081  -0.799 -33.586  1.00  0.00    -0.004 A 
HETATM    4  C   UNL     1      -6.360   0.111 -32.794  1.00  0.00     0.068 A 
HETATM    5  N   UNL     1      -6.953   1.130 -32.150  1.00  0.00    -0.241 NA
HETATM    6  C   UNL     1      -8.294   1.288 -32.269  1.00  0.00     0.100 A 
HETATM    7  C   UNL     1      -9.097   0.455 -33.045  1.00  0.00    -0.026 A 
HETATM    8  C   UNL     1     -10.583   0.610 -33.178  1.00  0.00     0.051 C 
HETATM    9  C   UNL     1      -8.465  -0.613 -33.694  1.00  0.00     0.023 A 
HETATM   10  C   UNL     1      -4.989  -0.061 -32.685  1.00  0.00     0.035 A 
HETATM   11  C   UNL     1      -4.328  -1.103 -33.345  1.00  0.00     0.039 A 
ENDROOT
BRANCH   6  12
HETATM   12  S   UNL     1      -8.903   2.671 -31.327  1.00  0.00    -0.096 SA
BRANCH  12  13
HETATM   13  C   UNL     1      -8.412   4.061 -32.414  1.00  0.00     0.142 C 
HETATM   14  C   UNL     1      -8.746   3.692 -33.855  1.00  0.00     0.031 C 
BRANCH  13  15
HETATM   15  C   UNL     1      -6.932   4.440 -32.310  1.00  0.00     0.236 C 
HETATM   16  N   UNL     1      -6.142   3.965 -33.340  1.00  0.00    -0.326 N 
HETATM   17  H   UNL     1      -6.546   3.205 -33.880  1.00  0.00     0.169 HD
HETATM   18  O   UNL     1      -6.563   5.178 -31.398  1.00  0.00    -0.272 OA
BRANCH  16  19
HETATM   19  C   UNL     1      -4.777   4.224 -33.570  1.00  0.00     0.034 A 
HETATM   20  C   UNL     1      -3.742   3.712 -32.787  1.00  0.00     0.029 A 
HETATM   21  C   UNL     1      -2.411   4.022 -33.081  1.00  0.00     0.002 A 
HETATM   22  C   UNL     1      -2.104   4.850 -34.159  1.00  0.00     0.000 A 
HETATM   23  C   UNL     1      -3.129   5.370 -34.943  1.00  0.00     0.002 A 
HETATM   24  C   UNL     1      -4.459   5.059 -34.649  1.00  0.00     0.029 A 
ENDBRANCH  16  19
ENDBRANCH  13  15
ENDBRANCH  12  13
ENDBRANCH   6  12
BRANCH   1  25
HETATM   25  O   UNL     1      -4.278  -2.969 -34.730  1.00  0.00    -0.351 OA
BRANCH  25  26
HETATM   26  C   UNL     1      -4.550  -4.325 -34.380  1.00  0.00     0.171 C 
HETATM   27  C   UNL     1      -3.481  -4.781 -33.403  1.00  0.00     0.034 C 
ENDBRANCH  25  26
ENDBRANCH   1  25
TORSDOF 6
ENDMDL
MODEL 3
REMARK VINA RESULT:      -7.9      3.059      6.516
REMARK  6 active torsions:
REMARK  status: ('A' for Active; 'I' for Inactive)
REMARK    1  A    between atoms: C_2  and  O_3 
REMARK    2  A    between atoms: O_3  and  C_4 
REMARK    3  A    between atoms: C_9  and  S_10 
REMARK    4  A    between atoms: S_10  and  C_11 
REMARK    5  A    between atoms: C_11  and  C_12 
REMARK       I    between atoms: C_12  and  N_13 
REMARK    6  A    between atoms: N_13  and  C_14 
ROOT
HETATM    1  C   UNL     1      -5.284  -2.449 -34.503  1.00  0.00     0.069 A 
HETATM    2  C   UNL     1      -4.479  -1.515 -33.852  1.00  0.00     0.050 A 
HETATM    3  C   UNL     1      -5.041  -0.334 -33.324  1.00  0.00    -0.004 A 
HETATM    4  C   UNL     1      -6.417  -0.077 -33.453  1.00  0.00     0.068 A 
HETATM    5  N   UNL     1      -6.988   1.034 -32.961  1.00  0.00    -0.241 NA
HETATM    6  C   UNL     1      -6.213   1.941 -32.316  1.00  0.00     0.100 A 
HETATM    7  C   UNL     1      -4.844   1.771 -32.116  1.00  0.00    -0.026 A 
HETATM    8  C   UNL     1      -3.971   2.768 -31.415  1.00  0.00     0.051 C 
HETATM    9  C   UNL     1      -4.261   0.616 -32.652  1.00  0.00     0.023 A 
HETATM   10  C   UNL     1      -7.198  -1.014 -34.111  1.00  0.00     0.035 A 
HETATM   11  C   UNL     1      -6.646  -2.190 -34.631  1.00  0.00     0.039 A 
ENDROOT
BRANCH   6  12
HETATM   12  S   UNL     1      -7.137   3.356 -31.760  1.00  0.00    -0.096 SA
BRANCH  12  13
HETATM   13  C   UNL     1      -8.013   3.813 -33.302  1.00  0.00     0.142 C 
HETATM   14  C   UNL     1      -7.832   5.308 -33.539  1.00  0.00     0.031 C 
BRANCH  13  15
HETATM   15  C   UNL     1      -9.505   3.470 -33.297  1.00  0.00     0.236 C 
HETATM   16  N   UNL     1      -9.840   2.342 -34.023  1.00  0.00    -0.326 N 
HETATM   17  H   UNL     1      -9.140   2.038 -34.694  1.00  0.00     0.169 HD
HETATM   18  O   UNL     1     -10.275   4.143 -32.612  1.00  0.00    -0.272 OA
BRANCH  16  19
HETATM   19  C   UNL     1     -11.101   1.726 -34.128  1.00  0.00     0.034 A 
HETATM   20  C   UNL     1     -12.161   2.240 -34.875  1.00  0.00     0.029 A 
HETATM   21  C   UNL     1     -13.386   1.567 -34.924  1.00  0.00     0.002 A 
HETATM   22  C   UNL     1     -13.562   0.377 -34.221  1.00  0.00     0.000 A 
HETATM   23  C   UNL     1     -12.512  -0.141 -33.468  1.00  0.00     0.002 A 
HETATM   24  C   UNL     1     -11.289   0.531 -33.421  1.00  0.00     0.029 A 
ENDBRANCH  16  19
ENDBRANCH  13  15
ENDBRANCH  12  13
ENDBRANCH   6  12
BRANCH   1  25
HETATM   25  O   UNL     1      -4.871  -3.634 -35.045  1.00  0.00    -0.351 OA
BRANCH  25  26
HETATM   26  C   UNL     1      -5.016  -4.804 -34.243  1.00  0.00     0.171 C 
HETATM   27  C   UNL     1      -3.714  -5.023 -33.493  1.00  0.00     0.034 C 
ENDBRANCH  25  26
ENDBRANCH   1  25
TORSDOF 6
ENDMDL
MODEL 4
REMARK VINA RESULT:      -7.8      2.055      6.369
REMARK  6 active torsions:
REMARK  status: ('A' for Active; 'I' for Inactive)
REMARK    1  A    between atoms: C_2  and  O_3 
REMARK    2  A    between atoms: O_3  and  C_4 
REMARK    3  A    between atoms: C_9  and  S_10 
REMARK    4  A    between atoms: S_10  and  C_11 
REMARK    5  A    between atoms: C_11  and  C_12 
REMARK       I    between atoms: C_12  and  N_13 
REMARK    6  A    between atoms: N_13  and  C_14 
ROOT
HETATM    1  C   UNL     1      -5.231  -2.310 -34.225  1.00  0.00     0.069 A 
HETATM    2  C   UNL     1      -4.908  -1.574 -33.087  1.00  0.00     0.050 A 
HETATM    3  C   UNL     1      -5.803  -0.606 -32.585  1.00  0.00    -0.004 A 
HETATM    4  C   UNL     1      -7.028  -0.363 -33.230  1.00  0.00     0.068 A 
HETATM    5  N   UNL     1      -7.907   0.547 -32.782  1.00  0.00    -0.241 NA
HETATM    6  C   UNL     1      -7.604   1.258 -31.667  1.00  0.00     0.100 A 
HETATM    7  C   UNL     1      -6.427   1.080 -30.943  1.00  0.00    -0.026 A 
HETATM    8  C   UNL     1      -6.072   1.865 -29.716  1.00  0.00     0.051 C 
HETATM    9  C   UNL     1      -5.514   0.140 -31.435  1.00  0.00     0.023 A 
HETATM   10  C   UNL     1      -7.326  -1.101 -34.365  1.00  0.00     0.035 A 
HETATM   11  C   UNL     1      -6.444  -2.066 -34.863  1.00  0.00     0.039 A 
ENDROOT
BRANCH   6  12
HETATM   12  S   UNL     1      -8.873   2.432 -31.242  1.00  0.00    -0.096 SA
BRANCH  12  13
HETATM   13  C   UNL     1      -8.448   3.811 -32.371  1.00  0.00     0.142 C 
HETATM   14  C   UNL     1      -8.760   3.381 -33.801  1.00  0.00     0.031 C 
BRANCH  13  15
HETATM   15  C   UNL     1      -6.989   4.266 -32.277  1.00  0.00     0.236 C 
HETATM   16  N   UNL     1      -6.180   3.822 -33.306  1.00  0.00    -0.326 N 
HETATM   17  H   UNL     1      -6.547   3.036 -33.836  1.00  0.00     0.169 HD
HETATM   18  O   UNL     1      -6.655   5.031 -31.374  1.00  0.00    -0.272 OA
BRANCH  16  19
HETATM   19  C   UNL     1      -4.831   4.147 -33.545  1.00  0.00     0.034 A 
HETATM   20  C   UNL     1      -3.768   3.691 -32.766  1.00  0.00     0.029 A 
HETATM   21  C   UNL     1      -2.455   4.066 -33.069  1.00  0.00     0.002 A 
HETATM   22  C   UNL     1      -2.196   4.904 -34.151  1.00  0.00     0.000 A 
HETATM   23  C   UNL     1      -3.250   5.369 -34.932  1.00  0.00     0.002 A 
HETATM   24  C   UNL     1      -4.561   4.993 -34.629  1.00  0.00     0.029 A 
ENDBRANCH  16  19
ENDBRANCH  13  15
ENDBRANCH  12  13
ENDBRANCH   6  12
BRANCH   1  25
HETATM   25  O   UNL     1      -4.464  -3.282 -34.803  1.00  0.00    -0.351 OA
BRANCH  25  26
HETATM   26  C   UNL     1      -4.602  -4.610 -34.300  1.00  0.00     0.171 C 
HETATM   27  C   UNL     1      -3.400  -4.907 -33.423  1.00  0.00     0.034 C 
ENDBRANCH  25  26
ENDBRANCH   1  25
TORSDOF 6
ENDMDL
MODEL 5
REMARK VINA RESULT:      -7.7      1.161      2.279
REMARK  6 active torsions:
REMARK  status: ('A' for Active; 'I' for Inactive)
REMARK    1  A    between atoms: C_2  and  O_3 
REMARK    2  A    between atoms: O_3  and  C_4 
REMARK    3  A    between atoms: C_9  and  S_10 
REMARK    4  A    between atoms: S_10  and  C_11 
REMARK    5  A    between atoms: C_11  and  C_12 
REMARK       I    between atoms: C_12  and  N_13 
REMARK    6  A    between atoms: N_13  and  C_14 
ROOT
HETATM    1  C   UNL     1      -3.240   4.551 -33.456  1.00  0.00     0.069 A 
HETATM    2  C   UNL     1      -4.482   4.998 -33.902  1.00  0.00     0.050 A 
HETATM    3  C   UNL     1      -5.666   4.360 -33.475  1.00  0.00    -0.004 A 
HETATM    4  C   UNL     1      -5.610   3.260 -32.603  1.00  0.00     0.068 A 
HETATM    5  N   UNL     1      -6.714   2.628 -32.173  1.00  0.00    -0.241 NA
HETATM    6  C   UNL     1      -7.927   3.066 -32.593  1.00  0.00     0.100 A 
HETATM    7  C   UNL     1      -8.092   4.160 -33.440  1.00  0.00    -0.026 A 
HETATM    8  C   UNL     1      -9.424   4.652 -33.923  1.00  0.00     0.051 C 
HETATM    9  C   UNL     1      -6.930   4.796 -33.894  1.00  0.00     0.023 A 
HETATM   10  C   UNL     1      -4.364   2.825 -32.179  1.00  0.00     0.035 A 
HETATM   11  C   UNL     1      -3.188   3.458 -32.594  1.00  0.00     0.039 A 
ENDROOT
BRANCH   6  12
HETATM   12  S   UNL     1      -9.267   2.093 -31.943  1.00  0.00    -0.096 SA
BRANCH  12  13
HETATM   13  C   UNL     1      -9.634   1.022 -33.383  1.00  0.00     0.142 C 
HETATM   14  C   UNL     1     -10.562  -0.101 -32.930  1.00  0.00     0.031 C 
BRANCH  13  15
HETATM   15  C   UNL     1      -8.392   0.426 -34.049  1.00  0.00     0.236 C 
HETATM   16  N   UNL     1      -7.680  -0.455 -33.257  1.00  0.00    -0.326 N 
HETATM   17  H   UNL     1      -7.877  -0.397 -32.261  1.00  0.00     0.169 HD
HETATM   18  O   UNL     1      -8.153   0.693 -35.226  1.00  0.00    -0.272 OA
BRANCH  16  19
HETATM   19  C   UNL     1      -6.559  -1.228 -33.617  1.00  0.00     0.034 A 
HETATM   20  C   UNL     1      -5.244  -0.893 -33.292  1.00  0.00     0.029 A 
HETATM   21  C   UNL     1      -4.185  -1.715 -33.693  1.00  0.00     0.002 A 
HETATM   22  C   UNL     1      -4.433  -2.873 -34.425  1.00  0.00     0.000 A 
HETATM   23  C   UNL     1      -5.740  -3.213 -34.759  1.00  0.00     0.002 A 
HETATM   24  C   UNL     1      -6.798  -2.393 -34.357  1.00  0.00     0.029 A 
ENDBRANCH  16  19
ENDBRANCH  13  15
ENDBRANCH  12  13
ENDBRANCH   6  12
BRANCH   1  25
HETATM   25  O   UNL     1      -2.025   5.085 -33.780  1.00  0.00    -0.351 OA
BRANCH  25  26
HETATM   26  C   UNL     1      -1.993   6.464 -34.144  1.00  0.00     0.171 C 
HETATM   27  C   UNL     1      -0.974   7.160 -33.261  1.00  0.00     0.034 C 
ENDBRANCH  25  26
ENDBRANCH   1  25
TORSDOF 6
ENDMDL
MODEL 6
REMARK VINA RESULT:      -7.4      2.652      6.601
REMARK  6 active torsions:
REMARK  status: ('A' for Active; 'I' for Inactive)
REMARK    1  A    between atoms: C_2  and  O_3 
REMARK    2  A    between atoms: O_3  and  C_4 
REMARK    3  A    between atoms: C_9  and  S_10 
REMARK    4  A    between atoms: S_10  and  C_11 
REMARK    5  A    between atoms: C_11  and  C_12 
REMARK       I    between atoms: C_12  and  N_13 
REMARK    6  A    between atoms: N_13  and  C_14 
ROOT
HETATM    1  C   UNL     1     -12.177   1.947 -33.813  1.00  0.00     0.069 A 
HETATM    2  C   UNL     1     -11.777   3.005 -32.998  1.00  0.00     0.050 A 
HETATM    3  C   UNL     1     -10.568   2.933 -32.276  1.00  0.00    -0.004 A 
HETATM    4  C   UNL     1      -9.752   1.791 -32.360  1.00  0.00     0.068 A 
HETATM    5  N   UNL     1      -8.593   1.685 -31.690  1.00  0.00    -0.241 NA
HETATM    6  C   UNL     1      -8.193   2.716 -30.906  1.00  0.00     0.100 A 
HETATM    7  C   UNL     1      -8.916   3.899 -30.770  1.00  0.00    -0.026 A 
HETATM    8  C   UNL     1      -8.494   5.044 -29.899  1.00  0.00     0.051 C 
HETATM    9  C   UNL     1     -10.132   3.985 -31.460  1.00  0.00     0.023 A 
HETATM   10  C   UNL     1     -10.172   0.747 -33.169  1.00  0.00     0.035 A 
HETATM   11  C   UNL     1     -11.368   0.817 -33.892  1.00  0.00     0.039 A 
ENDROOT
BRANCH   6  12
HETATM   12  S   UNL     1      -6.652   2.386 -30.079  1.00  0.00    -0.096 SA
BRANCH  12  13
HETATM   13  C   UNL     1      -5.465   2.720 -31.434  1.00  0.00     0.142 C 
HETATM   14  C   UNL     1      -5.666   4.153 -31.914  1.00  0.00     0.031 C 
BRANCH  13  15
HETATM   15  C   UNL     1      -5.585   1.758 -32.619  1.00  0.00     0.236 C 
HETATM   16  N   UNL     1      -5.516   0.419 -32.284  1.00  0.00    -0.326 N 
HETATM   17  H   UNL     1      -5.118   0.223 -31.369  1.00  0.00     0.169 HD
HETATM   18  O   UNL     1      -5.805   2.211 -33.741  1.00  0.00    -0.272 OA
BRANCH  16  19
HETATM   19  C   UNL     1      -5.687  -0.693 -33.130  1.00  0.00     0.034 A 
HETATM   20  C   UNL     1      -6.926  -1.137 -33.595  1.00  0.00     0.029 A 
HETATM   21  C   UNL     1      -7.010  -2.256 -34.430  1.00  0.00     0.002 A 
HETATM   22  C   UNL     1      -5.857  -2.943 -34.801  1.00  0.00     0.000 A 
HETATM   23  C   UNL     1      -4.617  -2.512 -34.338  1.00  0.00     0.002 A 
HETATM   24  C   UNL     1      -4.533  -1.393 -33.505  1.00  0.00     0.029 A 
ENDBRANCH  16  19
ENDBRANCH  13  15
ENDBRANCH  12  13
ENDBRANCH   6  12
BRANCH   1  25
HETATM   25  O   UNL     1     -13.312   1.896 -34.572  1.00  0.00    -0.351 OA
BRANCH  25  26
HETATM   26  C   UNL     1     -14.305   0.944 -34.197  1.00  0.00     0.171 C 
HETATM   27  C   UNL     1     -15.152   1.557 -33.096  1.00  0.00     0.034 C 
ENDBRANCH  25  26
ENDBRANCH   1  25
TORSDOF 6
ENDMDL
MODEL 7
REMARK VINA RESULT:      -7.3      1.856      2.518
REMARK  6 active torsions:
REMARK  status: ('A' for Active; 'I' for Inactive)
REMARK    1  A    between atoms: C_2  and  O_3 
REMARK    2  A    between atoms: O_3  and  C_4 
REMARK    3  A    between atoms: C_9  and  S_10 
REMARK    4  A    between atoms: S_10  and  C_11 
REMARK    5  A    between atoms: C_11  and  C_12 
REMARK       I    between atoms: C_12  and  N_13 
REMARK    6  A    between atoms: N_13  and  C_14 
ROOT
HETATM    1  C   UNL     1      -3.559   4.260 -32.708  1.00  0.00     0.069 A 
HETATM    2  C   UNL     1      -4.510   3.897 -31.756  1.00  0.00     0.050 A 
HETATM    3  C   UNL     1      -5.883   3.910 -32.078  1.00  0.00    -0.004 A 
HETATM    4  C   UNL     1      -6.314   4.299 -33.358  1.00  0.00     0.068 A 
HETATM    5  N   UNL     1      -7.611   4.322 -33.702  1.00  0.00    -0.241 NA
HETATM    6  C   UNL     1      -8.540   3.958 -32.784  1.00  0.00     0.100 A 
HETATM    7  C   UNL     1      -8.217   3.537 -31.496  1.00  0.00    -0.026 A 
HETATM    8  C   UNL     1      -9.232   3.141 -30.465  1.00  0.00     0.051 C 
HETATM    9  C   UNL     1      -6.861   3.537 -31.147  1.00  0.00     0.023 A 
HETATM   10  C   UNL     1      -5.352   4.665 -34.287  1.00  0.00     0.035 A 
HETATM   11  C   UNL     1      -3.989   4.647 -33.975  1.00  0.00     0.039 A 
ENDROOT
BRANCH   6  12
HETATM   12  S   UNL     1     -10.202   4.077 -33.411  1.00  0.00    -0.096 SA
BRANCH  12  13
HETATM   13  C   UNL     1     -10.239   2.635 -34.541  1.00  0.00     0.142 C 
HETATM   14  C   UNL     1     -11.690   2.207 -34.734  1.00  0.00     0.031 C 
BRANCH  13  15
HETATM   15  C   UNL     1      -9.411   1.442 -34.056  1.00  0.00     0.236 C 
HETATM   16  N   UNL     1      -8.192   1.292 -34.691  1.00  0.00    -0.326 N 
HETATM   17  H   UNL     1      -8.100   1.788 -35.573  1.00  0.00     0.169 HD
HETATM   18  O   UNL     1      -9.826   0.764 -33.118  1.00  0.00    -0.272 OA
BRANCH  16  19
HETATM   19  C   UNL     1      -7.179   0.358 -34.403  1.00  0.00     0.034 A 
HETATM   20  C   UNL     1      -6.066   0.634 -33.608  1.00  0.00     0.029 A 
HETATM   21  C   UNL     1      -5.100  -0.351 -33.375  1.00  0.00     0.002 A 
HETATM   22  C   UNL     1      -5.237  -1.616 -33.941  1.00  0.00     0.000 A 
HETATM   23  C   UNL     1      -6.340  -1.899 -34.740  1.00  0.00     0.002 A 
HETATM   24  C   UNL     1      -7.305  -0.916 -34.972  1.00  0.00     0.029 A 
ENDBRANCH  16  19
ENDBRANCH  13  15
ENDBRANCH  12  13
ENDBRANCH   6  12
BRANCH   1  25
HETATM   25  O   UNL     1      -2.204   4.277 -32.532  1.00  0.00    -0.351 OA
BRANCH  25  26
HETATM   26  C   UNL     1      -1.710   4.833 -31.314  1.00  0.00     0.171 C 
HETATM   27  C   UNL     1      -0.320   5.382 -31.578  1.00  0.00     0.034 C 
ENDBRANCH  25  26
ENDBRANCH   1  25
TORSDOF 6
ENDMDL
MODEL 8
REMARK VINA RESULT:      -7.2     16.020     17.183
REMARK  6 active torsions:
REMARK  status: ('A' for Active; 'I' for Inactive)
REMARK    1  A    between atoms: C_2  and  O_3 
REMARK    2  A    between atoms: O_3  and  C_4 
REMARK    3  A    between atoms: C_9  and  S_10 
REMARK    4  A    between atoms: S_10  and  C_11 
REMARK    5  A    between atoms: C_11  and  C_12 
REMARK       I    between atoms: C_12  and  N_13 
REMARK    6  A    between atoms: N_13  and  C_14 
ROOT
HETATM    1  C   UNL     1      -6.145 -14.390 -34.339  1.00  0.00     0.069 A 
HETATM    2  C   UNL     1      -7.196 -14.061 -35.193  1.00  0.00     0.050 A 
HETATM    3  C   UNL     1      -6.935 -13.569 -36.488  1.00  0.00    -0.004 A 
HETATM    4  C   UNL     1      -5.613 -13.395 -36.935  1.00  0.00     0.068 A 
HETATM    5  N   UNL     1      -5.325 -12.931 -38.161  1.00  0.00    -0.241 NA
HETATM    6  C   UNL     1      -6.343 -12.621 -39.002  1.00  0.00     0.100 A 
HETATM    7  C   UNL     1      -7.686 -12.776 -38.665  1.00  0.00    -0.026 A 
HETATM    8  C   UNL     1      -8.824 -12.427 -39.577  1.00  0.00     0.051 C 
HETATM    9  C   UNL     1      -7.970 -13.242 -37.375  1.00  0.00     0.023 A 
HETATM   10  C   UNL     1      -4.583 -13.720 -36.067  1.00  0.00     0.035 A 
HETATM   11  C   UNL     1      -4.837 -14.214 -34.783  1.00  0.00     0.039 A 
ENDROOT
BRANCH   6  12
HETATM   12  S   UNL     1      -5.770 -11.999 -40.567  1.00  0.00    -0.096 SA
BRANCH  12  13
HETATM   13  C   UNL     1      -5.300 -13.563 -41.399  1.00  0.00     0.142 C 
HETATM   14  C   UNL     1      -6.519 -14.478 -41.437  1.00  0.00     0.031 C 
BRANCH  13  15
HETATM   15  C   UNL     1      -4.129 -14.293 -40.736  1.00  0.00     0.236 C 
HETATM   16  N   UNL     1      -2.994 -13.523 -40.564  1.00  0.00    -0.326 N 
HETATM   17  H   UNL     1      -2.953 -12.680 -41.130  1.00  0.00     0.169 HD
HETATM   18  O   UNL     1      -4.285 -15.448 -40.343  1.00  0.00    -0.272 OA
BRANCH  16  19
HETATM   19  C   UNL     1      -1.801 -13.880 -39.907  1.00  0.00     0.034 A 
HETATM   20  C   UNL     1      -0.646 -14.307 -40.564  1.00  0.00     0.029 A 
HETATM   21  C   UNL     1       0.498 -14.648 -39.835  1.00  0.00     0.002 A 
HETATM   22  C   UNL     1       0.495 -14.570 -38.445  1.00  0.00     0.000 A 
HETATM   23  C   UNL     1      -0.653 -14.150 -37.780  1.00  0.00     0.002 A 
HETATM   24  C   UNL     1      -1.796 -13.808 -38.508  1.00  0.00     0.029 A 
ENDBRANCH  16  19
ENDBRANCH  13  15
ENDBRANCH  12  13
ENDBRANCH   6  12
BRANCH   1  25
HETATM   25  O   UNL     1      -6.259 -14.887 -33.071  1.00  0.00    -0.351 OA
BRANCH  25  26
HETATM   26  C   UNL     1      -5.447 -14.292 -32.061  1.00  0.00     0.171 C 
HETATM   27  C   UNL     1      -4.876 -15.405 -31.200  1.00  0.00     0.034 C 
ENDBRANCH  25  26
ENDBRANCH   1  25
TORSDOF 6
ENDMDL
MODEL 9
REMARK VINA RESULT:      -7.2      1.793      2.291
REMARK  6 active torsions:
REMARK  status: ('A' for Active; 'I' for Inactive)
REMARK    1  A    between atoms: C_2  and  O_3 
REMARK    2  A    between atoms: O_3  and  C_4 
REMARK    3  A    between atoms: C_9  and  S_10 
REMARK    4  A    between atoms: S_10  and  C_11 
REMARK    5  A    between atoms: C_11  and  C_12 
REMARK       I    between atoms: C_12  and  N_13 
REMARK    6  A    between atoms: N_13  and  C_14 
ROOT
HETATM    1  C   UNL     1      -2.550   5.525 -31.122  1.00  0.00     0.069 A 
HETATM    2  C   UNL     1      -3.879   5.698 -30.737  1.00  0.00     0.050 A 
HETATM    3  C   UNL     1      -4.830   4.685 -30.977  1.00  0.00    -0.004 A 
HETATM    4  C   UNL     1      -4.456   3.490 -31.616  1.00  0.00     0.068 A 
HETATM    5  N   UNL     1      -5.331   2.502 -31.860  1.00  0.00    -0.241 NA
HETATM    6  C   UNL     1      -6.622   2.660 -31.476  1.00  0.00     0.100 A 
HETATM    7  C   UNL     1      -7.091   3.795 -30.819  1.00  0.00    -0.026 A 
HETATM    8  C   UNL     1      -8.517   3.991 -30.398  1.00  0.00     0.051 C 
HETATM    9  C   UNL     1      -6.169   4.824 -30.589  1.00  0.00     0.023 A 
HETATM   10  C   UNL     1      -3.132   3.341 -31.999  1.00  0.00     0.035 A 
HETATM   11  C   UNL     1      -2.184   4.341 -31.757  1.00  0.00     0.039 A 
ENDROOT
BRANCH   6  12
HETATM   12  S   UNL     1      -7.637   1.262 -31.906  1.00  0.00    -0.096 SA
BRANCH  12  13
HETATM   13  C   UNL     1      -7.618   1.381 -33.734  1.00  0.00     0.142 C 
HETATM   14  C   UNL     1      -8.965   1.925 -34.199  1.00  0.00     0.031 C 
BRANCH  13  15
HETATM   15  C   UNL     1      -7.326   0.056 -34.442  1.00  0.00     0.236 C 
HETATM   16  N   UNL     1      -6.455  -0.778 -33.766  1.00  0.00    -0.326 N 
HETATM   17  H   UNL     1      -5.896  -0.327 -33.045  1.00  0.00     0.169 HD
HETATM   18  O   UNL     1      -7.917  -0.211 -35.487  1.00  0.00    -0.272 OA
BRANCH  16  19
HETATM   19  C   UNL     1      -6.071  -2.088 -34.111  1.00  0.00     0.034 A 
HETATM   20  C   UNL     1      -6.947  -3.053 -34.608  1.00  0.00     0.029 A 
HETATM   21  C   UNL     1      -6.485  -4.335 -34.923  1.00  0.00     0.002 A 
HETATM   22  C   UNL     1      -5.144  -4.663 -34.737  1.00  0.00     0.000 A 
HETATM   23  C   UNL     1      -4.263  -3.709 -34.236  1.00  0.00     0.002 A 
HETATM   24  C   UNL     1      -4.725  -2.429 -33.923  1.00  0.00     0.029 A 
ENDBRANCH  16  19
ENDBRANCH  13  15
ENDBRANCH  12  13
ENDBRANCH   6  12
BRANCH   1  25
HETATM   25  O   UNL     1      -1.532   6.416 -30.937  1.00  0.00    -0.351 OA
BRANCH  25  26
HETATM   26  C   UNL     1      -0.416   5.982 -30.162  1.00  0.00     0.171 C 
HETATM   27  C   UNL     1       0.472   7.185 -29.901  1.00  0.00     0.034 C 
ENDBRANCH  25  26
ENDBRANCH   1  25
TORSDOF 6
ENDMDL
MODEL 10
REMARK VINA RESULT:      -7.1      2.469      7.727
REMARK  6 active torsions:
REMARK  status: ('A' for Active; 'I' for Inactive)
REMARK    1  A    between atoms: C_2  and  O_3 
REMARK    2  A    between atoms: O_3  and  C_4 
REMARK    3  A    between atoms: C_9  and  S_10 
REMARK    4  A    between atoms: S_10  and  C_11 
REMARK    5  A    between atoms: C_11  and  C_12 
REMARK       I    between atoms: C_12  and  N_13 
REMARK    6  A    between atoms: N_13  and  C_14 
ROOT
HETATM    1  C   UNL     1     -11.418   2.254 -33.622  1.00  0.00     0.069 A 
HETATM    2  C   UNL     1     -10.487   1.258 -33.910  1.00  0.00     0.050 A 
HETATM    3  C   UNL     1      -9.322   1.122 -33.127  1.00  0.00    -0.004 A 
HETATM    4  C   UNL     1      -9.077   1.994 -32.052  1.00  0.00     0.068 A 
HETATM    5  N   UNL     1      -7.982   1.895 -31.282  1.00  0.00    -0.241 NA
HETATM    6  C   UNL     1      -7.079   0.919 -31.549  1.00  0.00     0.100 A 
HETATM    7  C   UNL     1      -7.237  -0.008 -32.577  1.00  0.00    -0.026 A 
HETATM    8  C   UNL     1      -6.243  -1.086 -32.892  1.00  0.00     0.051 C 
HETATM    9  C   UNL     1      -8.376   0.121 -33.381  1.00  0.00     0.023 A 
HETATM   10  C   UNL     1     -10.011   2.984 -31.788  1.00  0.00     0.035 A 
HETATM   11  C   UNL     1     -11.171   3.118 -32.559  1.00  0.00     0.039 A 
ENDROOT
BRANCH   6  12
HETATM   12  S   UNL     1      -5.684   0.961 -30.445  1.00  0.00    -0.096 SA
BRANCH  12  13
HETATM   13  C   UNL     1      -4.330   1.318 -31.626  1.00  0.00     0.142 C 
HETATM   14  C   UNL     1      -3.128   0.452 -31.264  1.00  0.00     0.031 C 
BRANCH  13  15
HETATM   15  C   UNL     1      -3.910   2.790 -31.666  1.00  0.00     0.236 C 
HETATM   16  N   UNL     1      -2.929   3.084 -32.594  1.00  0.00    -0.326 N 
HETATM   17  H   UNL     1      -2.403   2.284 -32.935  1.00  0.00     0.169 HD
HETATM   18  O   UNL     1      -4.500   3.602 -30.955  1.00  0.00    -0.272 OA
BRANCH  16  19
HETATM   19  C   UNL     1      -2.409   4.349 -32.928  1.00  0.00     0.034 A 
HETATM   20  C   UNL     1      -2.785   5.073 -34.060  1.00  0.00     0.029 A 
HETATM   21  C   UNL     1      -2.215   6.323 -34.324  1.00  0.00     0.002 A 
HETATM   22  C   UNL     1      -1.261   6.855 -33.460  1.00  0.00     0.000 A 
HETATM   23  C   UNL     1      -0.875   6.139 -32.331  1.00  0.00     0.002 A 
HETATM   24  C   UNL     1      -1.445   4.891 -32.068  1.00  0.00     0.029 A 
ENDBRANCH  16  19
ENDBRANCH  13  15
ENDBRANCH  12  13
ENDBRANCH   6  12
BRANCH   1  25
HETATM   25  O   UNL     1     -12.588   2.485 -34.290  1.00  0.00    -0.351 OA
BRANCH  25  26
HETATM   26  C   UNL     1     -13.302   1.346 -34.767  1.00  0.00     0.171 C 
HETATM   27  C   UNL     1     -14.168   0.825 -33.634  1.00  0.00     0.034 C 
ENDBRANCH  25  26
ENDBRANCH   1  25
TORSDOF 6
ENDMDL
