MODEL 1
REMARK VINA RESULT:      -9.1      0.000      0.000
REMARK  7 active torsions:
REMARK  status: ('A' for Active; 'I' for Inactive)
REMARK       I    between atoms: C_2  and  N_3 
REMARK    1  A    between atoms: N_3  and  C_4 
REMARK    2  A    between atoms: C_7  and  N_8 
REMARK       I    between atoms: N_8  and  C_9 
REMARK    3  A    between atoms: C_9  and  C_10 
REMARK    4  A    between atoms: C_11  and  C_12 
REMARK    5  A    between atoms: C_13  and  O_14 
REMARK    6  A    between atoms: N_20  and  C_21 
REMARK    7  A    between atoms: C_24  and  O_25 
ROOT
HETATM    1  C   UNL     1      -8.503   3.437 -32.843  1.00  0.00     0.106 C 
HETATM    2  C   UNL     1      -8.446   2.016 -33.426  1.00  0.00     0.142 C 
HETATM    3  N   UNL     1      -7.604   1.088 -32.618  1.00  0.00    -0.308 N 
HETATM    4  C   UNL     1      -7.640   1.138 -31.215  1.00  0.00     0.225 C 
HETATM    5  O   UNL     1      -7.339   0.204 -30.472  1.00  0.00    -0.273 OA
HETATM    6  C   UNL     1      -7.952   2.480 -30.576  1.00  0.00     0.104 C 
HETATM    7  C   UNL     1      -8.849   3.411 -31.362  1.00  0.00     0.026 C 
ENDROOT
BRANCH   1   8
HETATM    8  C   UNL     1      -7.240   4.270 -33.101  1.00  0.00     0.228 C 
HETATM    9  N   UNL     1      -6.086   3.541 -33.317  1.00  0.00    -0.327 N 
HETATM   10  H   UNL     1      -6.188   2.563 -33.561  1.00  0.00     0.169 HD
HETATM   11  O   UNL     1      -7.300   5.494 -33.003  1.00  0.00    -0.273 OA
BRANCH   9  12
HETATM   12  C   UNL     1      -4.754   3.994 -33.212  1.00  0.00     0.034 A 
HETATM   13  C   UNL     1      -4.150   4.866 -34.115  1.00  0.00     0.032 A 
HETATM   14  C   UNL     1      -2.855   5.353 -33.883  1.00  0.00     0.032 A 
HETATM   15  C   UNL     1      -2.145   4.977 -32.745  1.00  0.00     0.034 A 
HETATM   16  C   UNL     1      -2.738   4.075 -31.855  1.00  0.00     0.032 A 
HETATM   17  C   UNL     1      -4.031   3.589 -32.086  1.00  0.00     0.032 A 
BRANCH  15  18
HETATM   18  N   UNL     1      -0.864   5.466 -32.412  1.00  0.00    -0.328 N 
HETATM   19  C   UNL     1      -0.561   6.545 -31.603  1.00  0.00     0.218 C 
HETATM   20  C   UNL     1       0.924   6.733 -31.404  1.00  0.00     0.117 C 
HETATM   21  O   UNL     1      -1.355   7.297 -31.048  1.00  0.00    -0.274 OA
HETATM   22  H   UNL     1      -0.084   4.940 -32.785  1.00  0.00     0.169 HD
ENDBRANCH  15  18
ENDBRANCH   9  12
ENDBRANCH   1   8
BRANCH   2  23
HETATM   23  C   UNL     1      -9.867   1.484 -33.679  1.00  0.00    -0.001 A 
HETATM   24  C   UNL     1     -10.745   2.204 -34.521  1.00  0.00     0.076 A 
HETATM   25  C   UNL     1     -12.061   1.764 -34.702  1.00  0.00     0.037 A 
HETATM   26  C   UNL     1     -12.517   0.610 -34.064  1.00  0.00     0.003 A 
HETATM   27  C   UNL     1     -11.659  -0.116 -33.248  1.00  0.00     0.001 A 
HETATM   28  C   UNL     1     -10.346   0.315 -33.057  1.00  0.00     0.012 A 
BRANCH  24  29
HETATM   29  O   UNL     1     -10.220   3.325 -35.112  1.00  0.00    -0.355 OA
HETATM   30  C   UNL     1     -11.125   4.362 -35.470  1.00  0.00     0.210 C 
ENDBRANCH  24  29
ENDBRANCH   2  23
BRANCH   3  31
HETATM   31  C   UNL     1      -6.905   0.019 -33.309  1.00  0.00     0.038 A 
HETATM   32  C   UNL     1      -7.608  -1.027 -33.925  1.00  0.00     0.032 A 
HETATM   33  C   UNL     1      -6.941  -2.100 -34.533  1.00  0.00     0.039 A 
HETATM   34  C   UNL     1      -5.551  -2.169 -34.537  1.00  0.00     0.068 A 
HETATM   35  C   UNL     1      -4.833  -1.141 -33.938  1.00  0.00     0.039 A 
HETATM   36  C   UNL     1      -5.504  -0.066 -33.330  1.00  0.00     0.032 A 
BRANCH  34  37
HETATM   37  O   UNL     1      -5.027  -3.271 -35.148  1.00  0.00    -0.356 OA
HETATM   38  C   UNL     1      -5.508  -4.537 -34.715  1.00  0.00     0.210 C 
ENDBRANCH  34  37
ENDBRANCH   3  31
TORSDOF 7
ENDMDL
MODEL 2
REMARK VINA RESULT:      -9.0      4.743      9.058
REMARK  7 active torsions:
REMARK  status: ('A' for Active; 'I' for Inactive)
REMARK       I    between atoms: C_2  and  N_3 
REMARK    1  A    between atoms: N_3  and  C_4 
REMARK    2  A    between atoms: C_7  and  N_8 
REMARK       I    between atoms: N_8  and  C_9 
REMARK    3  A    between atoms: C_9  and  C_10 
REMARK    4  A    between atoms: C_11  and  C_12 
REMARK    5  A    between atoms: C_13  and  O_14 
REMARK    6  A    between atoms: N_20  and  C_21 
REMARK    7  A    between atoms: C_24  and  O_25 
ROOT
HETATM    1  C   UNL     1      -1.695   4.815 -31.499  1.00  0.00     0.106 C 
HETATM    2  C   UNL     1      -2.899   5.766 -31.413  1.00  0.00     0.142 C 
HETATM    3  N   UNL     1      -2.607   7.126 -31.947  1.00  0.00    -0.308 N 
HETATM    4  C   UNL     1      -1.828   7.281 -33.106  1.00  0.00     0.225 C 
HETATM    5  O   UNL     1      -1.864   8.261 -33.850  1.00  0.00    -0.273 OA
HETATM    6  C   UNL     1      -0.780   6.217 -33.384  1.00  0.00     0.104 C 
HETATM    7  C   UNL     1      -1.088   4.820 -32.894  1.00  0.00     0.026 C 
ENDROOT
BRANCH   1   8
HETATM    8  C   UNL     1      -0.624   5.065 -30.430  1.00  0.00     0.228 C 
HETATM    9  N   UNL     1      -0.937   6.031 -29.493  1.00  0.00    -0.327 N 
HETATM   10  H   UNL     1      -1.910   6.299 -29.404  1.00  0.00     0.169 HD
HETATM   11  O   UNL     1       0.458   4.486 -30.520  1.00  0.00    -0.273 OA
BRANCH   9  12
HETATM   12  C   UNL     1      -0.048   6.726 -28.647  1.00  0.00     0.034 A 
HETATM   13  C   UNL     1       0.732   7.808 -29.051  1.00  0.00     0.032 A 
HETATM   14  C   UNL     1       1.512   8.514 -28.122  1.00  0.00     0.032 A 
HETATM   15  C   UNL     1       1.525   8.149 -26.778  1.00  0.00     0.034 A 
HETATM   16  C   UNL     1       0.768   7.043 -26.379  1.00  0.00     0.032 A 
HETATM   17  C   UNL     1      -0.012   6.338 -27.304  1.00  0.00     0.032 A 
BRANCH  15  18
HETATM   18  N   UNL     1       2.237   8.842 -25.775  1.00  0.00    -0.328 N 
HETATM   19  C   UNL     1       1.871  10.015 -25.143  1.00  0.00     0.218 C 
HETATM   20  C   UNL     1       2.840  10.428 -24.062  1.00  0.00     0.117 C 
HETATM   21  O   UNL     1       0.870  10.689 -25.360  1.00  0.00    -0.274 OA
HETATM   22  H   UNL     1       3.095   8.403 -25.467  1.00  0.00     0.169 HD
ENDBRANCH  15  18
ENDBRANCH   9  12
ENDBRANCH   1   8
BRANCH   2  23
HETATM   23  C   UNL     1      -4.141   5.116 -32.049  1.00  0.00    -0.001 A 
HETATM   24  C   UNL     1      -5.127   4.531 -31.221  1.00  0.00     0.076 A 
HETATM   25  C   UNL     1      -6.225   3.878 -31.793  1.00  0.00     0.037 A 
HETATM   26  C   UNL     1      -6.363   3.805 -33.179  1.00  0.00     0.003 A 
HETATM   27  C   UNL     1      -5.411   4.392 -34.003  1.00  0.00     0.001 A 
HETATM   28  C   UNL     1      -4.310   5.043 -33.445  1.00  0.00     0.012 A 
BRANCH  24  29
HETATM   29  O   UNL     1      -4.918   4.648 -29.871  1.00  0.00    -0.355 OA
HETATM   30  C   UNL     1      -6.033   5.009 -29.064  1.00  0.00     0.210 C 
ENDBRANCH  24  29
ENDBRANCH   2  23
BRANCH   3  31
HETATM   31  C   UNL     1      -3.300   8.258 -31.358  1.00  0.00     0.038 A 
HETATM   32  C   UNL     1      -4.699   8.355 -31.401  1.00  0.00     0.032 A 
HETATM   33  C   UNL     1      -5.372   9.477 -30.899  1.00  0.00     0.039 A 
HETATM   34  C   UNL     1      -4.671  10.544 -30.344  1.00  0.00     0.068 A 
HETATM   35  C   UNL     1      -3.285  10.468 -30.284  1.00  0.00     0.039 A 
HETATM   36  C   UNL     1      -2.612   9.342 -30.788  1.00  0.00     0.032 A 
BRANCH  34  37
HETATM   37  O   UNL     1      -5.443  11.580 -29.904  1.00  0.00    -0.356 OA
HETATM   38  C   UNL     1      -6.697  11.247 -29.324  1.00  0.00     0.210 C 
ENDBRANCH  34  37
ENDBRANCH   3  31
TORSDOF 7
ENDMDL
MODEL 3
REMARK VINA RESULT:      -8.9      2.570      5.882
REMARK  7 active torsions:
REMARK  status: ('A' for Active; 'I' for Inactive)
REMARK       I    between atoms: C_2  and  N_3 
REMARK    1  A    between atoms: N_3  and  C_4 
REMARK    2  A    between atoms: C_7  and  N_8 
REMARK       I    between atoms: N_8  and  C_9 
REMARK    3  A    between atoms: C_9  and  C_10 
REMARK    4  A    between atoms: C_11  and  C_12 
REMARK    5  A    between atoms: C_13  and  O_14 
REMARK    6  A    between atoms: N_20  and  C_21 
REMARK    7  A    between atoms: C_24  and  O_25 
ROOT
HETATM    1  C   UNL     1      -4.597   3.163 -32.665  1.00  0.00     0.106 C 
HETATM    2  C   UNL     1      -6.059   2.729 -32.473  1.00  0.00     0.142 C 
HETATM    3  N   UNL     1      -7.033   3.821 -32.756  1.00  0.00    -0.308 N 
HETATM    4  C   UNL     1      -6.826   4.695 -33.835  1.00  0.00     0.225 C 
HETATM    5  O   UNL     1      -7.713   5.331 -34.404  1.00  0.00    -0.273 OA
HETATM    6  C   UNL     1      -5.388   4.964 -34.243  1.00  0.00     0.104 C 
HETATM    7  C   UNL     1      -4.398   3.844 -34.011  1.00  0.00     0.026 C 
ENDROOT
BRANCH   1   8
HETATM    8  C   UNL     1      -4.046   4.026 -31.522  1.00  0.00     0.228 C 
HETATM    9  N   UNL     1      -2.994   4.855 -31.862  1.00  0.00    -0.327 N 
HETATM   10  H   UNL     1      -2.843   5.042 -32.847  1.00  0.00     0.169 HD
HETATM   11  O   UNL     1      -4.486   3.866 -30.386  1.00  0.00    -0.273 OA
BRANCH   9  12
HETATM   12  C   UNL     1      -2.065   5.463 -30.991  1.00  0.00     0.034 A 
HETATM   13  C   UNL     1      -0.759   5.015 -30.802  1.00  0.00     0.032 A 
HETATM   14  C   UNL     1       0.136   5.737 -29.999  1.00  0.00     0.032 A 
HETATM   15  C   UNL     1      -0.259   6.918 -29.375  1.00  0.00     0.034 A 
HETATM   16  C   UNL     1      -1.579   7.351 -29.538  1.00  0.00     0.032 A 
HETATM   17  C   UNL     1      -2.474   6.631 -30.340  1.00  0.00     0.032 A 
BRANCH  15  18
HETATM   18  N   UNL     1       0.597   7.730 -28.600  1.00  0.00    -0.328 N 
HETATM   19  C   UNL     1       0.866   7.617 -27.249  1.00  0.00     0.218 C 
HETATM   20  C   UNL     1       1.895   8.612 -26.769  1.00  0.00     0.117 C 
HETATM   21  O   UNL     1       0.383   6.806 -26.466  1.00  0.00    -0.274 OA
HETATM   22  H   UNL     1       1.092   8.452 -29.107  1.00  0.00     0.169 HD
ENDBRANCH  15  18
ENDBRANCH   9  12
ENDBRANCH   1   8
BRANCH   2  23
HETATM   23  C   UNL     1      -6.343   1.440 -33.264  1.00  0.00    -0.001 A 
HETATM   24  C   UNL     1      -5.990   0.187 -32.712  1.00  0.00     0.076 A 
HETATM   25  C   UNL     1      -6.181  -0.985 -33.454  1.00  0.00     0.037 A 
HETATM   26  C   UNL     1      -6.728  -0.931 -34.736  1.00  0.00     0.003 A 
HETATM   27  C   UNL     1      -7.095   0.292 -35.282  1.00  0.00     0.001 A 
HETATM   28  C   UNL     1      -6.906   1.467 -34.554  1.00  0.00     0.012 A 
BRANCH  24  29
HETATM   29  O   UNL     1      -5.460   0.220 -31.447  1.00  0.00    -0.355 OA
HETATM   30  C   UNL     1      -4.125  -0.243 -31.284  1.00  0.00     0.210 C 
ENDBRANCH  24  29
ENDBRANCH   2  23
BRANCH   3  31
HETATM   31  C   UNL     1      -8.282   3.834 -32.015  1.00  0.00     0.038 A 
HETATM   32  C   UNL     1      -9.432   3.208 -32.519  1.00  0.00     0.032 A 
HETATM   33  C   UNL     1     -10.659   3.276 -31.846  1.00  0.00     0.039 A 
HETATM   34  C   UNL     1     -10.782   3.979 -30.651  1.00  0.00     0.068 A 
HETATM   35  C   UNL     1      -9.655   4.602 -30.128  1.00  0.00     0.039 A 
HETATM   36  C   UNL     1      -8.425   4.532 -30.804  1.00  0.00     0.032 A 
BRANCH  34  37
HETATM   37  O   UNL     1     -12.033   3.980 -30.104  1.00  0.00    -0.356 OA
HETATM   38  C   UNL     1     -13.121   4.210 -30.988  1.00  0.00     0.210 C 
ENDBRANCH  34  37
ENDBRANCH   3  31
TORSDOF 7
ENDMDL
MODEL 4
REMARK VINA RESULT:      -8.9      2.849      8.447
REMARK  7 active torsions:
REMARK  status: ('A' for Active; 'I' for Inactive)
REMARK       I    between atoms: C_2  and  N_3 
REMARK    1  A    between atoms: N_3  and  C_4 
REMARK    2  A    between atoms: C_7  and  N_8 
REMARK       I    between atoms: N_8  and  C_9 
REMARK    3  A    between atoms: C_9  and  C_10 
REMARK    4  A    between atoms: C_11  and  C_12 
REMARK    5  A    between atoms: C_13  and  O_14 
REMARK    6  A    between atoms: N_20  and  C_21 
REMARK    7  A    between atoms: C_24  and  O_25 
ROOT
HETATM    1  C   UNL     1      -7.388   0.815 -32.362  1.00  0.00     0.106 C 
HETATM    2  C   UNL     1      -5.989   1.247 -32.827  1.00  0.00     0.142 C 
HETATM    3  N   UNL     1      -5.500   2.477 -32.142  1.00  0.00    -0.308 N 
HETATM    4  C   UNL     1      -5.740   2.669 -30.771  1.00  0.00     0.225 C 
HETATM    5  O   UNL     1      -5.066   3.390 -30.035  1.00  0.00    -0.273 OA
HETATM    6  C   UNL     1      -6.993   2.038 -30.192  1.00  0.00     0.104 C 
HETATM    7  C   UNL     1      -7.470   0.759 -30.843  1.00  0.00     0.026 C 
ENDROOT
BRANCH   1   8
HETATM    8  C   UNL     1      -8.529   1.660 -32.945  1.00  0.00     0.228 C 
HETATM    9  N   UNL     1      -9.534   1.989 -32.056  1.00  0.00    -0.327 N 
HETATM   10  H   UNL     1      -9.332   1.903 -31.067  1.00  0.00     0.169 HD
HETATM   11  O   UNL     1      -8.538   1.901 -34.150  1.00  0.00    -0.273 OA
BRANCH   9  12
HETATM   12  C   UNL     1     -10.844   2.415 -32.362  1.00  0.00     0.034 A 
HETATM   13  C   UNL     1     -11.693   1.756 -33.249  1.00  0.00     0.032 A 
HETATM   14  C   UNL     1     -13.020   2.182 -33.419  1.00  0.00     0.032 A 
HETATM   15  C   UNL     1     -13.517   3.270 -32.705  1.00  0.00     0.034 A 
HETATM   16  C   UNL     1     -12.655   3.951 -31.839  1.00  0.00     0.032 A 
HETATM   17  C   UNL     1     -11.331   3.527 -31.668  1.00  0.00     0.032 A 
BRANCH  15  18
HETATM   18  N   UNL     1     -14.852   3.723 -32.778  1.00  0.00    -0.328 N 
HETATM   19  C   UNL     1     -15.972   3.126 -32.230  1.00  0.00     0.218 C 
HETATM   20  C   UNL     1     -17.231   3.934 -32.440  1.00  0.00     0.117 C 
HETATM   21  O   UNL     1     -16.015   2.073 -31.604  1.00  0.00    -0.274 OA
HETATM   22  H   UNL     1     -14.989   4.603 -33.258  1.00  0.00     0.169 HD
ENDBRANCH  15  18
ENDBRANCH   9  12
ENDBRANCH   1   8
BRANCH   2  23
HETATM   23  C   UNL     1      -5.005   0.067 -32.733  1.00  0.00    -0.001 A 
HETATM   24  C   UNL     1      -5.092  -0.993 -33.664  1.00  0.00     0.076 A 
HETATM   25  C   UNL     1      -4.247  -2.103 -33.543  1.00  0.00     0.037 A 
HETATM   26  C   UNL     1      -3.309  -2.171 -32.513  1.00  0.00     0.003 A 
HETATM   27  C   UNL     1      -3.202  -1.128 -31.603  1.00  0.00     0.001 A 
HETATM   28  C   UNL     1      -4.041  -0.018 -31.710  1.00  0.00     0.012 A 
BRANCH  24  29
HETATM   29  O   UNL     1      -6.038  -0.849 -34.646  1.00  0.00    -0.355 OA
HETATM   30  C   UNL     1      -7.000  -1.888 -34.786  1.00  0.00     0.210 C 
ENDBRANCH  24  29
ENDBRANCH   2  23
BRANCH   3  31
HETATM   31  C   UNL     1      -4.616   3.366 -32.876  1.00  0.00     0.038 A 
HETATM   32  C   UNL     1      -3.235   3.382 -32.629  1.00  0.00     0.032 A 
HETATM   33  C   UNL     1      -2.384   4.285 -33.282  1.00  0.00     0.039 A 
HETATM   34  C   UNL     1      -2.885   5.208 -34.195  1.00  0.00     0.068 A 
HETATM   35  C   UNL     1      -4.249   5.207 -34.460  1.00  0.00     0.039 A 
HETATM   36  C   UNL     1      -5.101   4.301 -33.806  1.00  0.00     0.032 A 
BRANCH  34  37
HETATM   37  O   UNL     1      -1.955   6.039 -34.749  1.00  0.00    -0.356 OA
HETATM   38  C   UNL     1      -1.362   7.004 -33.890  1.00  0.00     0.210 C 
ENDBRANCH  34  37
ENDBRANCH   3  31
TORSDOF 7
ENDMDL
MODEL 5
REMARK VINA RESULT:      -8.8      2.439      7.194
REMARK  7 active torsions:
REMARK  status: ('A' for Active; 'I' for Inactive)
REMARK       I    between atoms: C_2  and  N_3 
REMARK    1  A    between atoms: N_3  and  C_4 
REMARK    2  A    between atoms: C_7  and  N_8 
REMARK       I    between atoms: N_8  and  C_9 
REMARK    3  A    between atoms: C_9  and  C_10 
REMARK    4  A    between atoms: C_11  and  C_12 
REMARK    5  A    between atoms: C_13  and  O_14 
REMARK    6  A    between atoms: N_20  and  C_21 
REMARK    7  A    between atoms: C_24  and  O_25 
ROOT
HETATM    1  C   UNL     1      -7.409   0.661 -32.239  1.00  0.00     0.106 C 
HETATM    2  C   UNL     1      -6.029   1.124 -32.730  1.00  0.00     0.142 C 
HETATM    3  N   UNL     1      -5.552   2.360 -32.046  1.00  0.00    -0.308 N 
HETATM    4  C   UNL     1      -5.768   2.537 -30.669  1.00  0.00     0.225 C 
HETATM    5  O   UNL     1      -5.094   3.267 -29.942  1.00  0.00    -0.273 OA
HETATM    6  C   UNL     1      -6.996   1.876 -30.069  1.00  0.00     0.104 C 
HETATM    7  C   UNL     1      -7.460   0.592 -30.720  1.00  0.00     0.026 C 
ENDROOT
BRANCH   1   8
HETATM    8  C   UNL     1      -8.579   1.485 -32.794  1.00  0.00     0.228 C 
HETATM    9  N   UNL     1      -8.245   2.394 -33.779  1.00  0.00    -0.327 N 
HETATM   10  H   UNL     1      -7.356   2.272 -34.249  1.00  0.00     0.169 HD
HETATM   11  O   UNL     1      -9.689   1.368 -32.280  1.00  0.00    -0.273 OA
BRANCH   9  12
HETATM   12  C   UNL     1      -8.994   3.513 -34.202  1.00  0.00     0.034 A 
HETATM   13  C   UNL     1     -10.180   3.432 -34.930  1.00  0.00     0.032 A 
HETATM   14  C   UNL     1     -10.922   4.587 -35.221  1.00  0.00     0.032 A 
HETATM   15  C   UNL     1     -10.491   5.839 -34.789  1.00  0.00     0.034 A 
HETATM   16  C   UNL     1      -9.284   5.924 -34.087  1.00  0.00     0.032 A 
HETATM   17  C   UNL     1      -8.543   4.772 -33.795  1.00  0.00     0.032 A 
BRANCH  15  18
HETATM   18  N   UNL     1     -11.208   7.037 -34.992  1.00  0.00    -0.328 N 
HETATM   19  C   UNL     1     -11.028   7.963 -36.003  1.00  0.00     0.218 C 
HETATM   20  C   UNL     1     -12.031   9.091 -35.953  1.00  0.00     0.117 C 
HETATM   21  O   UNL     1     -10.188   7.927 -36.895  1.00  0.00    -0.274 OA
HETATM   22  H   UNL     1     -11.960   7.213 -34.338  1.00  0.00     0.169 HD
ENDBRANCH  15  18
ENDBRANCH   9  12
ENDBRANCH   1   8
BRANCH   2  23
HETATM   23  C   UNL     1      -5.019  -0.036 -32.663  1.00  0.00    -0.001 A 
HETATM   24  C   UNL     1      -5.110  -1.097 -33.592  1.00  0.00     0.076 A 
HETATM   25  C   UNL     1      -4.240  -2.189 -33.496  1.00  0.00     0.037 A 
HETATM   26  C   UNL     1      -3.273  -2.238 -32.492  1.00  0.00     0.003 A 
HETATM   27  C   UNL     1      -3.162  -1.194 -31.584  1.00  0.00     0.001 A 
HETATM   28  C   UNL     1      -4.026  -0.101 -31.668  1.00  0.00     0.012 A 
BRANCH  24  29
HETATM   29  O   UNL     1      -6.086  -0.972 -34.548  1.00  0.00    -0.355 OA
HETATM   30  C   UNL     1      -6.957  -2.079 -34.743  1.00  0.00     0.210 C 
ENDBRANCH  24  29
ENDBRANCH   2  23
BRANCH   3  31
HETATM   31  C   UNL     1      -4.701   3.272 -32.791  1.00  0.00     0.038 A 
HETATM   32  C   UNL     1      -3.313   3.296 -32.591  1.00  0.00     0.032 A 
HETATM   33  C   UNL     1      -2.493   4.220 -33.253  1.00  0.00     0.039 A 
HETATM   34  C   UNL     1      -3.033   5.156 -34.130  1.00  0.00     0.068 A 
HETATM   35  C   UNL     1      -4.405   5.148 -34.349  1.00  0.00     0.039 A 
HETATM   36  C   UNL     1      -5.225   4.220 -33.685  1.00  0.00     0.032 A 
BRANCH  34  37
HETATM   37  O   UNL     1      -2.129   6.008 -34.698  1.00  0.00    -0.356 OA
HETATM   38  C   UNL     1      -1.819   7.192 -33.975  1.00  0.00     0.210 C 
ENDBRANCH  34  37
ENDBRANCH   3  31
TORSDOF 7
ENDMDL
MODEL 6
REMARK VINA RESULT:      -8.7      3.843      9.271
REMARK  7 active torsions:
REMARK  status: ('A' for Active; 'I' for Inactive)
REMARK       I    between atoms: C_2  and  N_3 
REMARK    1  A    between atoms: N_3  and  C_4 
REMARK    2  A    between atoms: C_7  and  N_8 
REMARK       I    between atoms: N_8  and  C_9 
REMARK    3  A    between atoms: C_9  and  C_10 
REMARK    4  A    between atoms: C_11  and  C_12 
REMARK    5  A    between atoms: C_13  and  O_14 
REMARK    6  A    between atoms: N_20  and  C_21 
REMARK    7  A    between atoms: C_24  and  O_25 
ROOT
HETATM    1  C   UNL     1      -4.539   5.227 -31.826  1.00  0.00     0.106 C 
HETATM    2  C   UNL     1      -3.845   6.176 -30.836  1.00  0.00     0.142 C 
HETATM    3  N   UNL     1      -2.556   6.718 -31.353  1.00  0.00    -0.308 N 
HETATM    4  C   UNL     1      -2.434   7.096 -32.701  1.00  0.00     0.225 C 
HETATM    5  O   UNL     1      -1.612   7.904 -33.131  1.00  0.00    -0.273 OA
HETATM    6  C   UNL     1      -3.299   6.358 -33.708  1.00  0.00     0.104 C 
HETATM    7  C   UNL     1      -4.634   5.850 -33.211  1.00  0.00     0.026 C 
ENDROOT
BRANCH   1   8
HETATM    8  C   UNL     1      -3.914   3.828 -31.892  1.00  0.00     0.228 C 
HETATM    9  N   UNL     1      -4.639   2.890 -32.603  1.00  0.00    -0.327 N 
HETATM   10  H   UNL     1      -5.351   3.231 -33.238  1.00  0.00     0.169 HD
HETATM   11  O   UNL     1      -2.893   3.597 -31.248  1.00  0.00    -0.273 OA
BRANCH   9  12
HETATM   12  C   UNL     1      -4.527   1.486 -32.532  1.00  0.00     0.034 A 
HETATM   13  C   UNL     1      -5.613   0.616 -32.469  1.00  0.00     0.032 A 
HETATM   14  C   UNL     1      -5.421  -0.774 -32.508  1.00  0.00     0.032 A 
HETATM   15  C   UNL     1      -4.142  -1.314 -32.613  1.00  0.00     0.034 A 
HETATM   16  C   UNL     1      -3.049  -0.442 -32.643  1.00  0.00     0.032 A 
HETATM   17  C   UNL     1      -3.239   0.945 -32.604  1.00  0.00     0.032 A 
BRANCH  15  18
HETATM   18  N   UNL     1      -3.870  -2.695 -32.715  1.00  0.00    -0.328 N 
HETATM   19  C   UNL     1      -4.053  -3.508 -33.819  1.00  0.00     0.218 C 
HETATM   20  C   UNL     1      -3.580  -4.923 -33.592  1.00  0.00     0.117 C 
HETATM   21  O   UNL     1      -4.515  -3.181 -34.906  1.00  0.00    -0.274 OA
HETATM   22  H   UNL     1      -3.464  -3.123 -31.893  1.00  0.00     0.169 HD
ENDBRANCH  15  18
ENDBRANCH   9  12
ENDBRANCH   1   8
BRANCH   2  23
HETATM   23  C   UNL     1      -4.821   7.272 -30.370  1.00  0.00    -0.001 A 
HETATM   24  C   UNL     1      -5.629   7.051 -29.232  1.00  0.00     0.076 A 
HETATM   25  C   UNL     1      -6.568   8.013 -28.842  1.00  0.00     0.037 A 
HETATM   26  C   UNL     1      -6.711   9.198 -29.564  1.00  0.00     0.003 A 
HETATM   27  C   UNL     1      -5.910   9.434 -30.674  1.00  0.00     0.001 A 
HETATM   28  C   UNL     1      -4.973   8.481 -31.074  1.00  0.00     0.012 A 
BRANCH  24  29
HETATM   29  O   UNL     1      -5.426   5.863 -28.577  1.00  0.00    -0.355 OA
HETATM   30  C   UNL     1      -5.216   5.918 -27.171  1.00  0.00     0.210 C 
ENDBRANCH  24  29
ENDBRANCH   2  23
BRANCH   3  31
HETATM   31  C   UNL     1      -1.505   7.020 -30.397  1.00  0.00     0.038 A 
HETATM   32  C   UNL     1      -1.574   8.157 -29.579  1.00  0.00     0.032 A 
HETATM   33  C   UNL     1      -0.533   8.495 -28.703  1.00  0.00     0.039 A 
HETATM   34  C   UNL     1       0.616   7.714 -28.622  1.00  0.00     0.068 A 
HETATM   35  C   UNL     1       0.704   6.578 -29.418  1.00  0.00     0.039 A 
HETATM   36  C   UNL     1      -0.341   6.241 -30.295  1.00  0.00     0.032 A 
BRANCH  34  37
HETATM   37  O   UNL     1       1.560   8.159 -27.742  1.00  0.00    -0.356 OA
HETATM   38  C   UNL     1       1.511   7.630 -26.424  1.00  0.00     0.210 C 
ENDBRANCH  34  37
ENDBRANCH   3  31
TORSDOF 7
ENDMDL
MODEL 7
REMARK VINA RESULT:      -8.7      2.727      7.868
REMARK  7 active torsions:
REMARK  status: ('A' for Active; 'I' for Inactive)
REMARK       I    between atoms: C_2  and  N_3 
REMARK    1  A    between atoms: N_3  and  C_4 
REMARK    2  A    between atoms: C_7  and  N_8 
REMARK       I    between atoms: N_8  and  C_9 
REMARK    3  A    between atoms: C_9  and  C_10 
REMARK    4  A    between atoms: C_11  and  C_12 
REMARK    5  A    between atoms: C_13  and  O_14 
REMARK    6  A    between atoms: N_20  and  C_21 
REMARK    7  A    between atoms: C_24  and  O_25 
ROOT
HETATM    1  C   UNL     1      -7.937   2.169 -32.542  1.00  0.00     0.106 C 
HETATM    2  C   UNL     1      -6.430   2.314 -32.806  1.00  0.00     0.142 C 
HETATM    3  N   UNL     1      -5.764   3.269 -31.876  1.00  0.00    -0.308 N 
HETATM    4  C   UNL     1      -6.120   3.301 -30.517  1.00  0.00     0.225 C 
HETATM    5  O   UNL     1      -5.396   3.715 -29.612  1.00  0.00    -0.273 OA
HETATM    6  C   UNL     1      -7.545   2.912 -30.164  1.00  0.00     0.104 C 
HETATM    7  C   UNL     1      -8.214   1.902 -31.070  1.00  0.00     0.026 C 
ENDROOT
BRANCH   1   8
HETATM    8  C   UNL     1      -8.778   3.344 -33.058  1.00  0.00     0.228 C 
HETATM    9  N   UNL     1     -10.139   3.232 -32.850  1.00  0.00    -0.327 N 
HETATM   10  H   UNL     1     -10.455   2.560 -32.161  1.00  0.00     0.169 HD
HETATM   11  O   UNL     1      -8.227   4.239 -33.695  1.00  0.00    -0.273 OA
BRANCH   9  12
HETATM   12  C   UNL     1     -11.168   3.933 -33.514  1.00  0.00     0.034 A 
HETATM   13  C   UNL     1     -11.791   5.072 -33.007  1.00  0.00     0.032 A 
HETATM   14  C   UNL     1     -12.733   5.775 -33.775  1.00  0.00     0.032 A 
HETATM   15  C   UNL     1     -13.064   5.350 -35.060  1.00  0.00     0.034 A 
HETATM   16  C   UNL     1     -12.463   4.189 -35.556  1.00  0.00     0.032 A 
HETATM   17  C   UNL     1     -11.523   3.487 -34.791  1.00  0.00     0.032 A 
BRANCH  15  18
HETATM   18  N   UNL     1     -13.956   6.033 -35.915  1.00  0.00    -0.328 N 
HETATM   19  C   UNL     1     -13.688   7.141 -36.697  1.00  0.00     0.218 C 
HETATM   20  C   UNL     1     -14.863   7.558 -37.548  1.00  0.00     0.117 C 
HETATM   21  O   UNL     1     -12.629   7.755 -36.768  1.00  0.00    -0.274 OA
HETATM   22  H   UNL     1     -14.885   5.638 -35.983  1.00  0.00     0.169 HD
ENDBRANCH  15  18
ENDBRANCH   9  12
ENDBRANCH   1   8
BRANCH   2  23
HETATM   23  C   UNL     1      -5.757   0.930 -32.842  1.00  0.00    -0.001 A 
HETATM   24  C   UNL     1      -5.922   0.100 -33.974  1.00  0.00     0.076 A 
HETATM   25  C   UNL     1      -5.371  -1.187 -33.986  1.00  0.00     0.037 A 
HETATM   26  C   UNL     1      -4.650  -1.659 -32.890  1.00  0.00     0.003 A 
HETATM   27  C   UNL     1      -4.466  -0.847 -31.778  1.00  0.00     0.001 A 
HETATM   28  C   UNL     1      -5.013   0.436 -31.753  1.00  0.00     0.012 A 
BRANCH  24  29
HETATM   29  O   UNL     1      -6.642   0.639 -35.009  1.00  0.00    -0.355 OA
HETATM   30  C   UNL     1      -7.848  -0.017 -35.380  1.00  0.00     0.210 C 
ENDBRANCH  24  29
ENDBRANCH   2  23
BRANCH   3  31
HETATM   31  C   UNL     1      -4.619   4.018 -32.365  1.00  0.00     0.038 A 
HETATM   32  C   UNL     1      -4.787   5.172 -33.144  1.00  0.00     0.032 A 
HETATM   33  C   UNL     1      -3.689   5.860 -33.680  1.00  0.00     0.039 A 
HETATM   34  C   UNL     1      -2.389   5.414 -33.462  1.00  0.00     0.068 A 
HETATM   35  C   UNL     1      -2.198   4.277 -32.688  1.00  0.00     0.039 A 
HETATM   36  C   UNL     1      -3.299   3.588 -32.151  1.00  0.00     0.032 A 
BRANCH  34  37
HETATM   37  O   UNL     1      -1.412   6.165 -34.050  1.00  0.00    -0.356 OA
HETATM   38  C   UNL     1      -0.805   7.171 -33.249  1.00  0.00     0.210 C 
ENDBRANCH  34  37
ENDBRANCH   3  31
TORSDOF 7
ENDMDL
MODEL 8
REMARK VINA RESULT:      -8.5      3.179      6.616
REMARK  7 active torsions:
REMARK  status: ('A' for Active; 'I' for Inactive)
REMARK       I    between atoms: C_2  and  N_3 
REMARK    1  A    between atoms: N_3  and  C_4 
REMARK    2  A    between atoms: C_7  and  N_8 
REMARK       I    between atoms: N_8  and  C_9 
REMARK    3  A    between atoms: C_9  and  C_10 
REMARK    4  A    between atoms: C_11  and  C_12 
REMARK    5  A    between atoms: C_13  and  O_14 
REMARK    6  A    between atoms: N_20  and  C_21 
REMARK    7  A    between atoms: C_24  and  O_25 
ROOT
HETATM    1  C   UNL     1      -7.553   4.761 -33.418  1.00  0.00     0.106 C 
HETATM    2  C   UNL     1      -9.058   4.504 -33.592  1.00  0.00     0.142 C 
HETATM    3  N   UNL     1      -9.646   3.707 -32.479  1.00  0.00    -0.308 N 
HETATM    4  C   UNL     1      -9.248   3.940 -31.152  1.00  0.00     0.225 C 
HETATM    5  O   UNL     1      -9.922   3.667 -30.159  1.00  0.00    -0.273 OA
HETATM    6  C   UNL     1      -7.834   4.449 -30.932  1.00  0.00     0.104 C 
HETATM    7  C   UNL     1      -7.244   5.305 -32.031  1.00  0.00     0.026 C 
ENDROOT
BRANCH   1   8
HETATM    8  C   UNL     1      -6.670   3.550 -33.746  1.00  0.00     0.228 C 
HETATM    9  N   UNL     1      -7.350   2.415 -34.148  1.00  0.00    -0.327 N 
HETATM   10  H   UNL     1      -8.308   2.528 -34.458  1.00  0.00     0.169 HD
HETATM   11  O   UNL     1      -5.460   3.619 -33.542  1.00  0.00    -0.273 OA
BRANCH   9  12
HETATM   12  C   UNL     1      -6.873   1.088 -34.155  1.00  0.00     0.034 A 
HETATM   13  C   UNL     1      -6.111   0.524 -33.133  1.00  0.00     0.032 A 
HETATM   14  C   UNL     1      -5.765  -0.836 -33.164  1.00  0.00     0.032 A 
HETATM   15  C   UNL     1      -6.176  -1.652 -34.216  1.00  0.00     0.034 A 
HETATM   16  C   UNL     1      -6.913  -1.079 -35.257  1.00  0.00     0.032 A 
HETATM   17  C   UNL     1      -7.259   0.278 -35.227  1.00  0.00     0.032 A 
BRANCH  15  18
HETATM   18  N   UNL     1      -5.918  -3.037 -34.291  1.00  0.00    -0.328 N 
HETATM   19  C   UNL     1      -4.687  -3.666 -34.252  1.00  0.00     0.218 C 
HETATM   20  C   UNL     1      -4.795  -5.172 -34.279  1.00  0.00     0.117 C 
HETATM   21  O   UNL     1      -3.588  -3.130 -34.177  1.00  0.00    -0.274 OA
HETATM   22  H   UNL     1      -6.735  -3.632 -34.344  1.00  0.00     0.169 HD
ENDBRANCH  15  18
ENDBRANCH   9  12
ENDBRANCH   1   8
BRANCH   2  23
HETATM   23  C   UNL     1      -9.800   5.828 -33.852  1.00  0.00    -0.001 A 
HETATM   24  C   UNL     1     -10.693   5.928 -34.943  1.00  0.00     0.076 A 
HETATM   25  C   UNL     1     -11.319   7.147 -35.227  1.00  0.00     0.037 A 
HETATM   26  C   UNL     1     -11.078   8.269 -34.434  1.00  0.00     0.003 A 
HETATM   27  C   UNL     1     -10.216   8.179 -33.349  1.00  0.00     0.001 A 
HETATM   28  C   UNL     1      -9.584   6.970 -33.058  1.00  0.00     0.012 A 
BRANCH  24  29
HETATM   29  O   UNL     1     -10.877   4.780 -35.670  1.00  0.00    -0.355 OA
HETATM   30  C   UNL     1     -12.217   4.369 -35.919  1.00  0.00     0.210 C 
ENDBRANCH  24  29
ENDBRANCH   2  23
BRANCH   3  31
HETATM   31  C   UNL     1     -10.766   2.832 -32.778  1.00  0.00     0.038 A 
HETATM   32  C   UNL     1     -10.564   1.553 -33.315  1.00  0.00     0.032 A 
HETATM   33  C   UNL     1     -11.640   0.729 -33.673  1.00  0.00     0.039 A 
HETATM   34  C   UNL     1     -12.954   1.159 -33.516  1.00  0.00     0.068 A 
HETATM   35  C   UNL     1     -13.180   2.421 -32.980  1.00  0.00     0.039 A 
HETATM   36  C   UNL     1     -12.100   3.245 -32.621  1.00  0.00     0.032 A 
BRANCH  34  37
HETATM   37  O   UNL     1     -13.908   0.269 -33.916  1.00  0.00    -0.356 OA
HETATM   38  C   UNL     1     -15.166   0.805 -34.304  1.00  0.00     0.210 C 
ENDBRANCH  34  37
ENDBRANCH   3  31
TORSDOF 7
ENDMDL
MODEL 9
REMARK VINA RESULT:      -8.4      3.021      8.906
REMARK  7 active torsions:
REMARK  status: ('A' for Active; 'I' for Inactive)
REMARK       I    between atoms: C_2  and  N_3 
REMARK    1  A    between atoms: N_3  and  C_4 
REMARK    2  A    between atoms: C_7  and  N_8 
REMARK       I    between atoms: N_8  and  C_9 
REMARK    3  A    between atoms: C_9  and  C_10 
REMARK    4  A    between atoms: C_11  and  C_12 
REMARK    5  A    between atoms: C_13  and  O_14 
REMARK    6  A    between atoms: N_20  and  C_21 
REMARK    7  A    between atoms: C_24  and  O_25 
ROOT
HETATM    1  C   UNL     1      -6.620   2.513 -33.701  1.00  0.00     0.106 C 
HETATM    2  C   UNL     1      -6.366   3.630 -32.677  1.00  0.00     0.142 C 
HETATM    3  N   UNL     1      -6.685   3.223 -31.279  1.00  0.00    -0.308 N 
HETATM    4  C   UNL     1      -6.360   1.935 -30.823  1.00  0.00     0.225 C 
HETATM    5  O   UNL     1      -6.191   1.630 -29.643  1.00  0.00    -0.273 OA
HETATM    6  C   UNL     1      -6.342   0.819 -31.854  1.00  0.00     0.104 C 
HETATM    7  C   UNL     1      -5.967   1.209 -33.266  1.00  0.00     0.026 C 
ENDROOT
BRANCH   1   8
HETATM    8  C   UNL     1      -8.101   2.302 -34.042  1.00  0.00     0.228 C 
HETATM    9  N   UNL     1      -8.900   3.422 -33.922  1.00  0.00    -0.327 N 
HETATM   10  H   UNL     1      -8.441   4.325 -33.894  1.00  0.00     0.169 HD
HETATM   11  O   UNL     1      -8.500   1.167 -34.295  1.00  0.00    -0.273 OA
BRANCH   9  12
HETATM   12  C   UNL     1     -10.305   3.465 -33.803  1.00  0.00     0.034 A 
HETATM   13  C   UNL     1     -11.184   3.365 -34.880  1.00  0.00     0.032 A 
HETATM   14  C   UNL     1     -12.571   3.309 -34.669  1.00  0.00     0.032 A 
HETATM   15  C   UNL     1     -13.098   3.349 -33.380  1.00  0.00     0.034 A 
HETATM   16  C   UNL     1     -12.217   3.482 -32.302  1.00  0.00     0.032 A 
HETATM   17  C   UNL     1     -10.833   3.538 -32.511  1.00  0.00     0.032 A 
BRANCH  15  18
HETATM   18  N   UNL     1     -14.473   3.240 -33.083  1.00  0.00    -0.328 N 
HETATM   19  C   UNL     1     -15.198   2.082 -32.871  1.00  0.00     0.218 C 
HETATM   20  C   UNL     1     -16.636   2.348 -32.497  1.00  0.00     0.117 C 
HETATM   21  O   UNL     1     -14.783   0.931 -32.935  1.00  0.00    -0.274 OA
HETATM   22  H   UNL     1     -14.969   4.117 -32.980  1.00  0.00     0.169 HD
ENDBRANCH  15  18
ENDBRANCH   9  12
ENDBRANCH   1   8
BRANCH   2  23
HETATM   23  C   UNL     1      -4.942   4.190 -32.837  1.00  0.00    -0.001 A 
HETATM   24  C   UNL     1      -4.754   5.572 -33.068  1.00  0.00     0.076 A 
HETATM   25  C   UNL     1      -3.467   6.079 -33.283  1.00  0.00     0.037 A 
HETATM   26  C   UNL     1      -2.360   5.231 -33.263  1.00  0.00     0.003 A 
HETATM   27  C   UNL     1      -2.529   3.875 -33.020  1.00  0.00     0.001 A 
HETATM   28  C   UNL     1      -3.807   3.357 -32.807  1.00  0.00     0.012 A 
BRANCH  24  29
HETATM   29  O   UNL     1      -5.893   6.336 -33.071  1.00  0.00    -0.355 OA
HETATM   30  C   UNL     1      -6.055   7.275 -32.013  1.00  0.00     0.210 C 
ENDBRANCH  24  29
ENDBRANCH   2  23
BRANCH   3  31
HETATM   31  C   UNL     1      -7.157   4.243 -30.358  1.00  0.00     0.038 A 
HETATM   32  C   UNL     1      -6.349   4.703 -29.309  1.00  0.00     0.032 A 
HETATM   33  C   UNL     1      -6.821   5.634 -28.373  1.00  0.00     0.039 A 
HETATM   34  C   UNL     1      -8.119   6.130 -28.450  1.00  0.00     0.068 A 
HETATM   35  C   UNL     1      -8.937   5.694 -29.485  1.00  0.00     0.039 A 
HETATM   36  C   UNL     1      -8.462   4.760 -30.422  1.00  0.00     0.032 A 
BRANCH  34  37
HETATM   37  O   UNL     1      -8.459   7.019 -27.471  1.00  0.00    -0.356 OA
HETATM   38  C   UNL     1      -8.438   8.398 -27.819  1.00  0.00     0.210 C 
ENDBRANCH  34  37
ENDBRANCH   3  31
TORSDOF 7
ENDMDL
MODEL 10
REMARK VINA RESULT:      -8.4      3.670      9.926
REMARK  7 active torsions:
REMARK  status: ('A' for Active; 'I' for Inactive)
REMARK       I    between atoms: C_2  and  N_3 
REMARK    1  A    between atoms: N_3  and  C_4 
REMARK    2  A    between atoms: C_7  and  N_8 
REMARK       I    between atoms: N_8  and  C_9 
REMARK    3  A    between atoms: C_9  and  C_10 
REMARK    4  A    between atoms: C_11  and  C_12 
REMARK    5  A    between atoms: C_13  and  O_14 
REMARK    6  A    between atoms: N_20  and  C_21 
REMARK    7  A    between atoms: C_24  and  O_25 
ROOT
HETATM    1  C   UNL     1      -3.667   7.390 -27.453  1.00  0.00     0.106 C 
HETATM    2  C   UNL     1      -2.761   7.453 -28.693  1.00  0.00     0.142 C 
HETATM    3  N   UNL     1      -3.389   8.170 -29.838  1.00  0.00    -0.308 N 
HETATM    4  C   UNL     1      -4.152   9.329 -29.618  1.00  0.00     0.225 C 
HETATM    5  O   UNL     1      -4.357  10.204 -30.459  1.00  0.00    -0.273 OA
HETATM    6  C   UNL     1      -4.872   9.442 -28.286  1.00  0.00     0.104 C 
HETATM    7  C   UNL     1      -4.218   8.764 -27.103  1.00  0.00     0.026 C 
ENDROOT
BRANCH   1   8
HETATM    8  C   UNL     1      -4.794   6.353 -27.555  1.00  0.00     0.228 C 
HETATM    9  N   UNL     1      -4.811   5.612 -28.721  1.00  0.00    -0.327 N 
HETATM   10  H   UNL     1      -3.966   5.598 -29.280  1.00  0.00     0.169 HD
HETATM   11  O   UNL     1      -5.649   6.310 -26.673  1.00  0.00    -0.273 OA
BRANCH   9  12
HETATM   12  C   UNL     1      -5.891   4.879 -29.256  1.00  0.00     0.034 A 
HETATM   13  C   UNL     1      -7.133   5.430 -29.567  1.00  0.00     0.032 A 
HETATM   14  C   UNL     1      -8.122   4.656 -30.195  1.00  0.00     0.032 A 
HETATM   15  C   UNL     1      -7.884   3.323 -30.522  1.00  0.00     0.034 A 
HETATM   16  C   UNL     1      -6.650   2.762 -30.180  1.00  0.00     0.032 A 
HETATM   17  C   UNL     1      -5.662   3.532 -29.554  1.00  0.00     0.032 A 
BRANCH  15  18
HETATM   18  N   UNL     1      -8.804   2.498 -31.204  1.00  0.00    -0.328 N 
HETATM   19  C   UNL     1      -8.852   2.235 -32.560  1.00  0.00     0.218 C 
HETATM   20  C   UNL     1      -9.927   1.241 -32.929  1.00  0.00     0.117 C 
HETATM   21  O   UNL     1      -8.120   2.698 -33.427  1.00  0.00    -0.274 OA
HETATM   22  H   UNL     1      -9.480   2.022 -30.620  1.00  0.00     0.169 HD
ENDBRANCH  15  18
ENDBRANCH   9  12
ENDBRANCH   1   8
BRANCH   2  23
HETATM   23  C   UNL     1      -1.375   8.006 -28.315  1.00  0.00    -0.001 A 
HETATM   24  C   UNL     1      -0.216   7.254 -28.611  1.00  0.00     0.076 A 
HETATM   25  C   UNL     1       1.042   7.717 -28.209  1.00  0.00     0.037 A 
HETATM   26  C   UNL     1       1.167   8.925 -27.523  1.00  0.00     0.003 A 
HETATM   27  C   UNL     1       0.037   9.683 -27.242  1.00  0.00     0.001 A 
HETATM   28  C   UNL     1      -1.223   9.230 -27.634  1.00  0.00     0.012 A 
BRANCH  24  29
HETATM   29  O   UNL     1      -0.424   6.080 -29.288  1.00  0.00    -0.355 OA
HETATM   30  C   UNL     1       0.443   5.790 -30.379  1.00  0.00     0.210 C 
ENDBRANCH  24  29
ENDBRANCH   2  23
BRANCH   3  31
HETATM   31  C   UNL     1      -3.036   7.755 -31.184  1.00  0.00     0.038 A 
HETATM   32  C   UNL     1      -3.786   6.785 -31.865  1.00  0.00     0.032 A 
HETATM   33  C   UNL     1      -3.412   6.327 -33.136  1.00  0.00     0.039 A 
HETATM   34  C   UNL     1      -2.271   6.815 -33.765  1.00  0.00     0.068 A 
HETATM   35  C   UNL     1      -1.514   7.781 -33.113  1.00  0.00     0.039 A 
HETATM   36  C   UNL     1      -1.891   8.239 -31.839  1.00  0.00     0.032 A 
BRANCH  34  37
HETATM   37  O   UNL     1      -2.010   6.276 -34.992  1.00  0.00    -0.356 OA
HETATM   38  C   UNL     1      -1.539   4.935 -35.020  1.00  0.00     0.210 C 
ENDBRANCH  34  37
ENDBRANCH   3  31
TORSDOF 7
ENDMDL
