MODEL 1
REMARK VINA RESULT:      -9.1      0.000      0.000
REMARK  3 active torsions:
REMARK  status: ('A' for Active; 'I' for Inactive)
REMARK    1  A    between atoms: C_6  and  N_7 
REMARK       I    between atoms: N_7  and  C_8 
REMARK    2  A    between atoms: C_8  and  C_9 
REMARK    3  A    between atoms: C_9  and  C_10 
ROOT
HETATM    1  N   UNL     1      -5.176   0.537 -32.910  1.00  0.00    -0.325 N 
HETATM    2  C   UNL     1      -5.692   0.970 -31.703  1.00  0.00     0.228 C 
HETATM    3  O   UNL     1      -6.445   0.335 -30.970  1.00  0.00    -0.273 OA
HETATM    4  H   UNL     1      -4.263   0.938 -33.140  1.00  0.00     0.169 HD
ENDROOT
BRANCH   2   5
HETATM    5  C   UNL     1      -5.271   2.379 -31.334  1.00  0.00     0.165 C 
BRANCH   5   6
HETATM    6  C   UNL     1      -4.839   3.240 -32.508  1.00  0.00     0.074 A 
HETATM    7  N   UNL     1      -5.696   3.339 -33.482  1.00  0.00    -0.175 NA
HETATM    8  N   UNL     1      -5.389   4.123 -34.546  1.00  0.00    -0.243 N 
HETATM    9  C   UNL     1      -4.257   4.886 -34.686  1.00  0.00     0.272 A 
HETATM   10  H   UNL     1      -6.076   4.176 -35.293  1.00  0.00     0.192 HD
HETATM   11  O   UNL     1      -4.067   5.601 -35.663  1.00  0.00    -0.266 OA
HETATM   12  C   UNL     1      -3.275   4.793 -33.593  1.00  0.00     0.046 A 
HETATM   13  C   UNL     1      -3.535   3.956 -32.506  1.00  0.00     0.006 A 
HETATM   14  C   UNL     1      -2.091   5.538 -33.663  1.00  0.00     0.018 A 
HETATM   15  C   UNL     1      -2.578   3.852 -31.489  1.00  0.00     0.014 A 
HETATM   16  C   UNL     1      -1.394   4.598 -31.557  1.00  0.00     0.001 A 
HETATM   17  C   UNL     1      -1.153   5.442 -32.639  1.00  0.00     0.001 A 
ENDBRANCH   5   6
ENDBRANCH   2   5
BRANCH   1  18
HETATM   18  C   UNL     1      -5.461  -0.695 -33.552  1.00  0.00     0.062 A 
HETATM   19  C   UNL     1      -4.560  -1.760 -33.345  1.00  0.00     0.061 A 
HETATM   20  C   UNL     1      -4.764  -3.012 -33.932  1.00  0.00     0.033 A 
HETATM   21 CL   UNL     1      -3.175  -1.580 -32.316  1.00  0.00    -0.082 Cl
HETATM   22  C   UNL     1      -5.859  -3.222 -34.769  1.00  0.00    -0.060 A 
HETATM   23  C   UNL     1      -6.113  -4.571 -35.374  1.00  0.00     0.048 C 
HETATM   24  C   UNL     1      -6.742  -2.161 -35.002  1.00  0.00     0.016 A 
HETATM   25  C   UNL     1      -6.541  -0.884 -34.434  1.00  0.00    -0.033 A 
HETATM   26  C   UNL     1      -7.484   0.206 -34.865  1.00  0.00     0.050 C 
ENDBRANCH   1  18
TORSDOF 3
ENDMDL
MODEL 2
REMARK VINA RESULT:      -9.0      1.694      2.311
REMARK  3 active torsions:
REMARK  status: ('A' for Active; 'I' for Inactive)
REMARK    1  A    between atoms: C_6  and  N_7 
REMARK       I    between atoms: N_7  and  C_8 
REMARK    2  A    between atoms: C_8  and  C_9 
REMARK    3  A    between atoms: C_9  and  C_10 
ROOT
HETATM    1  N   UNL     1      -5.745   1.061 -33.441  1.00  0.00    -0.325 N 
HETATM    2  C   UNL     1      -6.629   1.674 -32.573  1.00  0.00     0.228 C 
HETATM    3  O   UNL     1      -7.551   1.127 -31.976  1.00  0.00    -0.273 OA
HETATM    4  H   UNL     1      -4.821   1.500 -33.472  1.00  0.00     0.169 HD
ENDROOT
BRANCH   2   5
HETATM    5  C   UNL     1      -6.396   3.165 -32.422  1.00  0.00     0.165 C 
BRANCH   5   6
HETATM    6  C   UNL     1      -4.952   3.558 -32.164  1.00  0.00     0.074 A 
HETATM    7  N   UNL     1      -4.472   3.215 -31.003  1.00  0.00    -0.175 NA
HETATM    8  N   UNL     1      -3.176   3.503 -30.722  1.00  0.00    -0.243 N 
HETATM    9  C   UNL     1      -2.276   4.091 -31.575  1.00  0.00     0.272 A 
HETATM   10  H   UNL     1      -2.832   3.228 -29.806  1.00  0.00     0.192 HD
HETATM   11  O   UNL     1      -1.108   4.285 -31.261  1.00  0.00    -0.266 OA
HETATM   12  C   UNL     1      -2.797   4.483 -32.894  1.00  0.00     0.046 A 
HETATM   13  C   UNL     1      -4.139   4.248 -33.201  1.00  0.00     0.006 A 
HETATM   14  C   UNL     1      -1.942   5.092 -33.822  1.00  0.00     0.018 A 
HETATM   15  C   UNL     1      -4.629   4.655 -34.448  1.00  0.00     0.014 A 
HETATM   16  C   UNL     1      -3.775   5.264 -35.376  1.00  0.00     0.001 A 
HETATM   17  C   UNL     1      -2.433   5.478 -35.066  1.00  0.00     0.001 A 
ENDBRANCH   5   6
ENDBRANCH   2   5
BRANCH   1  18
HETATM   18  C   UNL     1      -5.771  -0.298 -33.845  1.00  0.00     0.062 A 
HETATM   19  C   UNL     1      -4.690  -1.114 -33.449  1.00  0.00     0.061 A 
HETATM   20  C   UNL     1      -4.634  -2.467 -33.796  1.00  0.00     0.033 A 
HETATM   21 CL   UNL     1      -3.399  -0.487 -32.476  1.00  0.00    -0.082 Cl
HETATM   22  C   UNL     1      -5.642  -3.032 -34.575  1.00  0.00    -0.060 A 
HETATM   23  C   UNL     1      -5.615  -4.491 -34.921  1.00  0.00     0.048 C 
HETATM   24  C   UNL     1      -6.703  -2.222 -34.996  1.00  0.00     0.016 A 
HETATM   25  C   UNL     1      -6.766  -0.849 -34.672  1.00  0.00    -0.033 A 
HETATM   26  C   UNL     1      -7.885  -0.057 -35.292  1.00  0.00     0.050 C 
ENDBRANCH   1  18
TORSDOF 3
ENDMDL
MODEL 3
REMARK VINA RESULT:      -8.8      2.250      3.000
REMARK  3 active torsions:
REMARK  status: ('A' for Active; 'I' for Inactive)
REMARK    1  A    between atoms: C_6  and  N_7 
REMARK       I    between atoms: N_7  and  C_8 
REMARK    2  A    between atoms: C_8  and  C_9 
REMARK    3  A    between atoms: C_9  and  C_10 
ROOT
HETATM    1  N   UNL     1      -6.139   0.703 -32.928  1.00  0.00    -0.325 N 
HETATM    2  C   UNL     1      -6.465   1.867 -33.598  1.00  0.00     0.228 C 
HETATM    3  O   UNL     1      -6.784   1.955 -34.780  1.00  0.00    -0.273 OA
HETATM    4  H   UNL     1      -6.357   0.723 -31.929  1.00  0.00     0.169 HD
ENDROOT
BRANCH   2   5
HETATM    5  C   UNL     1      -6.366   3.111 -32.736  1.00  0.00     0.165 C 
BRANCH   5   6
HETATM    6  C   UNL     1      -4.953   3.492 -32.333  1.00  0.00     0.074 A 
HETATM    7  N   UNL     1      -4.566   3.071 -31.163  1.00  0.00    -0.175 NA
HETATM    8  N   UNL     1      -3.302   3.346 -30.756  1.00  0.00    -0.243 N 
HETATM    9  C   UNL     1      -2.341   3.997 -31.488  1.00  0.00     0.272 A 
HETATM   10  H   UNL     1      -3.030   3.009 -29.836  1.00  0.00     0.192 HD
HETATM   11  O   UNL     1      -1.204   4.174 -31.066  1.00  0.00    -0.266 OA
HETATM   12  C   UNL     1      -2.756   4.477 -32.816  1.00  0.00     0.046 A 
HETATM   13  C   UNL     1      -4.065   4.257 -33.248  1.00  0.00     0.006 A 
HETATM   14  C   UNL     1      -1.834   5.154 -33.625  1.00  0.00     0.018 A 
HETATM   15  C   UNL     1      -4.456   4.748 -34.500  1.00  0.00     0.014 A 
HETATM   16  C   UNL     1      -3.534   5.425 -35.310  1.00  0.00     0.001 A 
HETATM   17  C   UNL     1      -2.225   5.624 -34.876  1.00  0.00     0.001 A 
ENDBRANCH   5   6
ENDBRANCH   2   5
BRANCH   1  18
HETATM   18  C   UNL     1      -6.058  -0.596 -33.492  1.00  0.00     0.062 A 
HETATM   19  C   UNL     1      -7.270  -1.265 -33.762  1.00  0.00     0.061 A 
HETATM   20  C   UNL     1      -7.287  -2.545 -34.323  1.00  0.00     0.033 A 
HETATM   21 CL   UNL     1      -8.801  -0.512 -33.448  1.00  0.00    -0.082 Cl
HETATM   22  C   UNL     1      -6.090  -3.203 -34.600  1.00  0.00    -0.060 A 
HETATM   23  C   UNL     1      -6.093  -4.560 -35.238  1.00  0.00     0.048 C 
HETATM   24  C   UNL     1      -4.883  -2.558 -34.308  1.00  0.00     0.016 A 
HETATM   25  C   UNL     1      -4.846  -1.273 -33.722  1.00  0.00    -0.033 A 
HETATM   26  C   UNL     1      -3.493  -0.743 -33.336  1.00  0.00     0.050 C 
ENDBRANCH   1  18
TORSDOF 3
ENDMDL
MODEL 4
REMARK VINA RESULT:      -8.1      4.151      7.438
REMARK  3 active torsions:
REMARK  status: ('A' for Active; 'I' for Inactive)
REMARK    1  A    between atoms: C_6  and  N_7 
REMARK       I    between atoms: N_7  and  C_8 
REMARK    2  A    between atoms: C_8  and  C_9 
REMARK    3  A    between atoms: C_9  and  C_10 
ROOT
HETATM    1  N   UNL     1      -9.516   1.759 -34.415  1.00  0.00    -0.325 N 
HETATM    2  C   UNL     1      -9.504   1.011 -33.253  1.00  0.00     0.228 C 
HETATM    3  O   UNL     1      -9.938   1.367 -32.161  1.00  0.00    -0.273 OA
HETATM    4  H   UNL     1      -9.565   1.198 -35.269  1.00  0.00     0.169 HD
ENDROOT
BRANCH   2   5
HETATM    5  C   UNL     1      -8.849  -0.347 -33.412  1.00  0.00     0.165 C 
BRANCH   5   6
HETATM    6  C   UNL     1      -7.331  -0.327 -33.392  1.00  0.00     0.074 A 
HETATM    7  N   UNL     1      -6.787   0.745 -32.892  1.00  0.00    -0.175 NA
HETATM    8  N   UNL     1      -5.435   0.814 -32.810  1.00  0.00    -0.243 N 
HETATM    9  C   UNL     1      -4.553  -0.176 -33.164  1.00  0.00     0.272 A 
HETATM   10  H   UNL     1      -5.040   1.665 -32.420  1.00  0.00     0.192 HD
HETATM   11  O   UNL     1      -3.342  -0.054 -33.024  1.00  0.00    -0.266 OA
HETATM   12  C   UNL     1      -5.147  -1.399 -33.728  1.00  0.00     0.046 A 
HETATM   13  C   UNL     1      -6.533  -1.485 -33.874  1.00  0.00     0.006 A 
HETATM   14  C   UNL     1      -4.314  -2.456 -34.117  1.00  0.00     0.018 A 
HETATM   15  C   UNL     1      -7.083  -2.641 -34.442  1.00  0.00     0.014 A 
HETATM   16  C   UNL     1      -6.250  -3.699 -34.831  1.00  0.00     0.001 A 
HETATM   17  C   UNL     1      -4.870  -3.609 -34.665  1.00  0.00     0.001 A 
ENDBRANCH   5   6
ENDBRANCH   2   5
BRANCH   1  18
HETATM   18  C   UNL     1      -9.979   3.092 -34.551  1.00  0.00     0.062 A 
HETATM   19  C   UNL     1     -11.272   3.280 -35.085  1.00  0.00     0.061 A 
HETATM   20  C   UNL     1     -11.815   4.557 -35.249  1.00  0.00     0.033 A 
HETATM   21 CL   UNL     1     -12.268   1.929 -35.523  1.00  0.00    -0.082 Cl
HETATM   22  C   UNL     1     -11.065   5.684 -34.914  1.00  0.00    -0.060 A 
HETATM   23  C   UNL     1     -11.649   7.059 -35.048  1.00  0.00     0.048 C 
HETATM   24  C   UNL     1      -9.771   5.507 -34.412  1.00  0.00     0.016 A 
HETATM   25  C   UNL     1      -9.199   4.225 -34.257  1.00  0.00    -0.033 A 
HETATM   26  C   UNL     1      -7.756   4.173 -33.833  1.00  0.00     0.050 C 
ENDBRANCH   1  18
TORSDOF 3
ENDMDL
MODEL 5
REMARK VINA RESULT:      -8.1     15.709     17.014
REMARK  3 active torsions:
REMARK  status: ('A' for Active; 'I' for Inactive)
REMARK    1  A    between atoms: C_6  and  N_7 
REMARK       I    between atoms: N_7  and  C_8 
REMARK    2  A    between atoms: C_8  and  C_9 
REMARK    3  A    between atoms: C_9  and  C_10 
ROOT
HETATM    1  N   UNL     1      -5.199 -12.586 -38.032  1.00  0.00    -0.325 N 
HETATM    2  C   UNL     1      -4.208 -13.549 -38.059  1.00  0.00     0.228 C 
HETATM    3  O   UNL     1      -4.338 -14.706 -38.448  1.00  0.00    -0.273 OA
HETATM    4  H   UNL     1      -4.851 -11.629 -38.137  1.00  0.00     0.169 HD
ENDROOT
BRANCH   2   5
HETATM    5  C   UNL     1      -2.878 -13.068 -37.513  1.00  0.00     0.165 C 
BRANCH   5   6
HETATM    6  C   UNL     1      -1.660 -13.718 -38.145  1.00  0.00     0.074 A 
HETATM    7  N   UNL     1      -1.443 -13.418 -39.393  1.00  0.00    -0.175 NA
HETATM    8  N   UNL     1      -0.351 -13.935 -40.009  1.00  0.00    -0.243 N 
HETATM    9  C   UNL     1       0.607 -14.726 -39.424  1.00  0.00     0.272 A 
HETATM   10  H   UNL     1      -0.211 -13.687 -40.984  1.00  0.00     0.192 HD
HETATM   11  O   UNL     1       1.589 -15.125 -40.038  1.00  0.00    -0.266 OA
HETATM   12  C   UNL     1       0.383 -15.074 -38.012  1.00  0.00     0.046 A 
HETATM   13  C   UNL     1      -0.757 -14.601 -37.359  1.00  0.00     0.006 A 
HETATM   14  C   UNL     1       1.314 -15.881 -37.344  1.00  0.00     0.018 A 
HETATM   15  C   UNL     1      -0.974 -14.966 -36.025  1.00  0.00     0.014 A 
HETATM   16  C   UNL     1      -0.043 -15.773 -35.357  1.00  0.00     0.001 A 
HETATM   17  C   UNL     1       1.099 -16.225 -36.012  1.00  0.00     0.001 A 
ENDBRANCH   5   6
ENDBRANCH   2   5
BRANCH   1  18
HETATM   18  C   UNL     1      -6.557 -12.767 -38.394  1.00  0.00     0.062 A 
HETATM   19  C   UNL     1      -6.946 -12.353 -39.686  1.00  0.00     0.061 A 
HETATM   20  C   UNL     1      -8.262 -12.499 -40.133  1.00  0.00     0.033 A 
HETATM   21 CL   UNL     1      -5.797 -11.683 -40.799  1.00  0.00    -0.082 Cl
HETATM   22  C   UNL     1      -9.234 -13.033 -39.286  1.00  0.00    -0.060 A 
HETATM   23  C   UNL     1     -10.640 -13.232 -39.765  1.00  0.00     0.048 C 
HETATM   24  C   UNL     1      -8.862 -13.418 -37.993  1.00  0.00     0.016 A 
HETATM   25  C   UNL     1      -7.541 -13.260 -37.518  1.00  0.00    -0.033 A 
HETATM   26  C   UNL     1      -7.298 -13.589 -36.070  1.00  0.00     0.050 C 
ENDBRANCH   1  18
TORSDOF 3
ENDMDL
MODEL 6
REMARK VINA RESULT:      -8.0     15.658     16.903
REMARK  3 active torsions:
REMARK  status: ('A' for Active; 'I' for Inactive)
REMARK    1  A    between atoms: C_6  and  N_7 
REMARK       I    between atoms: N_7  and  C_8 
REMARK    2  A    between atoms: C_8  and  C_9 
REMARK    3  A    between atoms: C_9  and  C_10 
ROOT
HETATM    1  N   UNL     1      -5.370 -12.508 -38.078  1.00  0.00    -0.325 N 
HETATM    2  C   UNL     1      -4.383 -13.474 -38.132  1.00  0.00     0.228 C 
HETATM    3  O   UNL     1      -4.483 -14.579 -38.658  1.00  0.00    -0.273 OA
HETATM    4  H   UNL     1      -5.012 -11.550 -38.047  1.00  0.00     0.169 HD
ENDROOT
BRANCH   2   5
HETATM    5  C   UNL     1      -3.101 -13.073 -37.429  1.00  0.00     0.165 C 
BRANCH   5   6
HETATM    6  C   UNL     1      -1.837 -13.662 -38.029  1.00  0.00     0.074 A 
HETATM    7  N   UNL     1      -1.576 -13.310 -39.255  1.00  0.00    -0.175 NA
HETATM    8  N   UNL     1      -0.442 -13.771 -39.840  1.00  0.00    -0.243 N 
HETATM    9  C   UNL     1       0.514 -14.552 -39.242  1.00  0.00     0.272 A 
HETATM   10  H   UNL     1      -0.269 -13.482 -40.799  1.00  0.00     0.192 HD
HETATM   11  O   UNL     1       1.534 -14.899 -39.826  1.00  0.00    -0.266 OA
HETATM   12  C   UNL     1       0.241 -14.959 -37.854  1.00  0.00     0.046 A 
HETATM   13  C   UNL     1      -0.941 -14.545 -37.236  1.00  0.00     0.006 A 
HETATM   14  C   UNL     1       1.168 -15.761 -37.175  1.00  0.00     0.018 A 
HETATM   15  C   UNL     1      -1.202 -14.965 -35.927  1.00  0.00     0.014 A 
HETATM   16  C   UNL     1      -0.276 -15.767 -35.246  1.00  0.00     0.001 A 
HETATM   17  C   UNL     1       0.907 -16.160 -35.866  1.00  0.00     0.001 A 
ENDBRANCH   5   6
ENDBRANCH   2   5
BRANCH   1  18
HETATM   18  C   UNL     1      -6.694 -12.631 -38.568  1.00  0.00     0.062 A 
HETATM   19  C   UNL     1      -7.663 -13.171 -37.696  1.00  0.00     0.061 A 
HETATM   20  C   UNL     1      -8.995 -13.324 -38.090  1.00  0.00     0.033 A 
HETATM   21 CL   UNL     1      -7.255 -13.633 -36.074  1.00  0.00    -0.082 Cl
HETATM   22  C   UNL     1      -9.387 -12.970 -39.381  1.00  0.00    -0.060 A 
HETATM   23  C   UNL     1     -10.821 -13.091 -39.805  1.00  0.00     0.048 C 
HETATM   24  C   UNL     1      -8.426 -12.461 -40.262  1.00  0.00     0.016 A 
HETATM   25  C   UNL     1      -7.072 -12.318 -39.887  1.00  0.00    -0.033 A 
HETATM   26  C   UNL     1      -6.113 -11.885 -40.962  1.00  0.00     0.050 C 
ENDBRANCH   1  18
TORSDOF 3
ENDMDL
MODEL 7
REMARK VINA RESULT:      -7.9      4.880      6.869
REMARK  3 active torsions:
REMARK  status: ('A' for Active; 'I' for Inactive)
REMARK    1  A    between atoms: C_6  and  N_7 
REMARK       I    between atoms: N_7  and  C_8 
REMARK    2  A    between atoms: C_8  and  C_9 
REMARK    3  A    between atoms: C_9  and  C_10 
ROOT
HETATM    1  N   UNL     1      -7.907   1.371 -32.696  1.00  0.00    -0.325 N 
HETATM    2  C   UNL     1      -7.786   2.702 -33.046  1.00  0.00     0.228 C 
HETATM    3  O   UNL     1      -6.821   3.218 -33.602  1.00  0.00    -0.273 OA
HETATM    4  H   UNL     1      -8.871   1.028 -32.690  1.00  0.00     0.169 HD
ENDROOT
BRANCH   2   5
HETATM    5  C   UNL     1      -8.981   3.546 -32.645  1.00  0.00     0.165 C 
BRANCH   5   6
HETATM    6  C   UNL     1     -10.289   3.148 -33.306  1.00  0.00     0.074 A 
HETATM    7  N   UNL     1     -10.182   2.567 -34.467  1.00  0.00    -0.175 NA
HETATM    8  N   UNL     1     -11.310   2.153 -35.095  1.00  0.00    -0.243 N 
HETATM    9  C   UNL     1     -12.588   2.237 -34.601  1.00  0.00     0.272 A 
HETATM   10  H   UNL     1     -11.196   1.708 -36.002  1.00  0.00     0.192 HD
HETATM   11  O   UNL     1     -13.556   1.803 -35.213  1.00  0.00    -0.266 OA
HETATM   12  C   UNL     1     -12.731   2.885 -33.287  1.00  0.00     0.046 A 
HETATM   13  C   UNL     1     -11.597   3.371 -32.633  1.00  0.00     0.006 A 
HETATM   14  C   UNL     1     -14.003   3.013 -32.715  1.00  0.00     0.018 A 
HETATM   15  C   UNL     1     -11.751   4.014 -31.399  1.00  0.00     0.014 A 
HETATM   16  C   UNL     1     -13.023   4.142 -30.826  1.00  0.00     0.001 A 
HETATM   17  C   UNL     1     -14.145   3.639 -31.480  1.00  0.00     0.001 A 
ENDBRANCH   5   6
ENDBRANCH   2   5
BRANCH   1  18
HETATM   18  C   UNL     1      -6.921   0.366 -32.862  1.00  0.00     0.062 A 
HETATM   19  C   UNL     1      -6.901  -0.329 -34.090  1.00  0.00     0.061 A 
HETATM   20  C   UNL     1      -5.961  -1.331 -34.346  1.00  0.00     0.033 A 
HETATM   21 CL   UNL     1      -8.018   0.057 -35.359  1.00  0.00    -0.082 Cl
HETATM   22  C   UNL     1      -5.034  -1.687 -33.366  1.00  0.00    -0.060 A 
HETATM   23  C   UNL     1      -3.995  -2.732 -33.640  1.00  0.00     0.048 C 
HETATM   24  C   UNL     1      -5.066  -1.023 -32.135  1.00  0.00     0.016 A 
HETATM   25  C   UNL     1      -6.022  -0.022 -31.852  1.00  0.00    -0.033 A 
HETATM   26  C   UNL     1      -6.037   0.524 -30.450  1.00  0.00     0.050 C 
ENDBRANCH   1  18
TORSDOF 3
ENDMDL
MODEL 8
REMARK VINA RESULT:      -7.9      4.816      6.854
REMARK  3 active torsions:
REMARK  status: ('A' for Active; 'I' for Inactive)
REMARK    1  A    between atoms: C_6  and  N_7 
REMARK       I    between atoms: N_7  and  C_8 
REMARK    2  A    between atoms: C_8  and  C_9 
REMARK    3  A    between atoms: C_9  and  C_10 
ROOT
HETATM    1  N   UNL     1      -7.951   1.618 -32.754  1.00  0.00    -0.325 N 
HETATM    2  C   UNL     1      -7.839   2.945 -33.123  1.00  0.00     0.228 C 
HETATM    3  O   UNL     1      -6.845   3.478 -33.608  1.00  0.00    -0.273 OA
HETATM    4  H   UNL     1      -8.902   1.247 -32.821  1.00  0.00     0.169 HD
ENDROOT
BRANCH   2   5
HETATM    5  C   UNL     1      -9.087   3.760 -32.844  1.00  0.00     0.165 C 
BRANCH   5   6
HETATM    6  C   UNL     1     -10.358   3.205 -33.459  1.00  0.00     0.074 A 
HETATM    7  N   UNL     1     -10.211   2.574 -34.589  1.00  0.00    -0.175 NA
HETATM    8  N   UNL     1     -11.301   2.020 -35.175  1.00  0.00    -0.243 N 
HETATM    9  C   UNL     1     -12.575   2.011 -34.665  1.00  0.00     0.272 A 
HETATM   10  H   UNL     1     -11.155   1.539 -36.058  1.00  0.00     0.192 HD
HETATM   11  O   UNL     1     -13.505   1.455 -35.237  1.00  0.00    -0.266 OA
HETATM   12  C   UNL     1     -12.764   2.715 -33.386  1.00  0.00     0.046 A 
HETATM   13  C   UNL     1     -11.674   3.341 -32.778  1.00  0.00     0.006 A 
HETATM   14  C   UNL     1     -14.036   2.755 -32.801  1.00  0.00     0.018 A 
HETATM   15  C   UNL     1     -11.874   4.034 -31.579  1.00  0.00     0.014 A 
HETATM   16  C   UNL     1     -13.146   4.074 -30.993  1.00  0.00     0.001 A 
HETATM   17  C   UNL     1     -14.223   3.432 -31.599  1.00  0.00     0.001 A 
ENDBRANCH   5   6
ENDBRANCH   2   5
BRANCH   1  18
HETATM   18  C   UNL     1      -6.926   0.640 -32.814  1.00  0.00     0.062 A 
HETATM   19  C   UNL     1      -6.111   0.482 -31.673  1.00  0.00     0.061 A 
HETATM   20  C   UNL     1      -5.081  -0.462 -31.638  1.00  0.00     0.033 A 
HETATM   21 CL   UNL     1      -6.376   1.424 -30.241  1.00  0.00    -0.082 Cl
HETATM   22  C   UNL     1      -4.817  -1.251 -32.757  1.00  0.00    -0.060 A 
HETATM   23  C   UNL     1      -3.741  -2.295 -32.721  1.00  0.00     0.048 C 
HETATM   24  C   UNL     1      -5.602  -1.080 -33.903  1.00  0.00     0.016 A 
HETATM   25  C   UNL     1      -6.634  -0.117 -33.963  1.00  0.00    -0.033 A 
HETATM   26  C   UNL     1      -7.318   0.061 -35.291  1.00  0.00     0.050 C 
ENDBRANCH   1  18
TORSDOF 3
ENDMDL
MODEL 9
REMARK VINA RESULT:      -7.8      4.437      6.975
REMARK  3 active torsions:
REMARK  status: ('A' for Active; 'I' for Inactive)
REMARK    1  A    between atoms: C_6  and  N_7 
REMARK       I    between atoms: N_7  and  C_8 
REMARK    2  A    between atoms: C_8  and  C_9 
REMARK    3  A    between atoms: C_9  and  C_10 
ROOT
HETATM    1  N   UNL     1      -9.562   1.830 -34.398  1.00  0.00    -0.325 N 
HETATM    2  C   UNL     1      -8.951   0.616 -34.148  1.00  0.00     0.228 C 
HETATM    3  O   UNL     1      -9.189  -0.131 -33.203  1.00  0.00    -0.273 OA
HETATM    4  H   UNL     1      -9.607   2.076 -35.390  1.00  0.00     0.169 HD
ENDROOT
BRANCH   2   5
HETATM    5  C   UNL     1      -7.877   0.257 -35.157  1.00  0.00     0.165 C 
BRANCH   5   6
HETATM    6  C   UNL     1      -6.769  -0.628 -34.617  1.00  0.00     0.074 A 
HETATM    7  N   UNL     1      -6.799  -1.871 -35.004  1.00  0.00    -0.175 NA
HETATM    8  N   UNL     1      -5.817  -2.709 -34.587  1.00  0.00    -0.243 N 
HETATM    9  C   UNL     1      -4.734  -2.364 -33.819  1.00  0.00     0.272 A 
HETATM   10  H   UNL     1      -5.871  -3.674 -34.902  1.00  0.00     0.192 HD
HETATM   11  O   UNL     1      -3.864  -3.172 -33.514  1.00  0.00    -0.266 OA
HETATM   12  C   UNL     1      -4.677  -0.963 -33.374  1.00  0.00     0.046 A 
HETATM   13  C   UNL     1      -5.697  -0.083 -33.741  1.00  0.00     0.006 A 
HETATM   14  C   UNL     1      -3.604  -0.532 -32.583  1.00  0.00     0.018 A 
HETATM   15  C   UNL     1      -5.648   1.239 -33.284  1.00  0.00     0.014 A 
HETATM   16  C   UNL     1      -4.575   1.671 -32.493  1.00  0.00     0.001 A 
HETATM   17  C   UNL     1      -3.553   0.789 -32.147  1.00  0.00     0.001 A 
ENDBRANCH   5   6
ENDBRANCH   2   5
BRANCH   1  18
HETATM   18  C   UNL     1     -10.535   2.464 -33.584  1.00  0.00     0.062 A 
HETATM   19  C   UNL     1     -11.882   2.379 -33.996  1.00  0.00     0.061 A 
HETATM   20  C   UNL     1     -12.909   2.967 -33.253  1.00  0.00     0.033 A 
HETATM   21 CL   UNL     1     -12.332   1.502 -35.423  1.00  0.00    -0.082 Cl
HETATM   22  C   UNL     1     -12.613   3.685 -32.095  1.00  0.00    -0.060 A 
HETATM   23  C   UNL     1     -13.708   4.288 -31.267  1.00  0.00     0.048 C 
HETATM   24  C   UNL     1     -11.276   3.799 -31.696  1.00  0.00     0.016 A 
HETATM   25  C   UNL     1     -10.223   3.228 -32.445  1.00  0.00    -0.033 A 
HETATM   26  C   UNL     1      -8.823   3.530 -31.985  1.00  0.00     0.050 C 
ENDBRANCH   1  18
TORSDOF 3
ENDMDL
MODEL 10
REMARK VINA RESULT:      -7.7      4.222      6.215
REMARK  3 active torsions:
REMARK  status: ('A' for Active; 'I' for Inactive)
REMARK    1  A    between atoms: C_6  and  N_7 
REMARK       I    between atoms: N_7  and  C_8 
REMARK    2  A    between atoms: C_8  and  C_9 
REMARK    3  A    between atoms: C_9  and  C_10 
ROOT
HETATM    1  N   UNL     1      -6.814   1.428 -32.898  1.00  0.00    -0.325 N 
HETATM    2  C   UNL     1      -7.834   1.603 -31.983  1.00  0.00     0.228 C 
HETATM    3  O   UNL     1      -8.407   0.713 -31.362  1.00  0.00    -0.273 OA
HETATM    4  H   UNL     1      -6.166   2.218 -32.956  1.00  0.00     0.169 HD
ENDROOT
BRANCH   2   5
HETATM    5  C   UNL     1      -8.249   3.051 -31.806  1.00  0.00     0.165 C 
BRANCH   5   6
HETATM    6  C   UNL     1      -9.737   3.262 -31.594  1.00  0.00     0.074 A 
HETATM    7  N   UNL     1     -10.109   3.472 -30.364  1.00  0.00    -0.175 NA
HETATM    8  N   UNL     1     -11.420   3.706 -30.109  1.00  0.00    -0.243 N 
HETATM    9  C   UNL     1     -12.421   3.797 -31.044  1.00  0.00     0.272 A 
HETATM   10  H   UNL     1     -11.680   3.861 -29.139  1.00  0.00     0.192 HD
HETATM   11  O   UNL     1     -13.580   4.050 -30.738  1.00  0.00    -0.266 OA
HETATM   12  C   UNL     1     -12.022   3.567 -32.441  1.00  0.00     0.046 A 
HETATM   13  C   UNL     1     -10.689   3.274 -32.737  1.00  0.00     0.006 A 
HETATM   14  C   UNL     1     -12.986   3.639 -33.455  1.00  0.00     0.018 A 
HETATM   15  C   UNL     1     -10.330   3.026 -34.067  1.00  0.00     0.014 A 
HETATM   16  C   UNL     1     -11.293   3.098 -35.081  1.00  0.00     0.001 A 
HETATM   17  C   UNL     1     -12.617   3.408 -34.778  1.00  0.00     0.001 A 
ENDBRANCH   5   6
ENDBRANCH   2   5
BRANCH   1  18
HETATM   18  C   UNL     1      -6.278   0.189 -33.333  1.00  0.00     0.062 A 
HETATM   19  C   UNL     1      -5.144  -0.304 -32.653  1.00  0.00     0.061 A 
HETATM   20  C   UNL     1      -4.552  -1.519 -33.008  1.00  0.00     0.033 A 
HETATM   21 CL   UNL     1      -4.453   0.558 -31.316  1.00  0.00    -0.082 Cl
HETATM   22  C   UNL     1      -5.061  -2.260 -34.074  1.00  0.00    -0.060 A 
HETATM   23  C   UNL     1      -4.461  -3.585 -34.440  1.00  0.00     0.048 C 
HETATM   24  C   UNL     1      -6.168  -1.764 -34.772  1.00  0.00     0.016 A 
HETATM   25  C   UNL     1      -6.767  -0.529 -34.440  1.00  0.00    -0.033 A 
HETATM   26  C   UNL     1      -7.865  -0.043 -35.346  1.00  0.00     0.050 C 
ENDBRANCH   1  18
TORSDOF 3
ENDMDL
