MODEL 1
REMARK VINA RESULT:      -7.9      0.000      0.000
REMARK  6 active torsions:
REMARK  status: ('A' for Active; 'I' for Inactive)
REMARK    1  A    between atoms: C_3  and  N_4 
REMARK       I    between atoms: N_4  and  C_5 
REMARK       I    between atoms: C_5  and  N_6 
REMARK    2  A    between atoms: N_6  and  C_7 
REMARK    3  A    between atoms: C_7  and  C_8 
REMARK    4  A    between atoms: C_8  and  N_9 
REMARK    5  A    between atoms: C_8  and  C_13 
REMARK    6  A    between atoms: C_20  and  C_21 
ROOT
HETATM    1  N   UNL     1      -4.240   3.219 -32.827  1.00  0.00    -0.309 N 
HETATM    2  C   UNL     1      -5.378   3.360 -32.078  1.00  0.00     0.320 C 
HETATM    3  N   UNL     1      -6.173   2.241 -32.132  1.00  0.00    -0.340 N 
HETATM    4  O   UNL     1      -5.720   4.331 -31.413  1.00  0.00    -0.247 OA
HETATM    5  H   UNL     1      -4.355   2.629 -33.642  1.00  0.00     0.170 HD
HETATM    6  H   UNL     1      -5.868   1.494 -32.743  1.00  0.00     0.164 HD
ENDROOT
BRANCH   1   7
HETATM    7  C   UNL     1      -3.197   4.169 -32.944  1.00  0.00     0.043 A 
HETATM    8  C   UNL     1      -2.991   5.026 -34.038  1.00  0.00    -0.035 A 
HETATM    9  C   UNL     1      -3.910   5.133 -35.221  1.00  0.00     0.050 C 
HETATM   10  C   UNL     1      -1.873   5.882 -34.021  1.00  0.00     0.010 A 
HETATM   11  C   UNL     1      -1.009   5.934 -32.924  1.00  0.00     0.016 A 
HETATM   12  C   UNL     1      -1.242   5.133 -31.805  1.00  0.00     0.019 A 
HETATM   13  C   UNL     1      -2.344   4.264 -31.828  1.00  0.00     0.046 A 
BRANCH  12  14
HETATM   14  C   UNL     1      -0.379   5.161 -30.628  1.00  0.00     0.179 A 
HETATM   15  O   UNL     1      -0.659   6.100 -29.670  1.00  0.00    -0.302 OA
HETATM   16  C   UNL     1       0.287   5.892 -28.713  1.00  0.00     0.163 A 
HETATM   17  C   UNL     1       1.086   4.857 -29.125  1.00  0.00     0.144 A 
HETATM   18  N   UNL     1       0.658   4.395 -30.344  1.00  0.00    -0.234 NA
ENDBRANCH  12  14
ENDBRANCH   1   7
BRANCH   3  19
HETATM   19  C   UNL     1      -7.573   2.221 -31.704  1.00  0.00     0.164 C 
BRANCH  19  20
HETATM   20  C   UNL     1      -8.405   0.957 -32.098  1.00  0.00     0.261 C 
BRANCH  20  21
HETATM   21  N   UNL     1      -9.897   1.263 -32.224  1.00  0.00    -0.067 N 
HETATM   22  H   UNL     1     -10.269   1.152 -31.257  1.00  0.00     0.280 HD
HETATM   23  C   UNL     1     -10.245   2.673 -32.596  1.00  0.00     0.270 C 
HETATM   24  C   UNL     1     -10.634   0.268 -33.060  1.00  0.00     0.270 C 
ENDBRANCH  20  21
BRANCH  20  25
HETATM   25  C   UNL     1      -7.834   0.307 -33.320  1.00  0.00     0.085 A 
HETATM   26  O   UNL     1      -7.712   1.094 -34.430  1.00  0.00    -0.325 OA
HETATM   27  C   UNL     1      -7.172   0.323 -35.409  1.00  0.00     0.142 A 
HETATM   28  C   UNL     1      -6.954  -0.953 -34.949  1.00  0.00     0.027 A 
HETATM   29  C   UNL     1      -7.382  -0.968 -33.598  1.00  0.00     0.037 A 
ENDBRANCH  20  25
ENDBRANCH  19  20
ENDBRANCH   3  19
TORSDOF 6
ENDMDL
MODEL 2
REMARK VINA RESULT:      -7.9      1.627      2.030
REMARK  6 active torsions:
REMARK  status: ('A' for Active; 'I' for Inactive)
REMARK    1  A    between atoms: C_3  and  N_4 
REMARK       I    between atoms: N_4  and  C_5 
REMARK       I    between atoms: C_5  and  N_6 
REMARK    2  A    between atoms: N_6  and  C_7 
REMARK    3  A    between atoms: C_7  and  C_8 
REMARK    4  A    between atoms: C_8  and  N_9 
REMARK    5  A    between atoms: C_8  and  C_13 
REMARK    6  A    between atoms: C_20  and  C_21 
ROOT
HETATM    1  N   UNL     1      -4.490   3.514 -32.486  1.00  0.00    -0.309 N 
HETATM    2  C   UNL     1      -4.565   2.147 -32.544  1.00  0.00     0.320 C 
HETATM    3  N   UNL     1      -5.841   1.692 -32.322  1.00  0.00    -0.340 N 
HETATM    4  O   UNL     1      -3.654   1.357 -32.762  1.00  0.00    -0.247 OA
HETATM    5  H   UNL     1      -5.152   3.935 -31.846  1.00  0.00     0.170 HD
HETATM    6  H   UNL     1      -6.540   2.386 -32.090  1.00  0.00     0.164 HD
ENDROOT
BRANCH   1   7
HETATM    7  C   UNL     1      -3.331   4.295 -32.714  1.00  0.00     0.043 A 
HETATM    8  C   UNL     1      -3.031   4.984 -33.901  1.00  0.00    -0.035 A 
HETATM    9  C   UNL     1      -3.948   5.076 -35.088  1.00  0.00     0.050 C 
HETATM   10  C   UNL     1      -1.808   5.678 -33.987  1.00  0.00     0.010 A 
HETATM   11  C   UNL     1      -0.927   5.739 -32.904  1.00  0.00     0.016 A 
HETATM   12  C   UNL     1      -1.246   5.113 -31.699  1.00  0.00     0.019 A 
HETATM   13  C   UNL     1      -2.454   4.404 -31.619  1.00  0.00     0.046 A 
BRANCH  12  14
HETATM   14  C   UNL     1      -0.367   5.161 -30.534  1.00  0.00     0.179 A 
HETATM   15  O   UNL     1      -0.623   6.128 -29.598  1.00  0.00    -0.302 OA
HETATM   16  C   UNL     1       0.333   5.934 -28.648  1.00  0.00     0.163 A 
HETATM   17  C   UNL     1       1.114   4.877 -29.042  1.00  0.00     0.144 A 
HETATM   18  N   UNL     1       0.664   4.388 -30.243  1.00  0.00    -0.234 NA
ENDBRANCH  12  14
ENDBRANCH   1   7
BRANCH   3  19
HETATM   19  C   UNL     1      -6.160   0.297 -32.010  1.00  0.00     0.164 C 
BRANCH  19  20
HETATM   20  C   UNL     1      -7.136  -0.432 -32.991  1.00  0.00     0.261 C 
BRANCH  20  21
HETATM   21  N   UNL     1      -7.817   0.539 -33.955  1.00  0.00    -0.067 N 
HETATM   22  H   UNL     1      -7.528   1.483 -33.623  1.00  0.00     0.280 HD
HETATM   23  C   UNL     1      -7.346   0.485 -35.377  1.00  0.00     0.270 C 
HETATM   24  C   UNL     1      -9.308   0.514 -33.861  1.00  0.00     0.270 C 
ENDBRANCH  20  21
BRANCH  20  25
HETATM   25  C   UNL     1      -6.441  -1.561 -33.688  1.00  0.00     0.085 A 
HETATM   26  O   UNL     1      -5.075  -1.536 -33.679  1.00  0.00    -0.325 OA
HETATM   27  C   UNL     1      -4.651  -2.639 -34.348  1.00  0.00     0.142 A 
HETATM   28  C   UNL     1      -5.725  -3.369 -34.798  1.00  0.00     0.027 A 
HETATM   29  C   UNL     1      -6.884  -2.674 -34.373  1.00  0.00     0.037 A 
ENDBRANCH  20  25
ENDBRANCH  19  20
ENDBRANCH   3  19
TORSDOF 6
ENDMDL
MODEL 3
REMARK VINA RESULT:      -7.7      2.256      8.579
REMARK  6 active torsions:
REMARK  status: ('A' for Active; 'I' for Inactive)
REMARK    1  A    between atoms: C_3  and  N_4 
REMARK       I    between atoms: N_4  and  C_5 
REMARK       I    between atoms: C_5  and  N_6 
REMARK    2  A    between atoms: N_6  and  C_7 
REMARK    3  A    between atoms: C_7  and  C_8 
REMARK    4  A    between atoms: C_8  and  N_9 
REMARK    5  A    between atoms: C_8  and  C_13 
REMARK    6  A    between atoms: C_20  and  C_21 
ROOT
HETATM    1  N   UNL     1      -5.326   2.389 -32.272  1.00  0.00    -0.309 N 
HETATM    2  C   UNL     1      -4.486   3.403 -32.652  1.00  0.00     0.320 C 
HETATM    3  N   UNL     1      -3.799   3.930 -31.586  1.00  0.00    -0.340 N 
HETATM    4  O   UNL     1      -4.312   3.846 -33.782  1.00  0.00    -0.247 OA
HETATM    5  H   UNL     1      -5.699   2.493 -31.337  1.00  0.00     0.170 HD
HETATM    6  H   UNL     1      -4.027   3.564 -30.670  1.00  0.00     0.164 HD
ENDROOT
BRANCH   1   7
HETATM    7  C   UNL     1      -6.136   1.611 -33.134  1.00  0.00     0.043 A 
HETATM    8  C   UNL     1      -7.305   2.053 -33.777  1.00  0.00    -0.035 A 
HETATM    9  C   UNL     1      -7.827   3.461 -33.721  1.00  0.00     0.050 C 
HETATM   10  C   UNL     1      -8.027   1.138 -34.566  1.00  0.00     0.010 A 
HETATM   11  C   UNL     1      -7.575  -0.170 -34.764  1.00  0.00     0.016 A 
HETATM   12  C   UNL     1      -6.381  -0.599 -34.183  1.00  0.00     0.019 A 
HETATM   13  C   UNL     1      -5.671   0.306 -33.380  1.00  0.00     0.046 A 
BRANCH  12  14
HETATM   14  C   UNL     1      -5.859  -1.949 -34.374  1.00  0.00     0.179 A 
HETATM   15  O   UNL     1      -6.731  -2.896 -34.843  1.00  0.00    -0.302 OA
HETATM   16  C   UNL     1      -5.980  -4.030 -34.921  1.00  0.00     0.163 A 
HETATM   17  C   UNL     1      -4.710  -3.727 -34.502  1.00  0.00     0.144 A 
HETATM   18  N   UNL     1      -4.637  -2.401 -34.155  1.00  0.00    -0.234 NA
ENDBRANCH  12  14
ENDBRANCH   1   7
BRANCH   3  19
HETATM   19  C   UNL     1      -3.088   5.209 -31.634  1.00  0.00     0.164 C 
BRANCH  19  20
HETATM   20  C   UNL     1      -1.577   5.154 -32.033  1.00  0.00     0.261 C 
BRANCH  20  21
HETATM   21  N   UNL     1      -1.245   6.120 -33.170  1.00  0.00    -0.067 N 
HETATM   22  H   UNL     1      -0.241   6.358 -33.024  1.00  0.00     0.280 HD
HETATM   23  C   UNL     1      -1.293   5.543 -34.553  1.00  0.00     0.270 C 
HETATM   24  C   UNL     1      -1.986   7.413 -33.079  1.00  0.00     0.270 C 
ENDBRANCH  20  21
BRANCH  20  25
HETATM   25  C   UNL     1      -0.705   5.341 -30.830  1.00  0.00     0.085 A 
HETATM   26  O   UNL     1       0.296   4.427 -30.653  1.00  0.00    -0.325 OA
HETATM   27  C   UNL     1       0.964   4.780 -29.525  1.00  0.00     0.142 A 
HETATM   28  C   UNL     1       0.402   5.903 -28.967  1.00  0.00     0.027 A 
HETATM   29  C   UNL     1      -0.678   6.269 -29.808  1.00  0.00     0.037 A 
ENDBRANCH  20  25
ENDBRANCH  19  20
ENDBRANCH   3  19
TORSDOF 6
ENDMDL
MODEL 4
REMARK VINA RESULT:      -7.7      1.669      1.979
REMARK  6 active torsions:
REMARK  status: ('A' for Active; 'I' for Inactive)
REMARK    1  A    between atoms: C_3  and  N_4 
REMARK       I    between atoms: N_4  and  C_5 
REMARK       I    between atoms: C_5  and  N_6 
REMARK    2  A    between atoms: N_6  and  C_7 
REMARK    3  A    between atoms: C_7  and  C_8 
REMARK    4  A    between atoms: C_8  and  N_9 
REMARK    5  A    between atoms: C_8  and  C_13 
REMARK    6  A    between atoms: C_20  and  C_21 
ROOT
HETATM    1  N   UNL     1      -2.983   3.306 -32.642  1.00  0.00    -0.309 N 
HETATM    2  C   UNL     1      -4.346   3.298 -32.786  1.00  0.00     0.320 C 
HETATM    3  N   UNL     1      -4.852   2.022 -32.827  1.00  0.00    -0.340 N 
HETATM    4  O   UNL     1      -5.094   4.264 -32.875  1.00  0.00    -0.247 OA
HETATM    5  H   UNL     1      -2.520   2.513 -33.067  1.00  0.00     0.170 HD
HETATM    6  H   UNL     1      -4.181   1.264 -32.807  1.00  0.00     0.164 HD
ENDROOT
BRANCH   1   7
HETATM    7  C   UNL     1      -2.166   4.456 -32.521  1.00  0.00     0.043 A 
HETATM    8  C   UNL     1      -1.758   5.284 -33.580  1.00  0.00    -0.035 A 
HETATM    9  C   UNL     1      -2.208   5.128 -35.005  1.00  0.00     0.050 C 
HETATM   10  C   UNL     1      -0.900   6.365 -33.299  1.00  0.00     0.010 A 
HETATM   11  C   UNL     1      -0.501   6.658 -31.992  1.00  0.00     0.016 A 
HETATM   12  C   UNL     1      -0.954   5.880 -30.925  1.00  0.00     0.019 A 
HETATM   13  C   UNL     1      -1.791   4.791 -31.206  1.00  0.00     0.046 A 
BRANCH  12  14
HETATM   14  C   UNL     1      -0.579   6.155 -29.541  1.00  0.00     0.179 A 
HETATM   15  O   UNL     1      -1.419   6.956 -28.813  1.00  0.00    -0.302 OA
HETATM   16  C   UNL     1      -0.828   7.033 -27.588  1.00  0.00     0.163 A 
HETATM   17  C   UNL     1       0.324   6.290 -27.626  1.00  0.00     0.144 A 
HETATM   18  N   UNL     1       0.479   5.734 -28.871  1.00  0.00    -0.234 NA
ENDBRANCH  12  14
ENDBRANCH   1   7
BRANCH   3  19
HETATM   19  C   UNL     1      -6.204   1.701 -33.287  1.00  0.00     0.164 C 
BRANCH  19  20
HETATM   20  C   UNL     1      -6.801   0.338 -32.806  1.00  0.00     0.261 C 
BRANCH  20  21
HETATM   21  N   UNL     1      -8.322   0.290 -32.949  1.00  0.00    -0.067 N 
HETATM   22  H   UNL     1      -8.534  -0.712 -33.140  1.00  0.00     0.280 HD
HETATM   23  C   UNL     1      -9.105   0.607 -31.712  1.00  0.00     0.270 C 
HETATM   24  C   UNL     1      -8.825   1.045 -34.136  1.00  0.00     0.270 C 
ENDBRANCH  20  21
BRANCH  20  25
HETATM   25  C   UNL     1      -6.111  -0.809 -33.479  1.00  0.00     0.085 A 
HETATM   26  O   UNL     1      -4.784  -0.973 -33.200  1.00  0.00    -0.325 OA
HETATM   27  C   UNL     1      -4.361  -2.059 -33.896  1.00  0.00     0.142 A 
HETATM   28  C   UNL     1      -5.395  -2.592 -34.628  1.00  0.00     0.027 A 
HETATM   29  C   UNL     1      -6.529  -1.785 -34.361  1.00  0.00     0.037 A 
ENDBRANCH  20  25
ENDBRANCH  19  20
ENDBRANCH   3  19
TORSDOF 6
ENDMDL
MODEL 5
REMARK VINA RESULT:      -7.6      1.833      8.857
REMARK  6 active torsions:
REMARK  status: ('A' for Active; 'I' for Inactive)
REMARK    1  A    between atoms: C_3  and  N_4 
REMARK       I    between atoms: N_4  and  C_5 
REMARK       I    between atoms: C_5  and  N_6 
REMARK    2  A    between atoms: N_6  and  C_7 
REMARK    3  A    between atoms: C_7  and  C_8 
REMARK    4  A    between atoms: C_8  and  N_9 
REMARK    5  A    between atoms: C_8  and  C_13 
REMARK    6  A    between atoms: C_20  and  C_21 
ROOT
HETATM    1  N   UNL     1      -4.783   1.292 -31.762  1.00  0.00    -0.309 N 
HETATM    2  C   UNL     1      -4.299   2.505 -32.177  1.00  0.00     0.320 C 
HETATM    3  N   UNL     1      -3.508   3.099 -31.224  1.00  0.00    -0.340 N 
HETATM    4  O   UNL     1      -4.500   3.063 -33.250  1.00  0.00    -0.247 OA
HETATM    5  H   UNL     1      -4.935   1.231 -30.763  1.00  0.00     0.170 HD
HETATM    6  H   UNL     1      -3.426   2.619 -30.336  1.00  0.00     0.164 HD
ENDROOT
BRANCH   1   7
HETATM    7  C   UNL     1      -5.587   0.411 -32.524  1.00  0.00     0.043 A 
HETATM    8  C   UNL     1      -5.177  -0.829 -33.041  1.00  0.00    -0.035 A 
HETATM    9  C   UNL     1      -3.838  -1.460 -32.781  1.00  0.00     0.050 C 
HETATM   10  C   UNL     1      -6.086  -1.566 -33.824  1.00  0.00     0.010 A 
HETATM   11  C   UNL     1      -7.391  -1.117 -34.045  1.00  0.00     0.016 A 
HETATM   12  C   UNL     1      -7.828   0.083 -33.482  1.00  0.00     0.019 A 
HETATM   13  C   UNL     1      -6.917   0.828 -32.718  1.00  0.00     0.046 A 
BRANCH  12  14
HETATM   14  C   UNL     1      -9.185   0.587 -33.669  1.00  0.00     0.179 A 
HETATM   15  O   UNL     1     -10.199  -0.107 -33.063  1.00  0.00    -0.302 OA
HETATM   16  C   UNL     1     -11.324   0.581 -33.403  1.00  0.00     0.163 A 
HETATM   17  C   UNL     1     -10.951   1.642 -34.187  1.00  0.00     0.144 A 
HETATM   18  N   UNL     1      -9.588   1.642 -34.354  1.00  0.00    -0.234 NA
ENDBRANCH  12  14
ENDBRANCH   1   7
BRANCH   3  19
HETATM   19  C   UNL     1      -3.125   4.512 -31.255  1.00  0.00     0.164 C 
BRANCH  19  20
HETATM   20  C   UNL     1      -1.763   4.850 -31.946  1.00  0.00     0.261 C 
BRANCH  20  21
HETATM   21  N   UNL     1      -1.945   5.732 -33.181  1.00  0.00    -0.067 N 
HETATM   22  H   UNL     1      -1.203   6.458 -33.094  1.00  0.00     0.280 HD
HETATM   23  C   UNL     1      -1.670   5.075 -34.499  1.00  0.00     0.270 C 
HETATM   24  C   UNL     1      -3.241   6.474 -33.188  1.00  0.00     0.270 C 
ENDBRANCH  20  21
BRANCH  20  25
HETATM   25  C   UNL     1      -0.795   5.420 -30.955  1.00  0.00     0.085 A 
HETATM   26  O   UNL     1      -0.073   4.523 -30.220  1.00  0.00    -0.325 OA
HETATM   27  C   UNL     1       0.740   5.238 -29.402  1.00  0.00     0.142 A 
HETATM   28  C   UNL     1       0.545   6.585 -29.592  1.00  0.00     0.027 A 
HETATM   29  C   UNL     1      -0.447   6.707 -30.596  1.00  0.00     0.037 A 
ENDBRANCH  20  25
ENDBRANCH  19  20
ENDBRANCH   3  19
TORSDOF 6
ENDMDL
MODEL 6
REMARK VINA RESULT:      -7.6      5.373      7.870
REMARK  6 active torsions:
REMARK  status: ('A' for Active; 'I' for Inactive)
REMARK    1  A    between atoms: C_3  and  N_4 
REMARK       I    between atoms: N_4  and  C_5 
REMARK       I    between atoms: C_5  and  N_6 
REMARK    2  A    between atoms: N_6  and  C_7 
REMARK    3  A    between atoms: C_7  and  C_8 
REMARK    4  A    between atoms: C_8  and  N_9 
REMARK    5  A    between atoms: C_8  and  C_13 
REMARK    6  A    between atoms: C_20  and  C_21 
ROOT
HETATM    1  N   UNL     1      -8.669   1.278 -34.790  1.00  0.00    -0.309 N 
HETATM    2  C   UNL     1      -9.932   1.069 -34.302  1.00  0.00     0.320 C 
HETATM    3  N   UNL     1     -10.892   1.662 -35.085  1.00  0.00    -0.340 N 
HETATM    4  O   UNL     1     -10.251   0.443 -33.298  1.00  0.00    -0.247 OA
HETATM    5  H   UNL     1      -8.557   2.159 -35.276  1.00  0.00     0.170 HD
HETATM    6  H   UNL     1     -10.565   2.215 -35.867  1.00  0.00     0.164 HD
ENDROOT
BRANCH   1   7
HETATM    7  C   UNL     1      -7.469   0.763 -34.244  1.00  0.00     0.043 A 
HETATM    8  C   UNL     1      -6.560   1.479 -33.447  1.00  0.00    -0.035 A 
HETATM    9  C   UNL     1      -6.771   2.888 -32.970  1.00  0.00     0.050 C 
HETATM   10  C   UNL     1      -5.383   0.833 -33.021  1.00  0.00     0.010 A 
HETATM   11  C   UNL     1      -5.136  -0.508 -33.326  1.00  0.00     0.016 A 
HETATM   12  C   UNL     1      -6.064  -1.246 -34.061  1.00  0.00     0.019 A 
HETATM   13  C   UNL     1      -7.226  -0.599 -34.504  1.00  0.00     0.046 A 
BRANCH  12  14
HETATM   14  C   UNL     1      -5.859  -2.654 -34.391  1.00  0.00     0.179 A 
HETATM   15  O   UNL     1      -6.942  -3.350 -34.861  1.00  0.00    -0.302 OA
HETATM   16  C   UNL     1      -6.462  -4.605 -35.081  1.00  0.00     0.163 A 
HETATM   17  C   UNL     1      -5.134  -4.617 -34.740  1.00  0.00     0.144 A 
HETATM   18  N   UNL     1      -4.755  -3.373 -34.301  1.00  0.00    -0.234 NA
ENDBRANCH  12  14
ENDBRANCH   1   7
BRANCH   3  19
HETATM   19  C   UNL     1     -12.273   1.879 -34.648  1.00  0.00     0.164 C 
BRANCH  19  20
HETATM   20  C   UNL     1     -12.494   2.973 -33.552  1.00  0.00     0.261 C 
BRANCH  20  21
HETATM   21  N   UNL     1     -12.207   4.380 -34.075  1.00  0.00    -0.067 N 
HETATM   22  H   UNL     1     -12.790   5.004 -33.478  1.00  0.00     0.280 HD
HETATM   23  C   UNL     1     -10.807   4.878 -33.877  1.00  0.00     0.270 C 
HETATM   24  C   UNL     1     -12.683   4.597 -35.474  1.00  0.00     0.270 C 
ENDBRANCH  20  21
BRANCH  20  25
HETATM   25  C   UNL     1     -13.854   2.841 -32.939  1.00  0.00     0.085 A 
HETATM   26  O   UNL     1     -14.408   3.980 -32.429  1.00  0.00    -0.325 OA
HETATM   27  C   UNL     1     -15.628   3.646 -31.937  1.00  0.00     0.142 A 
HETATM   28  C   UNL     1     -15.865   2.304 -32.114  1.00  0.00     0.027 A 
HETATM   29  C   UNL     1     -14.719   1.780 -32.762  1.00  0.00     0.037 A 
ENDBRANCH  20  25
ENDBRANCH  19  20
ENDBRANCH   3  19
TORSDOF 6
ENDMDL
MODEL 7
REMARK VINA RESULT:      -7.6      4.504      7.271
REMARK  6 active torsions:
REMARK  status: ('A' for Active; 'I' for Inactive)
REMARK    1  A    between atoms: C_3  and  N_4 
REMARK       I    between atoms: N_4  and  C_5 
REMARK       I    between atoms: C_5  and  N_6 
REMARK    2  A    between atoms: N_6  and  C_7 
REMARK    3  A    between atoms: C_7  and  C_8 
REMARK    4  A    between atoms: C_8  and  N_9 
REMARK    5  A    between atoms: C_8  and  C_13 
REMARK    6  A    between atoms: C_20  and  C_21 
ROOT
HETATM    1  N   UNL     1      -7.796   1.635 -33.787  1.00  0.00    -0.309 N 
HETATM    2  C   UNL     1      -8.848   1.773 -32.920  1.00  0.00     0.320 C 
HETATM    3  N   UNL     1      -9.850   2.552 -33.445  1.00  0.00    -0.340 N 
HETATM    4  O   UNL     1      -8.961   1.293 -31.798  1.00  0.00    -0.247 OA
HETATM    5  H   UNL     1      -7.651   2.437 -34.388  1.00  0.00     0.170 HD
HETATM    6  H   UNL     1      -9.676   2.969 -34.351  1.00  0.00     0.164 HD
ENDROOT
BRANCH   1   7
HETATM    7  C   UNL     1      -6.632   0.860 -33.567  1.00  0.00     0.043 A 
HETATM    8  C   UNL     1      -5.454   1.311 -32.948  1.00  0.00    -0.035 A 
HETATM    9  C   UNL     1      -5.282   2.672 -32.334  1.00  0.00     0.050 C 
HETATM   10  C   UNL     1      -4.363   0.426 -32.850  1.00  0.00     0.010 A 
HETATM   11  C   UNL     1      -4.452  -0.894 -33.300  1.00  0.00     0.016 A 
HETATM   12  C   UNL     1      -5.639  -1.371 -33.856  1.00  0.00     0.019 A 
HETATM   13  C   UNL     1      -6.720  -0.485 -33.974  1.00  0.00     0.046 A 
BRANCH  12  14
HETATM   14  C   UNL     1      -5.787  -2.745 -34.326  1.00  0.00     0.179 A 
HETATM   15  O   UNL     1      -4.709  -3.578 -34.173  1.00  0.00    -0.302 OA
HETATM   16  C   UNL     1      -5.131  -4.767 -34.687  1.00  0.00     0.163 A 
HETATM   17  C   UNL     1      -6.421  -4.607 -35.122  1.00  0.00     0.144 A 
HETATM   18  N   UNL     1      -6.835  -3.319 -34.890  1.00  0.00    -0.234 NA
ENDBRANCH  12  14
ENDBRANCH   1   7
BRANCH   3  19
HETATM   19  C   UNL     1     -10.931   3.129 -32.644  1.00  0.00     0.164 C 
BRANCH  19  20
HETATM   20  C   UNL     1     -12.306   3.322 -33.363  1.00  0.00     0.261 C 
BRANCH  20  21
HETATM   21  N   UNL     1     -12.165   4.072 -34.687  1.00  0.00    -0.067 N 
HETATM   22  H   UNL     1     -11.177   4.404 -34.695  1.00  0.00     0.280 HD
HETATM   23  C   UNL     1     -12.286   3.239 -35.927  1.00  0.00     0.270 C 
HETATM   24  C   UNL     1     -13.007   5.304 -34.759  1.00  0.00     0.270 C 
ENDBRANCH  20  21
BRANCH  20  25
HETATM   25  C   UNL     1     -13.018   2.011 -33.505  1.00  0.00     0.085 A 
HETATM   26  O   UNL     1     -12.236   0.892 -33.540  1.00  0.00    -0.325 OA
HETATM   27  C   UNL     1     -13.069  -0.173 -33.662  1.00  0.00     0.142 A 
HETATM   28  C   UNL     1     -14.377   0.245 -33.716  1.00  0.00     0.027 A 
HETATM   29  C   UNL     1     -14.348   1.658 -33.615  1.00  0.00     0.037 A 
ENDBRANCH  20  25
ENDBRANCH  19  20
ENDBRANCH   3  19
TORSDOF 6
ENDMDL
MODEL 8
REMARK VINA RESULT:      -7.6      5.097      7.382
REMARK  6 active torsions:
REMARK  status: ('A' for Active; 'I' for Inactive)
REMARK    1  A    between atoms: C_3  and  N_4 
REMARK       I    between atoms: N_4  and  C_5 
REMARK       I    between atoms: C_5  and  N_6 
REMARK    2  A    between atoms: N_6  and  C_7 
REMARK    3  A    between atoms: C_7  and  C_8 
REMARK    4  A    between atoms: C_8  and  N_9 
REMARK    5  A    between atoms: C_8  and  C_13 
REMARK    6  A    between atoms: C_20  and  C_21 
ROOT
HETATM    1  N   UNL     1      -8.215   0.868 -34.401  1.00  0.00    -0.309 N 
HETATM    2  C   UNL     1      -9.397   0.627 -33.752  1.00  0.00     0.320 C 
HETATM    3  N   UNL     1     -10.474   1.132 -34.438  1.00  0.00    -0.340 N 
HETATM    4  O   UNL     1      -9.560   0.041 -32.687  1.00  0.00    -0.247 OA
HETATM    5  H   UNL     1      -8.209   1.727 -34.938  1.00  0.00     0.170 HD
HETATM    6  H   UNL     1     -10.273   1.656 -35.280  1.00  0.00     0.164 HD
ENDROOT
BRANCH   1   7
HETATM    7  C   UNL     1      -6.932   0.440 -33.981  1.00  0.00     0.043 A 
HETATM    8  C   UNL     1      -5.971   1.242 -33.343  1.00  0.00    -0.035 A 
HETATM    9  C   UNL     1      -6.194   2.666 -32.919  1.00  0.00     0.050 C 
HETATM   10  C   UNL     1      -4.719   0.675 -33.034  1.00  0.00     0.010 A 
HETATM   11  C   UNL     1      -4.442  -0.669 -33.296  1.00  0.00     0.016 A 
HETATM   12  C   UNL     1      -5.414  -1.490 -33.869  1.00  0.00     0.019 A 
HETATM   13  C   UNL     1      -6.654  -0.923 -34.197  1.00  0.00     0.046 A 
BRANCH  12  14
HETATM   14  C   UNL     1      -5.179  -2.905 -34.147  1.00  0.00     0.179 A 
HETATM   15  O   UNL     1      -4.025  -3.456 -33.654  1.00  0.00    -0.302 OA
HETATM   16  C   UNL     1      -4.077  -4.755 -34.059  1.00  0.00     0.163 A 
HETATM   17  C   UNL     1      -5.238  -4.932 -34.767  1.00  0.00     0.144 A 
HETATM   18  N   UNL     1      -5.936  -3.752 -34.821  1.00  0.00    -0.234 NA
ENDBRANCH  12  14
ENDBRANCH   1   7
BRANCH   3  19
HETATM   19  C   UNL     1     -11.802   1.307 -33.846  1.00  0.00     0.164 C 
BRANCH  19  20
HETATM   20  C   UNL     1     -12.823   2.165 -34.663  1.00  0.00     0.261 C 
BRANCH  20  21
HETATM   21  N   UNL     1     -14.247   2.037 -34.123  1.00  0.00    -0.067 N 
HETATM   22  H   UNL     1     -14.809   2.687 -34.713  1.00  0.00     0.280 HD
HETATM   23  C   UNL     1     -14.901   0.702 -34.313  1.00  0.00     0.270 C 
HETATM   24  C   UNL     1     -14.392   2.534 -32.721  1.00  0.00     0.270 C 
ENDBRANCH  20  21
BRANCH  20  25
HETATM   25  C   UNL     1     -12.359   3.585 -34.765  1.00  0.00     0.085 A 
HETATM   26  O   UNL     1     -11.358   3.964 -33.915  1.00  0.00    -0.325 OA
HETATM   27  C   UNL     1     -11.085   5.268 -34.175  1.00  0.00     0.142 A 
HETATM   28  C   UNL     1     -11.903   5.738 -35.174  1.00  0.00     0.027 A 
HETATM   29  C   UNL     1     -12.729   4.653 -35.557  1.00  0.00     0.037 A 
ENDBRANCH  20  25
ENDBRANCH  19  20
ENDBRANCH   3  19
TORSDOF 6
ENDMDL
MODEL 9
REMARK VINA RESULT:      -7.4      5.825      7.505
REMARK  6 active torsions:
REMARK  status: ('A' for Active; 'I' for Inactive)
REMARK    1  A    between atoms: C_3  and  N_4 
REMARK       I    between atoms: N_4  and  C_5 
REMARK       I    between atoms: C_5  and  N_6 
REMARK    2  A    between atoms: N_6  and  C_7 
REMARK    3  A    between atoms: C_7  and  C_8 
REMARK    4  A    between atoms: C_8  and  N_9 
REMARK    5  A    between atoms: C_8  and  C_13 
REMARK    6  A    between atoms: C_20  and  C_21 
ROOT
HETATM    1  N   UNL     1      -9.084   1.709 -33.919  1.00  0.00    -0.309 N 
HETATM    2  C   UNL     1     -10.391   1.334 -34.091  1.00  0.00     0.320 C 
HETATM    3  N   UNL     1     -11.047   2.148 -34.982  1.00  0.00    -0.340 N 
HETATM    4  O   UNL     1     -10.979   0.402 -33.554  1.00  0.00    -0.247 OA
HETATM    5  H   UNL     1      -8.925   2.703 -34.022  1.00  0.00     0.170 HD
HETATM    6  H   UNL     1     -10.528   2.935 -35.349  1.00  0.00     0.164 HD
ENDROOT
BRANCH   1   7
HETATM    7  C   UNL     1      -8.129   1.051 -33.107  1.00  0.00     0.043 A 
HETATM    8  C   UNL     1      -7.850   1.356 -31.764  1.00  0.00    -0.035 A 
HETATM    9  C   UNL     1      -8.595   2.374 -30.949  1.00  0.00     0.050 C 
HETATM   10  C   UNL     1      -6.832   0.638 -31.108  1.00  0.00     0.010 A 
HETATM   11  C   UNL     1      -6.143  -0.399 -31.744  1.00  0.00     0.016 A 
HETATM   12  C   UNL     1      -6.459  -0.753 -33.057  1.00  0.00     0.019 A 
HETATM   13  C   UNL     1      -7.458  -0.025 -33.719  1.00  0.00     0.046 A 
BRANCH  12  14
HETATM   14  C   UNL     1      -5.781  -1.838 -33.759  1.00  0.00     0.179 A 
HETATM   15  O   UNL     1      -6.553  -2.654 -34.544  1.00  0.00    -0.302 OA
HETATM   16  C   UNL     1      -5.670  -3.551 -35.063  1.00  0.00     0.163 A 
HETATM   17  C   UNL     1      -4.423  -3.246 -34.580  1.00  0.00     0.144 A 
HETATM   18  N   UNL     1      -4.498  -2.155 -33.750  1.00  0.00    -0.234 NA
ENDBRANCH  12  14
ENDBRANCH   1   7
BRANCH   3  19
HETATM   19  C   UNL     1     -12.505   2.190 -35.118  1.00  0.00     0.164 C 
BRANCH  19  20
HETATM   20  C   UNL     1     -13.288   2.946 -33.994  1.00  0.00     0.261 C 
BRANCH  20  21
HETATM   21  N   UNL     1     -13.778   2.001 -32.897  1.00  0.00    -0.067 N 
HETATM   22  H   UNL     1     -12.920   1.763 -32.356  1.00  0.00     0.280 HD
HETATM   23  C   UNL     1     -14.702   2.603 -31.882  1.00  0.00     0.270 C 
HETATM   24  C   UNL     1     -14.298   0.704 -33.425  1.00  0.00     0.270 C 
ENDBRANCH  20  21
BRANCH  20  25
HETATM   25  C   UNL     1     -12.481   4.092 -33.466  1.00  0.00     0.085 A 
HETATM   26  O   UNL     1     -11.612   3.811 -32.450  1.00  0.00    -0.325 OA
HETATM   27  C   UNL     1     -10.983   4.970 -32.130  1.00  0.00     0.142 A 
HETATM   28  C   UNL     1     -11.442   5.998 -32.918  1.00  0.00     0.027 A 
HETATM   29  C   UNL     1     -12.412   5.433 -33.784  1.00  0.00     0.037 A 
ENDBRANCH  20  25
ENDBRANCH  19  20
ENDBRANCH   3  19
TORSDOF 6
ENDMDL
MODEL 10
REMARK VINA RESULT:      -7.4      5.114      7.216
REMARK  6 active torsions:
REMARK  status: ('A' for Active; 'I' for Inactive)
REMARK    1  A    between atoms: C_3  and  N_4 
REMARK       I    between atoms: N_4  and  C_5 
REMARK       I    between atoms: C_5  and  N_6 
REMARK    2  A    between atoms: N_6  and  C_7 
REMARK    3  A    between atoms: C_7  and  C_8 
REMARK    4  A    between atoms: C_8  and  N_9 
REMARK    5  A    between atoms: C_8  and  C_13 
REMARK    6  A    between atoms: C_20  and  C_21 
ROOT
HETATM    1  N   UNL     1      -8.943   1.190 -31.847  1.00  0.00    -0.309 N 
HETATM    2  C   UNL     1      -9.360   2.421 -32.284  1.00  0.00     0.320 C 
HETATM    3  N   UNL     1     -10.704   2.612 -32.079  1.00  0.00    -0.340 N 
HETATM    4  O   UNL     1      -8.681   3.299 -32.804  1.00  0.00    -0.247 OA
HETATM    5  H   UNL     1      -9.649   0.468 -31.920  1.00  0.00     0.170 HD
HETATM    6  H   UNL     1     -11.224   1.831 -31.699  1.00  0.00     0.164 HD
ENDROOT
BRANCH   1   7
HETATM    7  C   UNL     1      -7.614   0.704 -31.873  1.00  0.00     0.043 A 
HETATM    8  C   UNL     1      -6.553   1.184 -31.087  1.00  0.00    -0.035 A 
HETATM    9  C   UNL     1      -6.689   2.235 -30.022  1.00  0.00     0.050 C 
HETATM   10  C   UNL     1      -5.273   0.624 -31.268  1.00  0.00     0.010 A 
HETATM   11  C   UNL     1      -5.057  -0.427 -32.163  1.00  0.00     0.016 A 
HETATM   12  C   UNL     1      -6.118  -0.955 -32.900  1.00  0.00     0.019 A 
HETATM   13  C   UNL     1      -7.389  -0.385 -32.736  1.00  0.00     0.046 A 
BRANCH  12  14
HETATM   14  C   UNL     1      -5.947  -2.063 -33.835  1.00  0.00     0.179 A 
HETATM   15  O   UNL     1      -7.078  -2.733 -34.224  1.00  0.00    -0.302 OA
HETATM   16  C   UNL     1      -6.620  -3.690 -35.078  1.00  0.00     0.163 A 
HETATM   17  C   UNL     1      -5.258  -3.563 -35.168  1.00  0.00     0.144 A 
HETATM   18  N   UNL     1      -4.834  -2.526 -34.375  1.00  0.00    -0.234 NA
ENDBRANCH  12  14
ENDBRANCH   1   7
BRANCH   3  19
HETATM   19  C   UNL     1     -11.477   3.677 -32.722  1.00  0.00     0.164 C 
BRANCH  19  20
HETATM   20  C   UNL     1     -12.287   3.276 -33.999  1.00  0.00     0.261 C 
BRANCH  20  21
HETATM   21  N   UNL     1     -11.443   3.368 -35.270  1.00  0.00    -0.067 N 
HETATM   22  H   UNL     1     -10.760   2.586 -35.187  1.00  0.00     0.280 HD
HETATM   23  C   UNL     1     -12.165   3.097 -36.555  1.00  0.00     0.270 C 
HETATM   24  C   UNL     1     -10.623   4.615 -35.344  1.00  0.00     0.270 C 
ENDBRANCH  20  21
BRANCH  20  25
HETATM   25  C   UNL     1     -12.932   1.937 -33.818  1.00  0.00     0.085 A 
HETATM   26  O   UNL     1     -12.097   0.856 -33.778  1.00  0.00    -0.325 OA
HETATM   27  C   UNL     1     -12.874  -0.243 -33.601  1.00  0.00     0.142 A 
HETATM   28  C   UNL     1     -14.200   0.113 -33.538  1.00  0.00     0.027 A 
HETATM   29  C   UNL     1     -14.241   1.522 -33.678  1.00  0.00     0.037 A 
ENDBRANCH  20  25
ENDBRANCH  19  20
ENDBRANCH   3  19
TORSDOF 6
ENDMDL
