MODEL 1
REMARK VINA RESULT:     -10.1      0.000      0.000
REMARK  7 active torsions:
REMARK  status: ('A' for Active; 'I' for Inactive)
REMARK    1  A    between atoms: N_2  and  C_4 
REMARK    2  A    between atoms: C_4  and  C_5 
REMARK    3  A    between atoms: C_5  and  C_6 
REMARK    4  A    between atoms: C_6  and  N_7 
REMARK    5  A    between atoms: N_7  and  C_8 
REMARK    6  A    between atoms: C_23  and  N_24 
REMARK    7  A    between atoms: N_27  and  C_29 
ROOT
HETATM    1  C   UNL     1      -7.010   0.763 -34.339  1.00  0.00     0.025 A 
HETATM    2  C   UNL     1      -6.247  -0.408 -34.160  1.00  0.00     0.052 A 
HETATM    3  C   UNL     1      -5.130  -0.165 -33.401  1.00  0.00     0.050 A 
HETATM    4  C   UNL     1      -4.265  -1.164 -33.117  1.00  0.00     0.126 A 
HETATM    5  C   UNL     1      -4.378  -2.545 -33.514  1.00  0.00     0.015 A 
HETATM    6  C   UNL     1      -5.510  -2.862 -34.313  1.00  0.00     0.028 A 
HETATM    7  C   UNL     1      -6.481  -1.771 -34.698  1.00  0.00     0.196 A 
HETATM    8  O   UNL     1      -7.433  -1.963 -35.448  1.00  0.00    -0.287 OA
HETATM    9  C   UNL     1      -3.476  -3.543 -33.153  1.00  0.00     0.015 A 
HETATM   10  C   UNL     1      -3.701  -4.855 -33.582  1.00  0.00     0.001 A 
HETATM   11  C   UNL     1      -4.815  -5.167 -34.369  1.00  0.00     0.001 A 
HETATM   12  C   UNL     1      -5.724  -4.172 -34.739  1.00  0.00     0.016 A 
HETATM   13  C   UNL     1      -4.665   1.020 -32.787  1.00  0.00     0.125 A 
HETATM   14  N   UNL     1      -3.487   0.723 -32.184  1.00  0.00    -0.125 NA
HETATM   15  O   UNL     1      -3.254  -0.650 -32.379  1.00  0.00    -0.211 OA
HETATM   16  C   UNL     1      -5.416   2.229 -32.900  1.00  0.00     0.064 A 
HETATM   17  C   UNL     1      -6.608   2.005 -33.694  1.00  0.00     0.056 A 
ENDROOT
BRANCH  16  18
HETATM   18  N   UNL     1      -5.156   3.462 -32.292  1.00  0.00    -0.376 N 
HETATM   19  C   UNL     1      -5.093   4.672 -33.124  1.00  0.00     0.150 C 
HETATM   20  C   UNL     1      -3.645   4.959 -33.582  1.00  0.00     0.255 C 
HETATM   21  N   UNL     1      -2.675   5.052 -32.389  1.00  0.00    -0.064 N 
HETATM   22  H   UNL     1      -3.004   5.817 -31.789  1.00  0.00     0.280 HD
HETATM   23  C   UNL     1      -2.792   3.758 -31.540  1.00  0.00     0.255 C 
HETATM   24  C   UNL     1      -4.259   3.514 -31.120  1.00  0.00     0.150 C 
BRANCH  21  25
HETATM   25  C   UNL     1      -1.231   5.364 -32.822  1.00  0.00     0.188 C 
HETATM   26  C   UNL     1      -1.109   6.807 -33.353  1.00  0.00     0.033 C 
HETATM   27  C   UNL     1      -1.364   7.858 -32.272  1.00  0.00     0.002 C 
HETATM   28  C   UNL     1      -0.441   7.661 -31.072  1.00  0.00     0.000 C 
HETATM   29  C   UNL     1      -0.472   6.229 -30.540  1.00  0.00     0.002 C 
HETATM   30  C   UNL     1      -0.242   5.207 -31.654  1.00  0.00     0.033 C 
ENDBRANCH  21  25
ENDBRANCH  16  18
BRANCH   1  31
HETATM   31  N   UNL     1      -8.228   0.679 -35.068  1.00  0.00    -0.292 NA
HETATM   32  H   UNL     1      -7.978   0.739 -36.071  1.00  0.00     0.127 HD
BRANCH  31  33
HETATM   33  C   UNL     1      -9.285   1.610 -34.692  1.00  0.00     0.094 C 
BRANCH  33  34
HETATM   34  C   UNL     1     -10.016   1.104 -33.445  1.00  0.00     0.042 C 
BRANCH  34  35
HETATM   35  C   UNL     1     -10.182   2.194 -32.389  1.00  0.00     0.235 C 
BRANCH  35  36
HETATM   36  N   UNL     1      -9.466   1.809 -31.103  1.00  0.00    -0.079 N 
HETATM   37  C   UNL     1      -8.518   2.860 -30.591  1.00  0.00     0.269 C 
HETATM   38  H   UNL     1     -10.184   1.664 -30.379  1.00  0.00     0.278 HD
HETATM   39  C   UNL     1      -8.762   0.482 -31.247  1.00  0.00     0.269 C 
ENDBRANCH  35  36
ENDBRANCH  34  35
ENDBRANCH  33  34
ENDBRANCH  31  33
ENDBRANCH   1  31
TORSDOF 7
ENDMDL
MODEL 2
REMARK VINA RESULT:     -10.0      1.246      1.717
REMARK  7 active torsions:
REMARK  status: ('A' for Active; 'I' for Inactive)
REMARK    1  A    between atoms: N_2  and  C_4 
REMARK    2  A    between atoms: C_4  and  C_5 
REMARK    3  A    between atoms: C_5  and  C_6 
REMARK    4  A    between atoms: C_6  and  N_7 
REMARK    5  A    between atoms: N_7  and  C_8 
REMARK    6  A    between atoms: C_23  and  N_24 
REMARK    7  A    between atoms: N_27  and  C_29 
ROOT
HETATM    1  C   UNL     1      -7.174   0.959 -34.155  1.00  0.00     0.025 A 
HETATM    2  C   UNL     1      -6.415  -0.225 -34.069  1.00  0.00     0.052 A 
HETATM    3  C   UNL     1      -5.256  -0.025 -33.364  1.00  0.00     0.050 A 
HETATM    4  C   UNL     1      -4.387  -1.043 -33.171  1.00  0.00     0.126 A 
HETATM    5  C   UNL     1      -4.537  -2.404 -33.619  1.00  0.00     0.015 A 
HETATM    6  C   UNL     1      -5.714  -2.677 -34.366  1.00  0.00     0.028 A 
HETATM    7  C   UNL     1      -6.694  -1.562 -34.650  1.00  0.00     0.196 A 
HETATM    8  O   UNL     1      -7.687  -1.713 -35.354  1.00  0.00    -0.287 OA
HETATM    9  C   UNL     1      -3.628  -3.424 -33.351  1.00  0.00     0.015 A 
HETATM   10  C   UNL     1      -3.890  -4.714 -33.822  1.00  0.00     0.001 A 
HETATM   11  C   UNL     1      -5.050  -4.983 -34.559  1.00  0.00     0.001 A 
HETATM   12  C   UNL     1      -5.966  -3.965 -34.835  1.00  0.00     0.016 A 
HETATM   13  C   UNL     1      -4.744   1.129 -32.727  1.00  0.00     0.125 A 
HETATM   14  N   UNL     1      -3.538   0.796 -32.203  1.00  0.00    -0.125 NA
HETATM   15  O   UNL     1      -3.331  -0.570 -32.469  1.00  0.00    -0.211 OA
HETATM   16  C   UNL     1      -5.487   2.348 -32.746  1.00  0.00     0.064 A 
HETATM   17  C   UNL     1      -6.724   2.168 -33.482  1.00  0.00     0.056 A 
ENDROOT
BRANCH  16  18
HETATM   18  N   UNL     1      -5.181   3.551 -32.102  1.00  0.00    -0.376 N 
HETATM   19  C   UNL     1      -5.167   4.798 -32.882  1.00  0.00     0.150 C 
HETATM   20  C   UNL     1      -3.751   5.102 -33.421  1.00  0.00     0.255 C 
HETATM   21  N   UNL     1      -2.703   5.139 -32.293  1.00  0.00    -0.064 N 
HETATM   22  H   UNL     1      -2.987   5.877 -31.638  1.00  0.00     0.280 HD
HETATM   23  C   UNL     1      -2.770   3.808 -31.497  1.00  0.00     0.255 C 
HETATM   24  C   UNL     1      -4.207   3.548 -30.992  1.00  0.00     0.150 C 
BRANCH  21  25
HETATM   25  C   UNL     1      -1.289   5.467 -32.807  1.00  0.00     0.188 C 
HETATM   26  C   UNL     1      -1.184   6.943 -33.241  1.00  0.00     0.033 C 
HETATM   27  C   UNL     1      -1.344   7.916 -32.073  1.00  0.00     0.002 C 
HETATM   28  C   UNL     1      -0.340   7.623 -30.960  1.00  0.00     0.000 C 
HETATM   29  C   UNL     1      -0.354   6.157 -30.530  1.00  0.00     0.002 C 
HETATM   30  C   UNL     1      -0.221   5.216 -31.729  1.00  0.00     0.033 C 
ENDBRANCH  21  25
ENDBRANCH  16  18
BRANCH   1  31
HETATM   31  N   UNL     1      -8.432   0.916 -34.819  1.00  0.00    -0.292 NA
HETATM   32  H   UNL     1      -8.238   1.043 -35.828  1.00  0.00     0.127 HD
BRANCH  31  33
HETATM   33  C   UNL     1      -9.466   1.817 -34.324  1.00  0.00     0.094 C 
BRANCH  33  34
HETATM   34  C   UNL     1     -10.582   1.016 -33.646  1.00  0.00     0.042 C 
BRANCH  34  35
HETATM   35  C   UNL     1     -11.972   1.502 -34.052  1.00  0.00     0.235 C 
BRANCH  35  36
HETATM   36  N   UNL     1     -13.037   0.888 -33.156  1.00  0.00    -0.079 N 
HETATM   37  C   UNL     1     -13.514  -0.465 -33.611  1.00  0.00     0.269 C 
HETATM   38  H   UNL     1     -12.626   0.770 -32.220  1.00  0.00     0.278 HD
HETATM   39  C   UNL     1     -14.202   1.829 -32.971  1.00  0.00     0.269 C 
ENDBRANCH  35  36
ENDBRANCH  34  35
ENDBRANCH  33  34
ENDBRANCH  31  33
ENDBRANCH   1  31
TORSDOF 7
ENDMDL
MODEL 3
REMARK VINA RESULT:      -9.8      2.436      7.108
REMARK  7 active torsions:
REMARK  status: ('A' for Active; 'I' for Inactive)
REMARK    1  A    between atoms: N_2  and  C_4 
REMARK    2  A    between atoms: C_4  and  C_5 
REMARK    3  A    between atoms: C_5  and  C_6 
REMARK    4  A    between atoms: C_6  and  N_7 
REMARK    5  A    between atoms: N_7  and  C_8 
REMARK    6  A    between atoms: C_23  and  N_24 
REMARK    7  A    between atoms: N_27  and  C_29 
ROOT
HETATM    1  C   UNL     1      -4.837   2.030 -32.638  1.00  0.00     0.025 A 
HETATM    2  C   UNL     1      -5.214   0.751 -33.094  1.00  0.00     0.052 A 
HETATM    3  C   UNL     1      -6.563   0.683 -33.332  1.00  0.00     0.050 A 
HETATM    4  C   UNL     1      -7.123  -0.464 -33.775  1.00  0.00     0.126 A 
HETATM    5  C   UNL     1      -6.445  -1.700 -34.069  1.00  0.00     0.015 A 
HETATM    6  C   UNL     1      -5.044  -1.701 -33.834  1.00  0.00     0.028 A 
HETATM    7  C   UNL     1      -4.376  -0.457 -33.294  1.00  0.00     0.196 A 
HETATM    8  O   UNL     1      -3.187  -0.418 -32.995  1.00  0.00    -0.287 OA
HETATM    9  C   UNL     1      -7.070  -2.841 -34.568  1.00  0.00     0.015 A 
HETATM   10  C   UNL     1      -6.303  -3.979 -34.835  1.00  0.00     0.001 A 
HETATM   11  C   UNL     1      -4.922  -3.980 -34.603  1.00  0.00     0.001 A 
HETATM   12  C   UNL     1      -4.287  -2.841 -34.100  1.00  0.00     0.016 A 
HETATM   13  C   UNL     1      -7.577   1.662 -33.212  1.00  0.00     0.125 A 
HETATM   14  N   UNL     1      -8.750   1.064 -33.536  1.00  0.00    -0.125 NA
HETATM   15  O   UNL     1      -8.455  -0.261 -33.905  1.00  0.00    -0.211 OA
HETATM   16  C   UNL     1      -7.249   2.987 -32.793  1.00  0.00     0.064 A 
HETATM   17  C   UNL     1      -5.826   3.093 -32.538  1.00  0.00     0.056 A 
ENDROOT
BRANCH  16  18
HETATM   18  N   UNL     1      -8.099   4.095 -32.704  1.00  0.00    -0.376 N 
HETATM   19  C   UNL     1      -9.147   4.112 -31.673  1.00  0.00     0.150 C 
HETATM   20  C   UNL     1     -10.476   3.544 -32.220  1.00  0.00     0.255 C 
HETATM   21  N   UNL     1     -10.934   4.281 -33.492  1.00  0.00    -0.064 N 
HETATM   22  H   UNL     1     -11.059   5.270 -33.243  1.00  0.00     0.280 HD
HETATM   23  C   UNL     1      -9.789   4.243 -34.539  1.00  0.00     0.255 C 
HETATM   24  C   UNL     1      -8.483   4.811 -33.937  1.00  0.00     0.150 C 
BRANCH  21  25
HETATM   25  C   UNL     1     -12.272   3.748 -34.039  1.00  0.00     0.188 C 
HETATM   26  C   UNL     1     -13.411   3.956 -33.020  1.00  0.00     0.033 C 
HETATM   27  C   UNL     1     -13.721   5.433 -32.773  1.00  0.00     0.002 C 
HETATM   28  C   UNL     1     -14.041   6.162 -34.076  1.00  0.00     0.000 C 
HETATM   29  C   UNL     1     -12.976   5.941 -35.148  1.00  0.00     0.002 C 
HETATM   30  C   UNL     1     -12.673   4.455 -35.345  1.00  0.00     0.033 C 
ENDBRANCH  21  25
ENDBRANCH  16  18
BRANCH   1  31
HETATM   31  N   UNL     1      -3.460   2.285 -32.385  1.00  0.00    -0.292 NA
HETATM   32  H   UNL     1      -3.008   1.364 -32.249  1.00  0.00     0.127 HD
BRANCH  31  33
HETATM   33  C   UNL     1      -3.153   3.229 -31.316  1.00  0.00     0.094 C 
BRANCH  33  34
HETATM   34  C   UNL     1      -2.165   4.287 -31.815  1.00  0.00     0.042 C 
BRANCH  34  35
HETATM   35  C   UNL     1      -2.816   5.281 -32.775  1.00  0.00     0.235 C 
BRANCH  35  36
HETATM   36  N   UNL     1      -2.611   4.846 -34.219  1.00  0.00    -0.079 N 
HETATM   37  C   UNL     1      -1.335   5.355 -34.835  1.00  0.00     0.269 C 
HETATM   38  H   UNL     1      -2.569   3.818 -34.230  1.00  0.00     0.278 HD
HETATM   39  C   UNL     1      -3.799   5.214 -35.073  1.00  0.00     0.269 C 
ENDBRANCH  35  36
ENDBRANCH  34  35
ENDBRANCH  33  34
ENDBRANCH  31  33
ENDBRANCH   1  31
TORSDOF 7
ENDMDL
MODEL 4
REMARK VINA RESULT:      -9.5      2.502      5.673
REMARK  7 active torsions:
REMARK  status: ('A' for Active; 'I' for Inactive)
REMARK    1  A    between atoms: N_2  and  C_4 
REMARK    2  A    between atoms: C_4  and  C_5 
REMARK    3  A    between atoms: C_5  and  C_6 
REMARK    4  A    between atoms: C_6  and  N_7 
REMARK    5  A    between atoms: N_7  and  C_8 
REMARK    6  A    between atoms: C_23  and  N_24 
REMARK    7  A    between atoms: N_27  and  C_29 
ROOT
HETATM    1  C   UNL     1      -7.699   1.780 -32.523  1.00  0.00     0.025 A 
HETATM    2  C   UNL     1      -9.027   1.776 -32.992  1.00  0.00     0.052 A 
HETATM    3  C   UNL     1      -9.344   2.960 -33.606  1.00  0.00     0.050 A 
HETATM    4  C   UNL     1     -10.577   3.155 -34.124  1.00  0.00     0.126 A 
HETATM    5  C   UNL     1     -11.669   2.215 -34.135  1.00  0.00     0.015 A 
HETATM    6  C   UNL     1     -11.410   0.969 -33.504  1.00  0.00     0.028 A 
HETATM    7  C   UNL     1     -10.062   0.719 -32.868  1.00  0.00     0.196 A 
HETATM    8  O   UNL     1      -9.802  -0.302 -32.240  1.00  0.00    -0.287 OA
HETATM    9  C   UNL     1     -12.907   2.455 -34.725  1.00  0.00     0.015 A 
HETATM   10  C   UNL     1     -13.886   1.457 -34.690  1.00  0.00     0.001 A 
HETATM   11  C   UNL     1     -13.631   0.229 -34.068  1.00  0.00     0.001 A 
HETATM   12  C   UNL     1     -12.393  -0.020 -33.471  1.00  0.00     0.016 A 
HETATM   13  C   UNL     1      -8.569   4.119 -33.844  1.00  0.00     0.125 A 
HETATM   14  N   UNL     1      -9.374   5.021 -34.459  1.00  0.00    -0.125 NA
HETATM   15  O   UNL     1     -10.624   4.403 -34.647  1.00  0.00    -0.211 OA
HETATM   16  C   UNL     1      -7.204   4.166 -33.428  1.00  0.00     0.064 A 
HETATM   17  C   UNL     1      -6.836   2.924 -32.777  1.00  0.00     0.056 A 
ENDROOT
BRANCH  16  18
HETATM   18  N   UNL     1      -6.271   5.184 -33.655  1.00  0.00    -0.376 N 
HETATM   19  C   UNL     1      -4.967   4.843 -34.242  1.00  0.00     0.150 C 
HETATM   20  C   UNL     1      -3.916   4.568 -33.144  1.00  0.00     0.255 C 
HETATM   21  N   UNL     1      -3.792   5.748 -32.161  1.00  0.00    -0.064 N 
HETATM   22  H   UNL     1      -3.513   6.571 -32.706  1.00  0.00     0.280 HD
HETATM   23  C   UNL     1      -5.195   6.072 -31.581  1.00  0.00     0.255 C 
HETATM   24  C   UNL     1      -6.209   6.326 -32.721  1.00  0.00     0.150 C 
BRANCH  21  25
HETATM   25  C   UNL     1      -2.729   5.505 -31.073  1.00  0.00     0.188 C 
HETATM   26  C   UNL     1      -1.471   4.838 -31.664  1.00  0.00     0.033 C 
HETATM   27  C   UNL     1      -0.732   5.741 -32.652  1.00  0.00     0.002 C 
HETATM   28  C   UNL     1      -0.367   7.081 -32.019  1.00  0.00     0.000 C 
HETATM   29  C   UNL     1      -1.565   7.762 -31.359  1.00  0.00     0.002 C 
HETATM   30  C   UNL     1      -2.294   6.819 -30.401  1.00  0.00     0.033 C 
ENDBRANCH  21  25
ENDBRANCH  16  18
BRANCH   1  31
HETATM   31  N   UNL     1      -7.193   0.607 -31.896  1.00  0.00    -0.292 NA
HETATM   32  H   UNL     1      -7.702   0.507 -31.000  1.00  0.00     0.127 HD
BRANCH  31  33
HETATM   33  C   UNL     1      -5.746   0.519 -31.737  1.00  0.00     0.094 C 
BRANCH  33  34
HETATM   34  C   UNL     1      -5.257  -0.879 -32.127  1.00  0.00     0.042 C 
BRANCH  34  35
HETATM   35  C   UNL     1      -5.239  -1.085 -33.640  1.00  0.00     0.235 C 
BRANCH  35  36
HETATM   36  N   UNL     1      -6.623  -1.462 -34.147  1.00  0.00    -0.079 N 
HETATM   37  C   UNL     1      -6.741  -2.894 -34.594  1.00  0.00     0.269 C 
HETATM   38  H   UNL     1      -7.286  -1.327 -33.371  1.00  0.00     0.278 HD
HETATM   39  C   UNL     1      -7.079  -0.525 -35.238  1.00  0.00     0.269 C 
ENDBRANCH  35  36
ENDBRANCH  34  35
ENDBRANCH  33  34
ENDBRANCH  31  33
ENDBRANCH   1  31
TORSDOF 7
ENDMDL
MODEL 5
REMARK VINA RESULT:      -9.3      2.547      5.656
REMARK  7 active torsions:
REMARK  status: ('A' for Active; 'I' for Inactive)
REMARK    1  A    between atoms: N_2  and  C_4 
REMARK    2  A    between atoms: C_4  and  C_5 
REMARK    3  A    between atoms: C_5  and  C_6 
REMARK    4  A    between atoms: C_6  and  N_7 
REMARK    5  A    between atoms: N_7  and  C_8 
REMARK    6  A    between atoms: C_23  and  N_24 
REMARK    7  A    between atoms: N_27  and  C_29 
ROOT
HETATM    1  C   UNL     1      -7.916   1.352 -33.044  1.00  0.00     0.025 A 
HETATM    2  C   UNL     1      -9.298   1.438 -33.305  1.00  0.00     0.052 A 
HETATM    3  C   UNL     1      -9.655   2.705 -33.692  1.00  0.00     0.050 A 
HETATM    4  C   UNL     1     -10.942   2.994 -33.987  1.00  0.00     0.126 A 
HETATM    5  C   UNL     1     -12.059   2.084 -33.968  1.00  0.00     0.015 A 
HETATM    6  C   UNL     1     -11.759   0.754 -33.564  1.00  0.00     0.028 A 
HETATM    7  C   UNL     1     -10.343   0.393 -33.178  1.00  0.00     0.196 A 
HETATM    8  O   UNL     1     -10.034  -0.713 -32.747  1.00  0.00    -0.287 OA
HETATM    9  C   UNL     1     -13.360   2.428 -34.326  1.00  0.00     0.015 A 
HETATM   10  C   UNL     1     -14.360   1.451 -34.287  1.00  0.00     0.001 A 
HETATM   11  C   UNL     1     -14.064   0.142 -33.889  1.00  0.00     0.001 A 
HETATM   12  C   UNL     1     -12.763  -0.211 -33.525  1.00  0.00     0.016 A 
HETATM   13  C   UNL     1      -8.878   3.872 -33.877  1.00  0.00     0.125 A 
HETATM   14  N   UNL     1      -9.730   4.867 -34.231  1.00  0.00    -0.125 NA
HETATM   15  O   UNL     1     -11.016   4.304 -34.316  1.00  0.00    -0.211 OA
HETATM   16  C   UNL     1      -7.467   3.836 -33.666  1.00  0.00     0.064 A 
HETATM   17  C   UNL     1      -7.056   2.506 -33.260  1.00  0.00     0.056 A 
ENDROOT
BRANCH  16  18
HETATM   18  N   UNL     1      -6.539   4.860 -33.884  1.00  0.00    -0.376 N 
HETATM   19  C   UNL     1      -5.222   4.526 -34.446  1.00  0.00     0.150 C 
HETATM   20  C   UNL     1      -4.188   4.268 -33.327  1.00  0.00     0.255 C 
HETATM   21  N   UNL     1      -4.092   5.455 -32.350  1.00  0.00    -0.064 N 
HETATM   22  H   UNL     1      -3.809   6.277 -32.897  1.00  0.00     0.280 HD
HETATM   23  C   UNL     1      -5.508   5.772 -31.798  1.00  0.00     0.255 C 
HETATM   24  C   UNL     1      -6.503   6.009 -32.958  1.00  0.00     0.150 C 
BRANCH  21  25
HETATM   25  C   UNL     1      -3.047   5.229 -31.242  1.00  0.00     0.188 C 
HETATM   26  C   UNL     1      -1.719   4.710 -31.828  1.00  0.00     0.033 C 
HETATM   27  C   UNL     1      -1.028   5.735 -32.728  1.00  0.00     0.002 C 
HETATM   28  C   UNL     1      -0.799   7.056 -31.997  1.00  0.00     0.000 C 
HETATM   29  C   UNL     1      -2.071   7.589 -31.340  1.00  0.00     0.002 C 
HETATM   30  C   UNL     1      -2.746   6.527 -30.472  1.00  0.00     0.033 C 
ENDBRANCH  21  25
ENDBRANCH  16  18
BRANCH   1  31
HETATM   31  N   UNL     1      -7.369   0.092 -32.672  1.00  0.00    -0.292 NA
HETATM   32  H   UNL     1      -6.821   0.251 -31.807  1.00  0.00     0.127 HD
BRANCH  31  33
HETATM   33  C   UNL     1      -6.618  -0.626 -33.694  1.00  0.00     0.094 C 
BRANCH  33  34
HETATM   34  C   UNL     1      -5.143  -0.723 -33.294  1.00  0.00     0.042 C 
BRANCH  34  35
HETATM   35  C   UNL     1      -4.955  -0.750 -31.778  1.00  0.00     0.235 C 
BRANCH  35  36
HETATM   36  N   UNL     1      -4.824   0.662 -31.228  1.00  0.00    -0.079 N 
HETATM   37  C   UNL     1      -3.421   1.204 -31.262  1.00  0.00     0.269 C 
HETATM   38  H   UNL     1      -5.406   1.278 -31.813  1.00  0.00     0.278 HD
HETATM   39  C   UNL     1      -5.400   0.761 -29.837  1.00  0.00     0.269 C 
ENDBRANCH  35  36
ENDBRANCH  34  35
ENDBRANCH  33  34
ENDBRANCH  31  33
ENDBRANCH   1  31
TORSDOF 7
ENDMDL
MODEL 6
REMARK VINA RESULT:      -9.0      2.345      3.853
REMARK  7 active torsions:
REMARK  status: ('A' for Active; 'I' for Inactive)
REMARK    1  A    between atoms: N_2  and  C_4 
REMARK    2  A    between atoms: C_4  and  C_5 
REMARK    3  A    between atoms: C_5  and  C_6 
REMARK    4  A    between atoms: C_6  and  N_7 
REMARK    5  A    between atoms: N_7  and  C_8 
REMARK    6  A    between atoms: C_23  and  N_24 
REMARK    7  A    between atoms: N_27  and  C_29 
ROOT
HETATM    1  C   UNL     1      -6.531   0.960 -33.810  1.00  0.00     0.025 A 
HETATM    2  C   UNL     1      -5.844  -0.266 -33.696  1.00  0.00     0.052 A 
HETATM    3  C   UNL     1      -4.832  -0.187 -32.774  1.00  0.00     0.050 A 
HETATM    4  C   UNL     1      -4.052  -1.261 -32.520  1.00  0.00     0.126 A 
HETATM    5  C   UNL     1      -4.162  -2.570 -33.113  1.00  0.00     0.015 A 
HETATM    6  C   UNL     1      -5.187  -2.716 -34.086  1.00  0.00     0.028 A 
HETATM    7  C   UNL     1      -6.056  -1.531 -34.441  1.00  0.00     0.196 A 
HETATM    8  O   UNL     1      -6.904  -1.570 -35.326  1.00  0.00    -0.287 OA
HETATM    9  C   UNL     1      -3.357  -3.655 -32.778  1.00  0.00     0.015 A 
HETATM   10  C   UNL     1      -3.571  -4.885 -33.408  1.00  0.00     0.001 A 
HETATM   11  C   UNL     1      -4.581  -5.029 -34.367  1.00  0.00     0.001 A 
HETATM   12  C   UNL     1      -5.392  -3.945 -34.711  1.00  0.00     0.016 A 
HETATM   13  C   UNL     1      -4.409   0.881 -31.949  1.00  0.00     0.125 A 
HETATM   14  N   UNL     1      -3.335   0.442 -31.245  1.00  0.00    -0.125 NA
HETATM   15  O   UNL     1      -3.130  -0.905 -31.595  1.00  0.00    -0.211 OA
HETATM   16  C   UNL     1      -5.091   2.134 -31.991  1.00  0.00     0.064 A 
HETATM   17  C   UNL     1      -6.173   2.082 -32.955  1.00  0.00     0.056 A 
ENDROOT
BRANCH  16  18
HETATM   18  N   UNL     1      -4.869   3.260 -31.192  1.00  0.00    -0.376 N 
HETATM   19  C   UNL     1      -5.480   3.323 -29.856  1.00  0.00     0.150 C 
HETATM   20  C   UNL     1      -6.854   4.030 -29.905  1.00  0.00     0.255 C 
HETATM   21  N   UNL     1      -6.756   5.430 -30.539  1.00  0.00    -0.064 N 
HETATM   22  H   UNL     1      -6.107   5.980 -29.965  1.00  0.00     0.280 HD
HETATM   23  C   UNL     1      -6.094   5.307 -31.938  1.00  0.00     0.255 C 
HETATM   24  C   UNL     1      -4.732   4.584 -31.833  1.00  0.00     0.150 C 
BRANCH  21  25
HETATM   25  C   UNL     1      -8.111   6.162 -30.573  1.00  0.00     0.188 C 
HETATM   26  C   UNL     1      -8.799   6.121 -29.194  1.00  0.00     0.033 C 
HETATM   27  C   UNL     1      -8.030   6.899 -28.125  1.00  0.00     0.002 C 
HETATM   28  C   UNL     1      -7.792   8.346 -28.550  1.00  0.00     0.000 C 
HETATM   29  C   UNL     1      -7.167   8.452 -29.940  1.00  0.00     0.002 C 
HETATM   30  C   UNL     1      -7.947   7.639 -30.974  1.00  0.00     0.033 C 
ENDBRANCH  21  25
ENDBRANCH  16  18
BRANCH   1  31
HETATM   31  N   UNL     1      -7.642   1.039 -34.694  1.00  0.00    -0.292 NA
HETATM   32  H   UNL     1      -7.539   1.926 -35.220  1.00  0.00     0.127 HD
BRANCH  31  33
HETATM   33  C   UNL     1      -8.965   0.883 -34.103  1.00  0.00     0.094 C 
BRANCH  33  34
HETATM   34  C   UNL     1      -9.766   2.179 -34.253  1.00  0.00     0.042 C 
BRANCH  34  35
HETATM   35  C   UNL     1     -10.814   2.343 -33.154  1.00  0.00     0.235 C 
BRANCH  35  36
HETATM   36  N   UNL     1     -12.215   2.145 -33.713  1.00  0.00    -0.079 N 
HETATM   37  C   UNL     1     -12.674   0.712 -33.720  1.00  0.00     0.269 C 
HETATM   38  H   UNL     1     -12.865   2.674 -33.116  1.00  0.00     0.278 HD
HETATM   39  C   UNL     1     -12.343   2.752 -35.089  1.00  0.00     0.269 C 
ENDBRANCH  35  36
ENDBRANCH  34  35
ENDBRANCH  33  34
ENDBRANCH  31  33
ENDBRANCH   1  31
TORSDOF 7
ENDMDL
MODEL 7
REMARK VINA RESULT:      -8.9      2.769      5.480
REMARK  7 active torsions:
REMARK  status: ('A' for Active; 'I' for Inactive)
REMARK    1  A    between atoms: N_2  and  C_4 
REMARK    2  A    between atoms: C_4  and  C_5 
REMARK    3  A    between atoms: C_5  and  C_6 
REMARK    4  A    between atoms: C_6  and  N_7 
REMARK    5  A    between atoms: N_7  and  C_8 
REMARK    6  A    between atoms: C_23  and  N_24 
REMARK    7  A    between atoms: N_27  and  C_29 
ROOT
HETATM    1  C   UNL     1      -4.970   1.862 -32.494  1.00  0.00     0.025 A 
HETATM    2  C   UNL     1      -5.320   0.589 -32.985  1.00  0.00     0.052 A 
HETATM    3  C   UNL     1      -6.681   0.442 -33.067  1.00  0.00     0.050 A 
HETATM    4  C   UNL     1      -7.219  -0.714 -33.514  1.00  0.00     0.126 A 
HETATM    5  C   UNL     1      -6.507  -1.882 -33.966  1.00  0.00     0.015 A 
HETATM    6  C   UNL     1      -5.090  -1.800 -33.897  1.00  0.00     0.028 A 
HETATM    7  C   UNL     1      -4.440  -0.546 -33.359  1.00  0.00     0.196 A 
HETATM    8  O   UNL     1      -3.228  -0.442 -33.200  1.00  0.00    -0.287 OA
HETATM    9  C   UNL     1      -7.116  -3.033 -34.461  1.00  0.00     0.015 A 
HETATM   10  C   UNL     1      -6.318  -4.098 -34.890  1.00  0.00     0.001 A 
HETATM   11  C   UNL     1      -4.923  -4.017 -34.822  1.00  0.00     0.001 A 
HETATM   12  C   UNL     1      -4.303  -2.868 -34.324  1.00  0.00     0.016 A 
HETATM   13  C   UNL     1      -7.731   1.340 -32.766  1.00  0.00     0.125 A 
HETATM   14  N   UNL     1      -8.897   0.682 -32.988  1.00  0.00    -0.125 NA
HETATM   15  O   UNL     1      -8.567  -0.596 -33.474  1.00  0.00    -0.211 OA
HETATM   16  C   UNL     1      -7.437   2.658 -32.303  1.00  0.00     0.064 A 
HETATM   17  C   UNL     1      -6.003   2.847 -32.209  1.00  0.00     0.056 A 
ENDROOT
BRANCH  16  18
HETATM   18  N   UNL     1      -8.337   3.697 -32.043  1.00  0.00    -0.376 N 
HETATM   19  C   UNL     1      -8.128   5.002 -32.687  1.00  0.00     0.150 C 
HETATM   20  C   UNL     1      -7.288   5.939 -31.790  1.00  0.00     0.255 C 
HETATM   21  N   UNL     1      -7.910   6.102 -30.390  1.00  0.00    -0.064 N 
HETATM   22  H   UNL     1      -8.849   6.499 -30.518  1.00  0.00     0.280 HD
HETATM   23  C   UNL     1      -8.119   4.698 -29.763  1.00  0.00     0.255 C 
HETATM   24  C   UNL     1      -8.953   3.800 -30.705  1.00  0.00     0.150 C 
BRANCH  21  25
HETATM   25  C   UNL     1      -7.102   7.054 -29.489  1.00  0.00     0.188 C 
HETATM   26  C   UNL     1      -7.127   8.494 -30.037  1.00  0.00     0.033 C 
HETATM   27  C   UNL     1      -8.524   9.116 -30.004  1.00  0.00     0.002 C 
HETATM   28  C   UNL     1      -9.119   9.078 -28.598  1.00  0.00     0.000 C 
HETATM   29  C   UNL     1      -9.064   7.684 -27.976  1.00  0.00     0.002 C 
HETATM   30  C   UNL     1      -7.658   7.086 -28.054  1.00  0.00     0.033 C 
ENDBRANCH  21  25
ENDBRANCH  16  18
BRANCH   1  31
HETATM   31  N   UNL     1      -3.591   2.196 -32.387  1.00  0.00    -0.292 NA
HETATM   32  H   UNL     1      -3.073   1.301 -32.333  1.00  0.00     0.127 HD
BRANCH  31  33
HETATM   33  C   UNL     1      -3.222   3.129 -31.328  1.00  0.00     0.094 C 
BRANCH  33  34
HETATM   34  C   UNL     1      -2.393   4.280 -31.905  1.00  0.00     0.042 C 
BRANCH  34  35
HETATM   35  C   UNL     1      -2.274   4.203 -33.426  1.00  0.00     0.235 C 
BRANCH  35  36
HETATM   36  N   UNL     1      -2.877   5.440 -34.075  1.00  0.00    -0.079 N 
HETATM   37  C   UNL     1      -2.677   6.705 -33.284  1.00  0.00     0.269 C 
HETATM   38  H   UNL     1      -2.413   5.569 -34.985  1.00  0.00     0.278 HD
HETATM   39  C   UNL     1      -4.338   5.234 -34.389  1.00  0.00     0.269 C 
ENDBRANCH  35  36
ENDBRANCH  34  35
ENDBRANCH  33  34
ENDBRANCH  31  33
ENDBRANCH   1  31
TORSDOF 7
ENDMDL
MODEL 8
REMARK VINA RESULT:      -8.9      3.499      9.110
REMARK  7 active torsions:
REMARK  status: ('A' for Active; 'I' for Inactive)
REMARK    1  A    between atoms: N_2  and  C_4 
REMARK    2  A    between atoms: C_4  and  C_5 
REMARK    3  A    between atoms: C_5  and  C_6 
REMARK    4  A    between atoms: C_6  and  N_7 
REMARK    5  A    between atoms: N_7  and  C_8 
REMARK    6  A    between atoms: C_23  and  N_24 
REMARK    7  A    between atoms: N_27  and  C_29 
ROOT
HETATM    1  C   UNL     1      -4.185   7.365 -30.833  1.00  0.00     0.025 A 
HETATM    2  C   UNL     1      -2.990   7.580 -30.117  1.00  0.00     0.052 A 
HETATM    3  C   UNL     1      -2.062   6.608 -30.391  1.00  0.00     0.050 A 
HETATM    4  C   UNL     1      -0.847   6.635 -29.799  1.00  0.00     0.126 A 
HETATM    5  C   UNL     1      -0.357   7.625 -28.875  1.00  0.00     0.015 A 
HETATM    6  C   UNL     1      -1.275   8.657 -28.540  1.00  0.00     0.028 A 
HETATM    7  C   UNL     1      -2.662   8.645 -29.137  1.00  0.00     0.196 A 
HETATM    8  O   UNL     1      -3.526   9.460 -28.829  1.00  0.00    -0.287 OA
HETATM    9  C   UNL     1       0.925   7.626 -28.330  1.00  0.00     0.015 A 
HETATM   10  C   UNL     1       1.295   8.653 -27.456  1.00  0.00     0.001 A 
HETATM   11  C   UNL     1       0.391   9.670 -27.126  1.00  0.00     0.001 A 
HETATM   12  C   UNL     1      -0.898   9.675 -27.665  1.00  0.00     0.016 A 
HETATM   13  C   UNL     1      -2.116   5.490 -31.256  1.00  0.00     0.125 A 
HETATM   14  N   UNL     1      -0.940   4.827 -31.127  1.00  0.00    -0.125 NA
HETATM   15  O   UNL     1      -0.145   5.560 -30.228  1.00  0.00    -0.211 OA
HETATM   16  C   UNL     1      -3.285   5.244 -32.037  1.00  0.00     0.064 A 
HETATM   17  C   UNL     1      -4.286   6.260 -31.774  1.00  0.00     0.056 A 
ENDROOT
BRANCH  16  18
HETATM   18  N   UNL     1      -3.481   4.249 -33.000  1.00  0.00    -0.376 N 
HETATM   19  C   UNL     1      -4.527   4.432 -34.017  1.00  0.00     0.150 C 
HETATM   20  C   UNL     1      -5.863   3.801 -33.564  1.00  0.00     0.255 C 
HETATM   21  N   UNL     1      -5.699   2.315 -33.194  1.00  0.00    -0.064 N 
HETATM   22  H   UNL     1      -5.356   1.829 -34.032  1.00  0.00     0.280 HD
HETATM   23  C   UNL     1      -4.577   2.178 -32.130  1.00  0.00     0.255 C 
HETATM   24  C   UNL     1      -3.270   2.835 -32.630  1.00  0.00     0.150 C 
BRANCH  21  25
HETATM   25  C   UNL     1      -7.025   1.660 -32.764  1.00  0.00     0.188 C 
HETATM   26  C   UNL     1      -8.005   1.558 -33.950  1.00  0.00     0.033 C 
HETATM   27  C   UNL     1      -7.510   0.613 -35.047  1.00  0.00     0.002 C 
HETATM   28  C   UNL     1      -7.211  -0.778 -34.492  1.00  0.00     0.000 C 
HETATM   29  C   UNL     1      -6.292  -0.735 -33.272  1.00  0.00     0.002 C 
HETATM   30  C   UNL     1      -6.804   0.241 -32.212  1.00  0.00     0.033 C 
ENDBRANCH  21  25
ENDBRANCH  16  18
BRANCH   1  31
HETATM   31  N   UNL     1      -5.240   8.309 -30.697  1.00  0.00    -0.292 NA
HETATM   32  H   UNL     1      -4.933   8.996 -29.985  1.00  0.00     0.127 HD
BRANCH  31  33
HETATM   33  C   UNL     1      -6.570   7.774 -30.430  1.00  0.00     0.094 C 
BRANCH  33  34
HETATM   34  C   UNL     1      -6.748   7.530 -28.929  1.00  0.00     0.042 C 
BRANCH  34  35
HETATM   35  C   UNL     1      -7.422   6.191 -28.637  1.00  0.00     0.235 C 
BRANCH  35  36
HETATM   36  N   UNL     1      -6.406   5.178 -28.131  1.00  0.00    -0.079 N 
HETATM   37  C   UNL     1      -5.263   5.787 -27.365  1.00  0.00     0.269 C 
HETATM   38  H   UNL     1      -6.897   4.537 -27.493  1.00  0.00     0.278 HD
HETATM   39  C   UNL     1      -5.892   4.313 -29.256  1.00  0.00     0.269 C 
ENDBRANCH  35  36
ENDBRANCH  34  35
ENDBRANCH  33  34
ENDBRANCH  31  33
ENDBRANCH   1  31
TORSDOF 7
ENDMDL
MODEL 9
REMARK VINA RESULT:      -8.9      2.497      7.356
REMARK  7 active torsions:
REMARK  status: ('A' for Active; 'I' for Inactive)
REMARK    1  A    between atoms: N_2  and  C_4 
REMARK    2  A    between atoms: C_4  and  C_5 
REMARK    3  A    between atoms: C_5  and  C_6 
REMARK    4  A    between atoms: C_6  and  N_7 
REMARK    5  A    between atoms: N_7  and  C_8 
REMARK    6  A    between atoms: C_23  and  N_24 
REMARK    7  A    between atoms: N_27  and  C_29 
ROOT
HETATM    1  C   UNL     1      -4.908   2.396 -32.008  1.00  0.00     0.025 A 
HETATM    2  C   UNL     1      -5.306   1.172 -32.580  1.00  0.00     0.052 A 
HETATM    3  C   UNL     1      -6.669   1.100 -32.709  1.00  0.00     0.050 A 
HETATM    4  C   UNL     1      -7.251  -0.000 -33.237  1.00  0.00     0.126 A 
HETATM    5  C   UNL     1      -6.584  -1.176 -33.734  1.00  0.00     0.015 A 
HETATM    6  C   UNL     1      -5.167  -1.171 -33.621  1.00  0.00     0.028 A 
HETATM    7  C   UNL     1      -4.472   0.015 -32.993  1.00  0.00     0.196 A 
HETATM    8  O   UNL     1      -3.263   0.048 -32.794  1.00  0.00    -0.287 OA
HETATM    9  C   UNL     1      -7.234  -2.264 -34.311  1.00  0.00     0.015 A 
HETATM   10  C   UNL     1      -6.477  -3.344 -34.777  1.00  0.00     0.001 A 
HETATM   11  C   UNL     1      -5.082  -3.339 -34.665  1.00  0.00     0.001 A 
HETATM   12  C   UNL     1      -4.421  -2.253 -34.085  1.00  0.00     0.016 A 
HETATM   13  C   UNL     1      -7.682   2.033 -32.387  1.00  0.00     0.125 A 
HETATM   14  N   UNL     1      -8.872   1.449 -32.680  1.00  0.00    -0.125 NA
HETATM   15  O   UNL     1      -8.591   0.185 -33.229  1.00  0.00    -0.211 OA
HETATM   16  C   UNL     1      -7.338   3.306 -31.842  1.00  0.00     0.064 A 
HETATM   17  C   UNL     1      -5.899   3.416 -31.697  1.00  0.00     0.056 A 
ENDROOT
BRANCH  16  18
HETATM   18  N   UNL     1      -8.191   4.375 -31.549  1.00  0.00    -0.376 N 
HETATM   19  C   UNL     1      -8.980   4.342 -30.308  1.00  0.00     0.150 C 
HETATM   20  C   UNL     1     -10.373   3.718 -30.549  1.00  0.00     0.255 C 
HETATM   21  N   UNL     1     -11.137   4.439 -31.676  1.00  0.00    -0.064 N 
HETATM   22  H   UNL     1     -11.244   5.420 -31.391  1.00  0.00     0.280 HD
HETATM   23  C   UNL     1     -10.257   4.455 -32.954  1.00  0.00     0.255 C 
HETATM   24  C   UNL     1      -8.873   5.078 -32.654  1.00  0.00     0.150 C 
BRANCH  21  25
HETATM   25  C   UNL     1     -12.539   3.848 -31.914  1.00  0.00     0.188 C 
HETATM   26  C   UNL     1     -13.403   3.935 -30.639  1.00  0.00     0.033 C 
HETATM   27  C   UNL     1     -13.715   5.375 -30.233  1.00  0.00     0.002 C 
HETATM   28  C   UNL     1     -14.382   6.145 -31.371  1.00  0.00     0.000 C 
HETATM   29  C   UNL     1     -13.602   6.043 -32.681  1.00  0.00     0.002 C 
HETATM   30  C   UNL     1     -13.284   4.590 -33.038  1.00  0.00     0.033 C 
ENDBRANCH  21  25
ENDBRANCH  16  18
BRANCH   1  31
HETATM   31  N   UNL     1      -3.519   2.652 -31.843  1.00  0.00    -0.292 NA
HETATM   32  H   UNL     1      -3.382   2.919 -30.851  1.00  0.00     0.127 HD
BRANCH  31  33
HETATM   33  C   UNL     1      -2.910   3.597 -32.771  1.00  0.00     0.094 C 
BRANCH  33  34
HETATM   34  C   UNL     1      -2.600   4.915 -32.055  1.00  0.00     0.042 C 
BRANCH  34  35
HETATM   35  C   UNL     1      -1.321   4.835 -31.224  1.00  0.00     0.235 C 
BRANCH  35  36
HETATM   36  N   UNL     1      -1.336   5.876 -30.114  1.00  0.00    -0.079 N 
HETATM   37  C   UNL     1      -2.573   6.733 -30.096  1.00  0.00     0.269 C 
HETATM   38  H   UNL     1      -1.297   5.373 -29.217  1.00  0.00     0.278 HD
HETATM   39  C   UNL     1      -0.095   6.733 -30.153  1.00  0.00     0.269 C 
ENDBRANCH  35  36
ENDBRANCH  34  35
ENDBRANCH  33  34
ENDBRANCH  31  33
ENDBRANCH   1  31
TORSDOF 7
ENDMDL
MODEL 10
REMARK VINA RESULT:      -8.8      2.307      6.110
REMARK  7 active torsions:
REMARK  status: ('A' for Active; 'I' for Inactive)
REMARK    1  A    between atoms: N_2  and  C_4 
REMARK    2  A    between atoms: C_4  and  C_5 
REMARK    3  A    between atoms: C_5  and  C_6 
REMARK    4  A    between atoms: C_6  and  N_7 
REMARK    5  A    between atoms: N_7  and  C_8 
REMARK    6  A    between atoms: C_23  and  N_24 
REMARK    7  A    between atoms: N_27  and  C_29 
ROOT
HETATM    1  C   UNL     1      -4.756   1.411 -32.627  1.00  0.00     0.025 A 
HETATM    2  C   UNL     1      -4.988   0.116 -33.132  1.00  0.00     0.052 A 
HETATM    3  C   UNL     1      -6.158   0.061 -33.847  1.00  0.00     0.050 A 
HETATM    4  C   UNL     1      -6.560  -1.098 -34.413  1.00  0.00     0.126 A 
HETATM    5  C   UNL     1      -5.869  -2.362 -34.382  1.00  0.00     0.015 A 
HETATM    6  C   UNL     1      -4.652  -2.376 -33.648  1.00  0.00     0.028 A 
HETATM    7  C   UNL     1      -4.182  -1.117 -32.956  1.00  0.00     0.196 A 
HETATM    8  O   UNL     1      -3.185  -1.084 -32.243  1.00  0.00    -0.287 OA
HETATM    9  C   UNL     1      -6.310  -3.516 -35.024  1.00  0.00     0.015 A 
HETATM   10  C   UNL     1      -5.543  -4.681 -34.939  1.00  0.00     0.001 A 
HETATM   11  C   UNL     1      -4.344  -4.696 -34.216  1.00  0.00     0.001 A 
HETATM   12  C   UNL     1      -3.895  -3.543 -33.566  1.00  0.00     0.016 A 
HETATM   13  C   UNL     1      -7.107   1.064 -34.152  1.00  0.00     0.125 A 
HETATM   14  N   UNL     1      -8.102   0.472 -34.858  1.00  0.00    -0.125 NA
HETATM   15  O   UNL     1      -7.743  -0.877 -35.033  1.00  0.00    -0.211 OA
HETATM   16  C   UNL     1      -6.905   2.404 -33.702  1.00  0.00     0.064 A 
HETATM   17  C   UNL     1      -5.671   2.497 -32.945  1.00  0.00     0.056 A 
ENDROOT
BRANCH  16  18
HETATM   18  N   UNL     1      -7.686   3.531 -33.981  1.00  0.00    -0.376 N 
HETATM   19  C   UNL     1      -7.211   4.854 -33.551  1.00  0.00     0.150 C 
HETATM   20  C   UNL     1      -7.764   5.219 -32.155  1.00  0.00     0.255 C 
HETATM   21  N   UNL     1      -9.301   5.135 -32.107  1.00  0.00    -0.064 N 
HETATM   22  H   UNL     1      -9.664   5.796 -32.803  1.00  0.00     0.280 HD
HETATM   23  C   UNL     1      -9.746   3.725 -32.580  1.00  0.00     0.255 C 
HETATM   24  C   UNL     1      -9.157   3.408 -33.974  1.00  0.00     0.150 C 
BRANCH  21  25
HETATM   25  C   UNL     1      -9.874   5.520 -30.730  1.00  0.00     0.188 C 
HETATM   26  C   UNL     1      -9.332   6.886 -30.265  1.00  0.00     0.033 C 
HETATM   27  C   UNL     1      -9.799   8.041 -31.152  1.00  0.00     0.002 C 
HETATM   28  C   UNL     1     -11.322   8.087 -31.253  1.00  0.00     0.000 C 
HETATM   29  C   UNL     1     -11.923   6.740 -31.650  1.00  0.00     0.002 C 
HETATM   30  C   UNL     1     -11.410   5.608 -30.759  1.00  0.00     0.033 C 
ENDBRANCH  21  25
ENDBRANCH  16  18
BRANCH   1  31
HETATM   31  N   UNL     1      -3.560   1.654 -31.896  1.00  0.00    -0.292 NA
HETATM   32  H   UNL     1      -3.508   0.925 -31.162  1.00  0.00     0.127 HD
BRANCH  31  33
HETATM   33  C   UNL     1      -3.373   3.000 -31.370  1.00  0.00     0.094 C 
BRANCH  33  34
HETATM   34  C   UNL     1      -2.554   3.842 -32.353  1.00  0.00     0.042 C 
BRANCH  34  35
HETATM   35  C   UNL     1      -2.560   5.325 -31.991  1.00  0.00     0.235 C 
BRANCH  35  36
HETATM   36  N   UNL     1      -2.045   5.535 -30.575  1.00  0.00    -0.079 N 
HETATM   37  C   UNL     1      -2.449   6.851 -29.966  1.00  0.00     0.269 C 
HETATM   38  H   UNL     1      -2.441   4.789 -29.987  1.00  0.00     0.278 HD
HETATM   39  C   UNL     1      -0.548   5.354 -30.507  1.00  0.00     0.269 C 
ENDBRANCH  35  36
ENDBRANCH  34  35
ENDBRANCH  33  34
ENDBRANCH  31  33
ENDBRANCH   1  31
TORSDOF 7
ENDMDL
