MODEL 1
REMARK VINA RESULT:      -7.7      0.000      0.000
REMARK  3 active torsions:
REMARK  status: ('A' for Active; 'I' for Inactive)
REMARK       I    between atoms: C_2  and  N_3 
REMARK    1  A    between atoms: N_3  and  C_4 
REMARK    2  A    between atoms: C_6  and  N_7 
REMARK       I    between atoms: N_7  and  C_8 
REMARK    3  A    between atoms: C_8  and  C_9 
ROOT
HETATM    1  C   UNL     1     -11.466   1.921 -33.431  1.00  0.00     0.036 A 
HETATM    2  C   UNL     1     -10.558   0.857 -33.503  1.00  0.00     0.059 A 
HETATM    3  C   UNL     1      -9.235   1.074 -33.910  1.00  0.00     0.037 A 
HETATM    4  C   UNL     1      -8.826   2.368 -34.250  1.00  0.00     0.029 A 
HETATM    5  C   UNL     1      -9.726   3.429 -34.202  1.00  0.00     0.004 A 
HETATM    6  C   UNL     1     -11.041   3.205 -33.796  1.00  0.00     0.029 A 
ENDROOT
BRANCH   3   7
HETATM    7  N   UNL     1      -8.259   0.063 -33.984  1.00  0.00    -0.322 N 
HETATM    8  C   UNL     1      -7.224  -0.198 -33.107  1.00  0.00     0.274 C 
HETATM    9  O   UNL     1      -6.996   0.351 -32.037  1.00  0.00    -0.266 OA
HETATM   10  H   UNL     1      -8.295  -0.572 -34.778  1.00  0.00     0.169 HD
BRANCH   8  11
HETATM   11  C   UNL     1      -6.327  -1.304 -33.578  1.00  0.00     0.126 A 
HETATM   12  N   UNL     1      -5.014  -1.209 -33.214  1.00  0.00    -0.255 NA
HETATM   13  C   UNL     1      -4.203  -2.214 -33.611  1.00  0.00     0.119 A 
HETATM   14  C   UNL     1      -4.634  -3.298 -34.352  1.00  0.00     0.043 A 
HETATM   15  C   UNL     1      -5.977  -3.352 -34.707  1.00  0.00     0.037 A 
HETATM   16 CL   UNL     1      -6.557  -4.683 -35.632  1.00  0.00    -0.084 Cl
HETATM   17  C   UNL     1      -6.851  -2.348 -34.322  1.00  0.00     0.061 A 
ENDBRANCH   8  11
ENDBRANCH   3   7
BRANCH   1  18
HETATM   18  N   UNL     1     -12.808   1.796 -33.009  1.00  0.00    -0.327 N 
HETATM   19  C   UNL     1     -13.928   1.603 -33.796  1.00  0.00     0.218 C 
HETATM   20  C   UNL     1     -15.199   1.526 -32.985  1.00  0.00     0.117 C 
HETATM   21  O   UNL     1     -13.965   1.457 -35.011  1.00  0.00    -0.274 OA
HETATM   22  H   UNL     1     -12.955   1.803 -32.009  1.00  0.00     0.169 HD
ENDBRANCH   1  18
TORSDOF 3
ENDMDL
MODEL 2
REMARK VINA RESULT:      -7.4      6.227      8.815
REMARK  3 active torsions:
REMARK  status: ('A' for Active; 'I' for Inactive)
REMARK       I    between atoms: C_2  and  N_3 
REMARK    1  A    between atoms: N_3  and  C_4 
REMARK    2  A    between atoms: C_6  and  N_7 
REMARK       I    between atoms: N_7  and  C_8 
REMARK    3  A    between atoms: C_8  and  C_9 
ROOT
HETATM    1  C   UNL     1      -1.418   5.182 -31.297  1.00  0.00     0.036 A 
HETATM    2  C   UNL     1      -2.388   4.174 -31.353  1.00  0.00     0.059 A 
HETATM    3  C   UNL     1      -2.882   3.726 -32.586  1.00  0.00     0.037 A 
HETATM    4  C   UNL     1      -2.398   4.299 -33.767  1.00  0.00     0.029 A 
HETATM    5  C   UNL     1      -1.448   5.316 -33.721  1.00  0.00     0.004 A 
HETATM    6  C   UNL     1      -0.963   5.757 -32.491  1.00  0.00     0.029 A 
ENDROOT
BRANCH   3   7
HETATM    7  N   UNL     1      -3.837   2.702 -32.726  1.00  0.00    -0.322 N 
HETATM    8  C   UNL     1      -3.791   1.410 -32.238  1.00  0.00     0.274 C 
HETATM    9  O   UNL     1      -2.940   0.918 -31.509  1.00  0.00    -0.266 OA
HETATM   10  H   UNL     1      -4.682   2.912 -33.253  1.00  0.00     0.169 HD
BRANCH   8  11
HETATM   11  C   UNL     1      -4.959   0.579 -32.679  1.00  0.00     0.126 A 
HETATM   12  N   UNL     1      -6.193   1.032 -32.309  1.00  0.00    -0.255 NA
HETATM   13  C   UNL     1      -7.253   0.304 -32.723  1.00  0.00     0.119 A 
HETATM   14  C   UNL     1      -7.142  -0.848 -33.479  1.00  0.00     0.043 A 
HETATM   15  C   UNL     1      -5.867  -1.278 -33.828  1.00  0.00     0.037 A 
HETATM   16 CL   UNL     1      -5.681  -2.709 -34.767  1.00  0.00    -0.084 Cl
HETATM   17  C   UNL     1      -4.747  -0.566 -33.431  1.00  0.00     0.061 A 
ENDBRANCH   8  11
ENDBRANCH   3   7
BRANCH   1  18
HETATM   18  N   UNL     1      -0.851   5.675 -30.102  1.00  0.00    -0.327 N 
HETATM   19  C   UNL     1       0.325   5.274 -29.495  1.00  0.00     0.218 C 
HETATM   20  C   UNL     1       0.603   6.028 -28.217  1.00  0.00     0.117 C 
HETATM   21  O   UNL     1       1.126   4.444 -29.906  1.00  0.00    -0.274 OA
HETATM   22  H   UNL     1      -1.344   6.443 -29.667  1.00  0.00     0.169 HD
ENDBRANCH   1  18
TORSDOF 3
ENDMDL
MODEL 3
REMARK VINA RESULT:      -7.4      1.914      2.103
REMARK  3 active torsions:
REMARK  status: ('A' for Active; 'I' for Inactive)
REMARK       I    between atoms: C_2  and  N_3 
REMARK    1  A    between atoms: N_3  and  C_4 
REMARK    2  A    between atoms: C_6  and  N_7 
REMARK       I    between atoms: N_7  and  C_8 
REMARK    3  A    between atoms: C_8  and  C_9 
ROOT
HETATM    1  C   UNL     1     -11.170   1.360 -33.224  1.00  0.00     0.036 A 
HETATM    2  C   UNL     1     -10.129   0.436 -33.375  1.00  0.00     0.059 A 
HETATM    3  C   UNL     1      -8.796   0.825 -33.185  1.00  0.00     0.037 A 
HETATM    4  C   UNL     1      -8.511   2.152 -32.845  1.00  0.00     0.029 A 
HETATM    5  C   UNL     1      -9.538   3.083 -32.713  1.00  0.00     0.004 A 
HETATM    6  C   UNL     1     -10.861   2.689 -32.904  1.00  0.00     0.029 A 
ENDROOT
BRANCH   3   7
HETATM    7  N   UNL     1      -7.698  -0.048 -33.294  1.00  0.00    -0.322 N 
HETATM    8  C   UNL     1      -6.971  -0.379 -34.422  1.00  0.00     0.274 C 
HETATM    9  O   UNL     1      -7.085   0.089 -35.547  1.00  0.00    -0.266 OA
HETATM   10  H   UNL     1      -7.377  -0.512 -32.448  1.00  0.00     0.169 HD
BRANCH   8  11
HETATM   11  C   UNL     1      -5.930  -1.426 -34.157  1.00  0.00     0.126 A 
HETATM   12  N   UNL     1      -6.002  -2.552 -34.926  1.00  0.00    -0.255 NA
HETATM   13  C   UNL     1      -5.053  -3.490 -34.713  1.00  0.00     0.119 A 
HETATM   14  C   UNL     1      -4.047  -3.362 -33.774  1.00  0.00     0.043 A 
HETATM   15  C   UNL     1      -4.015  -2.203 -33.007  1.00  0.00     0.037 A 
HETATM   16 CL   UNL     1      -2.781  -2.002 -31.824  1.00  0.00    -0.084 Cl
HETATM   17  C   UNL     1      -4.963  -1.208 -33.189  1.00  0.00     0.061 A 
ENDBRANCH   8  11
ENDBRANCH   3   7
BRANCH   1  18
HETATM   18  N   UNL     1     -12.539   1.048 -33.373  1.00  0.00    -0.327 N 
HETATM   19  C   UNL     1     -13.325   1.202 -34.500  1.00  0.00     0.218 C 
HETATM   20  C   UNL     1     -14.752   0.766 -34.274  1.00  0.00     0.117 C 
HETATM   21  O   UNL     1     -12.970   1.598 -35.603  1.00  0.00    -0.274 OA
HETATM   22  H   UNL     1     -12.980   0.618 -32.571  1.00  0.00     0.169 HD
ENDBRANCH   1  18
TORSDOF 3
ENDMDL
MODEL 4
REMARK VINA RESULT:      -7.1      5.859      7.871
REMARK  3 active torsions:
REMARK  status: ('A' for Active; 'I' for Inactive)
REMARK       I    between atoms: C_2  and  N_3 
REMARK    1  A    between atoms: N_3  and  C_4 
REMARK    2  A    between atoms: C_6  and  N_7 
REMARK       I    between atoms: N_7  and  C_8 
REMARK    3  A    between atoms: C_8  and  C_9 
ROOT
HETATM    1  C   UNL     1      -6.463  -0.119 -33.023  1.00  0.00     0.036 A 
HETATM    2  C   UNL     1      -5.481   0.828 -33.338  1.00  0.00     0.059 A 
HETATM    3  C   UNL     1      -5.321   1.980 -32.555  1.00  0.00     0.037 A 
HETATM    4  C   UNL     1      -6.157   2.178 -31.451  1.00  0.00     0.029 A 
HETATM    5  C   UNL     1      -7.150   1.253 -31.140  1.00  0.00     0.004 A 
HETATM    6  C   UNL     1      -7.303   0.111 -31.925  1.00  0.00     0.029 A 
ENDROOT
BRANCH   3   7
HETATM    7  N   UNL     1      -4.343   2.963 -32.792  1.00  0.00    -0.322 N 
HETATM    8  C   UNL     1      -3.167   3.191 -32.103  1.00  0.00     0.274 C 
HETATM    9  O   UNL     1      -2.696   2.524 -31.192  1.00  0.00    -0.266 OA
HETATM   10  H   UNL     1      -4.497   3.607 -33.565  1.00  0.00     0.169 HD
BRANCH   8  11
HETATM   11  C   UNL     1      -2.429   4.400 -32.595  1.00  0.00     0.126 A 
HETATM   12  N   UNL     1      -2.817   4.888 -33.810  1.00  0.00    -0.255 NA
HETATM   13  C   UNL     1      -2.176   5.992 -34.250  1.00  0.00     0.119 A 
HETATM   14  C   UNL     1      -1.171   6.626 -33.544  1.00  0.00     0.043 A 
HETATM   15  C   UNL     1      -0.801   6.093 -32.315  1.00  0.00     0.037 A 
HETATM   16 CL   UNL     1       0.447   6.848 -31.403  1.00  0.00    -0.084 Cl
HETATM   17  C   UNL     1      -1.430   4.963 -31.817  1.00  0.00     0.061 A 
ENDBRANCH   8  11
ENDBRANCH   3   7
BRANCH   1  18
HETATM   18  N   UNL     1      -6.676  -1.314 -33.742  1.00  0.00    -0.327 N 
HETATM   19  C   UNL     1      -5.737  -2.261 -34.108  1.00  0.00     0.218 C 
HETATM   20  C   UNL     1      -6.342  -3.407 -34.883  1.00  0.00     0.117 C 
HETATM   21  O   UNL     1      -4.544  -2.265 -33.835  1.00  0.00    -0.274 OA
HETATM   22  H   UNL     1      -7.639  -1.520 -33.975  1.00  0.00     0.169 HD
ENDBRANCH   1  18
TORSDOF 3
ENDMDL
MODEL 5
REMARK VINA RESULT:      -7.0      4.937      6.619
REMARK  3 active torsions:
REMARK  status: ('A' for Active; 'I' for Inactive)
REMARK       I    between atoms: C_2  and  N_3 
REMARK    1  A    between atoms: N_3  and  C_4 
REMARK    2  A    between atoms: C_6  and  N_7 
REMARK       I    between atoms: N_7  and  C_8 
REMARK    3  A    between atoms: C_8  and  C_9 
ROOT
HETATM    1  C   UNL     1      -3.610   3.634 -32.202  1.00  0.00     0.036 A 
HETATM    2  C   UNL     1      -3.729   2.374 -32.803  1.00  0.00     0.059 A 
HETATM    3  C   UNL     1      -4.602   1.412 -32.279  1.00  0.00     0.037 A 
HETATM    4  C   UNL     1      -5.357   1.720 -31.142  1.00  0.00     0.029 A 
HETATM    5  C   UNL     1      -5.231   2.961 -30.524  1.00  0.00     0.004 A 
HETATM    6  C   UNL     1      -4.359   3.912 -31.051  1.00  0.00     0.029 A 
ENDROOT
BRANCH   3   7
HETATM    7  N   UNL     1      -4.796   0.136 -32.839  1.00  0.00    -0.322 N 
HETATM    8  C   UNL     1      -5.637  -0.231 -33.872  1.00  0.00     0.274 C 
HETATM    9  O   UNL     1      -6.327   0.501 -34.568  1.00  0.00    -0.266 OA
HETATM   10  H   UNL     1      -4.260  -0.637 -32.452  1.00  0.00     0.169 HD
BRANCH   8  11
HETATM   11  C   UNL     1      -5.639  -1.709 -34.124  1.00  0.00     0.126 A 
HETATM   12  N   UNL     1      -6.801  -2.233 -34.615  1.00  0.00    -0.255 NA
HETATM   13  C   UNL     1      -6.806  -3.559 -34.870  1.00  0.00     0.119 A 
HETATM   14  C   UNL     1      -5.717  -4.384 -34.653  1.00  0.00     0.043 A 
HETATM   15  C   UNL     1      -4.557  -3.812 -34.145  1.00  0.00     0.037 A 
HETATM   16 CL   UNL     1      -3.178  -4.801 -33.858  1.00  0.00    -0.084 Cl
HETATM   17  C   UNL     1      -4.499  -2.455 -33.870  1.00  0.00     0.061 A 
ENDBRANCH   8  11
ENDBRANCH   3   7
BRANCH   1  18
HETATM   18  N   UNL     1      -2.773   4.667 -32.677  1.00  0.00    -0.327 N 
HETATM   19  C   UNL     1      -3.097   5.678 -33.564  1.00  0.00     0.218 C 
HETATM   20  C   UNL     1      -1.932   6.596 -33.844  1.00  0.00     0.117 C 
HETATM   21  O   UNL     1      -4.189   5.897 -34.071  1.00  0.00    -0.274 OA
HETATM   22  H   UNL     1      -1.842   4.693 -32.285  1.00  0.00     0.169 HD
ENDBRANCH   1  18
TORSDOF 3
ENDMDL
MODEL 6
REMARK VINA RESULT:      -6.9      2.885      7.358
REMARK  3 active torsions:
REMARK  status: ('A' for Active; 'I' for Inactive)
REMARK       I    between atoms: C_2  and  N_3 
REMARK    1  A    between atoms: N_3  and  C_4 
REMARK    2  A    between atoms: C_6  and  N_7 
REMARK       I    between atoms: N_7  and  C_8 
REMARK    3  A    between atoms: C_8  and  C_9 
ROOT
HETATM    1  C   UNL     1      -4.970  -1.005 -33.249  1.00  0.00     0.036 A 
HETATM    2  C   UNL     1      -6.297  -0.676 -33.554  1.00  0.00     0.059 A 
HETATM    3  C   UNL     1      -6.748   0.647 -33.442  1.00  0.00     0.037 A 
HETATM    4  C   UNL     1      -5.858   1.640 -33.020  1.00  0.00     0.029 A 
HETATM    5  C   UNL     1      -4.543   1.320 -32.695  1.00  0.00     0.004 A 
HETATM    6  C   UNL     1      -4.102   0.002 -32.807  1.00  0.00     0.029 A 
ENDROOT
BRANCH   3   7
HETATM    7  N   UNL     1      -8.056   1.060 -33.753  1.00  0.00    -0.322 N 
HETATM    8  C   UNL     1      -9.194   0.971 -32.974  1.00  0.00     0.274 C 
HETATM    9  O   UNL     1      -9.276   0.586 -31.815  1.00  0.00    -0.266 OA
HETATM   10  H   UNL     1      -8.215   1.483 -34.665  1.00  0.00     0.169 HD
BRANCH   8  11
HETATM   11  C   UNL     1     -10.428   1.431 -33.691  1.00  0.00     0.126 A 
HETATM   12  N   UNL     1     -10.297   2.562 -34.446  1.00  0.00    -0.255 NA
HETATM   13  C   UNL     1     -11.396   2.970 -35.117  1.00  0.00     0.119 A 
HETATM   14  C   UNL     1     -12.612   2.313 -35.066  1.00  0.00     0.043 A 
HETATM   15  C   UNL     1     -12.704   1.172 -34.280  1.00  0.00     0.037 A 
HETATM   16 CL   UNL     1     -14.199   0.323 -34.186  1.00  0.00    -0.084 Cl
HETATM   17  C   UNL     1     -11.605   0.708 -33.574  1.00  0.00     0.061 A 
ENDBRANCH   8  11
ENDBRANCH   3   7
BRANCH   1  18
HETATM   18  N   UNL     1      -4.427  -2.304 -33.357  1.00  0.00    -0.327 N 
HETATM   19  C   UNL     1      -4.595  -3.209 -34.389  1.00  0.00     0.218 C 
HETATM   20  C   UNL     1      -3.864  -4.507 -34.144  1.00  0.00     0.117 C 
HETATM   21  O   UNL     1      -5.210  -3.036 -35.433  1.00  0.00    -0.274 OA
HETATM   22  H   UNL     1      -3.807  -2.583 -32.608  1.00  0.00     0.169 HD
ENDBRANCH   1  18
TORSDOF 3
ENDMDL
MODEL 7
REMARK VINA RESULT:      -6.8      6.076      7.784
REMARK  3 active torsions:
REMARK  status: ('A' for Active; 'I' for Inactive)
REMARK       I    between atoms: C_2  and  N_3 
REMARK    1  A    between atoms: N_3  and  C_4 
REMARK    2  A    between atoms: C_6  and  N_7 
REMARK       I    between atoms: N_7  and  C_8 
REMARK    3  A    between atoms: C_8  and  C_9 
ROOT
HETATM    1  C   UNL     1      -6.094   0.245 -32.483  1.00  0.00     0.036 A 
HETATM    2  C   UNL     1      -5.448   1.477 -32.644  1.00  0.00     0.059 A 
HETATM    3  C   UNL     1      -4.096   1.624 -32.304  1.00  0.00     0.037 A 
HETATM    4  C   UNL     1      -3.394   0.525 -31.797  1.00  0.00     0.029 A 
HETATM    5  C   UNL     1      -4.033  -0.698 -31.614  1.00  0.00     0.004 A 
HETATM    6  C   UNL     1      -5.378  -0.836 -31.954  1.00  0.00     0.029 A 
ENDROOT
BRANCH   3   7
HETATM    7  N   UNL     1      -3.371   2.820 -32.459  1.00  0.00    -0.322 N 
HETATM    8  C   UNL     1      -3.548   4.024 -31.805  1.00  0.00     0.274 C 
HETATM    9  O   UNL     1      -4.324   4.269 -30.891  1.00  0.00    -0.266 OA
HETATM   10  H   UNL     1      -2.612   2.829 -33.137  1.00  0.00     0.169 HD
BRANCH   8  11
HETATM   11  C   UNL     1      -2.639   5.103 -32.314  1.00  0.00     0.126 A 
HETATM   12  N   UNL     1      -3.030   5.722 -33.467  1.00  0.00    -0.255 NA
HETATM   13  C   UNL     1      -2.231   6.713 -33.920  1.00  0.00     0.119 A 
HETATM   14  C   UNL     1      -1.067   7.109 -33.287  1.00  0.00     0.043 A 
HETATM   15  C   UNL     1      -0.702   6.447 -32.121  1.00  0.00     0.037 A 
HETATM   16 CL   UNL     1       0.740   6.905 -31.301  1.00  0.00    -0.084 Cl
HETATM   17  C   UNL     1      -1.489   5.426 -31.612  1.00  0.00     0.061 A 
ENDBRANCH   8  11
ENDBRANCH   3   7
BRANCH   1  18
HETATM   18  N   UNL     1      -7.443   0.004 -32.822  1.00  0.00    -0.327 N 
HETATM   19  C   UNL     1      -8.574   0.524 -32.219  1.00  0.00     0.218 C 
HETATM   20  C   UNL     1      -9.849   0.026 -32.855  1.00  0.00     0.117 C 
HETATM   21  O   UNL     1      -8.619   1.332 -31.301  1.00  0.00    -0.274 OA
HETATM   22  H   UNL     1      -7.594  -0.583 -33.632  1.00  0.00     0.169 HD
ENDBRANCH   1  18
TORSDOF 3
ENDMDL
MODEL 8
REMARK VINA RESULT:      -6.8      6.390      8.579
REMARK  3 active torsions:
REMARK  status: ('A' for Active; 'I' for Inactive)
REMARK       I    between atoms: C_2  and  N_3 
REMARK    1  A    between atoms: N_3  and  C_4 
REMARK    2  A    between atoms: C_6  and  N_7 
REMARK       I    between atoms: N_7  and  C_8 
REMARK    3  A    between atoms: C_8  and  C_9 
ROOT
HETATM    1  C   UNL     1      -4.953  -0.308 -32.082  1.00  0.00     0.036 A 
HETATM    2  C   UNL     1      -4.127   0.823 -32.093  1.00  0.00     0.059 A 
HETATM    3  C   UNL     1      -4.315   1.854 -31.162  1.00  0.00     0.037 A 
HETATM    4  C   UNL     1      -5.343   1.746 -30.219  1.00  0.00     0.029 A 
HETATM    5  C   UNL     1      -6.183   0.636 -30.213  1.00  0.00     0.004 A 
HETATM    6  C   UNL     1      -5.990  -0.385 -31.143  1.00  0.00     0.029 A 
ENDROOT
BRANCH   3   7
HETATM    7  N   UNL     1      -3.512   3.008 -31.093  1.00  0.00    -0.322 N 
HETATM    8  C   UNL     1      -3.233   3.923 -32.090  1.00  0.00     0.274 C 
HETATM    9  O   UNL     1      -3.700   3.958 -33.221  1.00  0.00    -0.266 OA
HETATM   10  H   UNL     1      -3.065   3.220 -30.204  1.00  0.00     0.169 HD
BRANCH   8  11
HETATM   11  C   UNL     1      -2.252   4.972 -31.660  1.00  0.00     0.126 A 
HETATM   12  N   UNL     1      -1.038   4.518 -31.230  1.00  0.00    -0.255 NA
HETATM   13  C   UNL     1      -0.137   5.457 -30.865  1.00  0.00     0.119 A 
HETATM   14  C   UNL     1      -0.390   6.815 -30.902  1.00  0.00     0.043 A 
HETATM   15  C   UNL     1      -1.642   7.234 -31.338  1.00  0.00     0.037 A 
HETATM   16 CL   UNL     1      -2.001   8.916 -31.398  1.00  0.00    -0.084 Cl
HETATM   17  C   UNL     1      -2.600   6.311 -31.728  1.00  0.00     0.061 A 
ENDBRANCH   8  11
ENDBRANCH   3   7
BRANCH   1  18
HETATM   18  N   UNL     1      -4.819  -1.400 -32.966  1.00  0.00    -0.327 N 
HETATM   19  C   UNL     1      -5.497  -1.619 -34.151  1.00  0.00     0.218 C 
HETATM   20  C   UNL     1      -5.090  -2.910 -34.820  1.00  0.00     0.117 C 
HETATM   21  O   UNL     1      -6.312  -0.880 -34.686  1.00  0.00    -0.274 OA
HETATM   22  H   UNL     1      -4.108  -2.077 -32.721  1.00  0.00     0.169 HD
ENDBRANCH   1  18
TORSDOF 3
ENDMDL
MODEL 9
REMARK VINA RESULT:      -6.8      5.242      8.082
REMARK  3 active torsions:
REMARK  status: ('A' for Active; 'I' for Inactive)
REMARK       I    between atoms: C_2  and  N_3 
REMARK    1  A    between atoms: N_3  and  C_4 
REMARK    2  A    between atoms: C_6  and  N_7 
REMARK       I    between atoms: N_7  and  C_8 
REMARK    3  A    between atoms: C_8  and  C_9 
ROOT
HETATM    1  C   UNL     1      -5.356  -1.756 -33.921  1.00  0.00     0.036 A 
HETATM    2  C   UNL     1      -4.687  -0.627 -33.432  1.00  0.00     0.059 A 
HETATM    3  C   UNL     1      -5.376   0.576 -33.221  1.00  0.00     0.037 A 
HETATM    4  C   UNL     1      -6.744   0.641 -33.507  1.00  0.00     0.029 A 
HETATM    5  C   UNL     1      -7.414  -0.470 -34.013  1.00  0.00     0.004 A 
HETATM    6  C   UNL     1      -6.722  -1.662 -34.221  1.00  0.00     0.029 A 
ENDROOT
BRANCH   3   7
HETATM    7  N   UNL     1      -4.781   1.744 -32.710  1.00  0.00    -0.322 N 
HETATM    8  C   UNL     1      -4.766   2.202 -31.406  1.00  0.00     0.274 C 
HETATM    9  O   UNL     1      -5.200   1.636 -30.412  1.00  0.00    -0.266 OA
HETATM   10  H   UNL     1      -4.292   2.351 -33.364  1.00  0.00     0.169 HD
BRANCH   8  11
HETATM   11  C   UNL     1      -4.112   3.544 -31.268  1.00  0.00     0.126 A 
HETATM   12  N   UNL     1      -4.863   4.520 -30.675  1.00  0.00    -0.255 NA
HETATM   13  C   UNL     1      -4.274   5.726 -30.523  1.00  0.00     0.119 A 
HETATM   14  C   UNL     1      -2.984   6.005 -30.935  1.00  0.00     0.043 A 
HETATM   15  C   UNL     1      -2.258   4.987 -31.540  1.00  0.00     0.037 A 
HETATM   16 CL   UNL     1      -0.649   5.291 -32.070  1.00  0.00    -0.084 Cl
HETATM   17  C   UNL     1      -2.815   3.730 -31.717  1.00  0.00     0.061 A 
ENDBRANCH   8  11
ENDBRANCH   3   7
BRANCH   1  18
HETATM   18  N   UNL     1      -4.746  -3.010 -34.140  1.00  0.00    -0.327 N 
HETATM   19  C   UNL     1      -3.775  -3.624 -33.370  1.00  0.00     0.218 C 
HETATM   20  C   UNL     1      -3.357  -4.964 -33.928  1.00  0.00     0.117 C 
HETATM   21  O   UNL     1      -3.292  -3.217 -32.323  1.00  0.00    -0.274 OA
HETATM   22  H   UNL     1      -5.097  -3.536 -34.928  1.00  0.00     0.169 HD
ENDBRANCH   1  18
TORSDOF 3
ENDMDL
MODEL 10
REMARK VINA RESULT:      -6.7      5.583      8.238
REMARK  3 active torsions:
REMARK  status: ('A' for Active; 'I' for Inactive)
REMARK       I    between atoms: C_2  and  N_3 
REMARK    1  A    between atoms: N_3  and  C_4 
REMARK    2  A    between atoms: C_6  and  N_7 
REMARK       I    between atoms: N_7  and  C_8 
REMARK    3  A    between atoms: C_8  and  C_9 
ROOT
HETATM    1  C   UNL     1      -5.258  -1.501 -33.646  1.00  0.00     0.036 A 
HETATM    2  C   UNL     1      -4.543  -0.344 -33.315  1.00  0.00     0.059 A 
HETATM    3  C   UNL     1      -5.214   0.841 -32.983  1.00  0.00     0.037 A 
HETATM    4  C   UNL     1      -6.613   0.859 -32.986  1.00  0.00     0.029 A 
HETATM    5  C   UNL     1      -7.334  -0.281 -33.333  1.00  0.00     0.004 A 
HETATM    6  C   UNL     1      -6.658  -1.455 -33.664  1.00  0.00     0.029 A 
ENDROOT
BRANCH   3   7
HETATM    7  N   UNL     1      -4.568   2.036 -32.616  1.00  0.00    -0.322 N 
HETATM    8  C   UNL     1      -3.527   2.212 -31.725  1.00  0.00     0.274 C 
HETATM    9  O   UNL     1      -2.898   1.346 -31.133  1.00  0.00    -0.266 OA
HETATM   10  H   UNL     1      -4.890   2.899 -33.047  1.00  0.00     0.169 HD
BRANCH   8  11
HETATM   11  C   UNL     1      -3.171   3.655 -31.523  1.00  0.00     0.126 A 
HETATM   12  N   UNL     1      -1.839   3.934 -31.408  1.00  0.00    -0.255 NA
HETATM   13  C   UNL     1      -1.507   5.234 -31.251  1.00  0.00     0.119 A 
HETATM   14  C   UNL     1      -2.432   6.260 -31.199  1.00  0.00     0.043 A 
HETATM   15  C   UNL     1      -3.777   5.931 -31.313  1.00  0.00     0.037 A 
HETATM   16 CL   UNL     1      -4.964   7.176 -31.252  1.00  0.00    -0.084 Cl
HETATM   17  C   UNL     1      -4.171   4.613 -31.479  1.00  0.00     0.061 A 
ENDBRANCH   8  11
ENDBRANCH   3   7
BRANCH   1  18
HETATM   18  N   UNL     1      -4.663  -2.740 -33.969  1.00  0.00    -0.327 N 
HETATM   19  C   UNL     1      -3.755  -3.465 -33.219  1.00  0.00     0.218 C 
HETATM   20  C   UNL     1      -3.333  -4.744 -33.900  1.00  0.00     0.117 C 
HETATM   21  O   UNL     1      -3.329  -3.191 -32.105  1.00  0.00    -0.274 OA
HETATM   22  H   UNL     1      -4.976  -3.164 -34.832  1.00  0.00     0.169 HD
ENDBRANCH   1  18
TORSDOF 3
ENDMDL
