MODEL 1
REMARK VINA RESULT:      -9.4      0.000      0.000
REMARK  6 active torsions:
REMARK  status: ('A' for Active; 'I' for Inactive)
REMARK    1  A    between atoms: C_2  and  C_3 
REMARK    2  A    between atoms: C_2  and  C_9 
REMARK    3  A    between atoms: C_9  and  C_10 
REMARK    4  A    between atoms: C_10  and  C_11 
REMARK       I    between atoms: C_11  and  N_12 
REMARK    5  A    between atoms: N_12  and  C_13 
REMARK    6  A    between atoms: C_20  and  C_21 
REMARK       I    between atoms: C_21  and  N_22 
ROOT
HETATM    1  C   UNL     1      -9.185   1.470 -32.473  1.00  0.00     0.035 A 
HETATM    2  C   UNL     1     -10.421   0.883 -32.754  1.00  0.00     0.046 A 
HETATM    3  C   UNL     1     -11.223   1.386 -33.804  1.00  0.00     0.030 A 
HETATM    4  C   UNL     1     -10.766   2.466 -34.544  1.00  0.00     0.063 A 
HETATM    5  N   UNL     1     -11.743   2.709 -35.470  1.00  0.00    -0.277 N 
HETATM    6  H   UNL     1     -11.747   3.428 -36.185  1.00  0.00     0.189 HD
HETATM    7  N   UNL     1     -12.802   1.884 -35.390  1.00  0.00    -0.168 NA
HETATM    8  C   UNL     1     -12.495   1.061 -34.363  1.00  0.00     0.156 A 
HETATM    9  C   UNL     1      -9.545   3.091 -34.292  1.00  0.00     0.034 A 
HETATM   10  C   UNL     1      -8.774   2.573 -33.242  1.00  0.00     0.032 A 
ENDROOT
BRANCH   1  11
HETATM   11  N   UNL     1      -8.295   1.061 -31.460  1.00  0.00    -0.327 N 
HETATM   12  C   UNL     1      -6.940   0.923 -31.367  1.00  0.00     0.222 C 
HETATM   13  O   UNL     1      -6.491   0.509 -30.295  1.00  0.00    -0.273 OA
HETATM   14  H   UNL     1      -8.720   0.832 -30.568  1.00  0.00     0.169 HD
BRANCH  12  15
HETATM   15  C   UNL     1      -6.034   1.286 -32.521  1.00  0.00     0.103 C 
BRANCH  15  16
HETATM   16  C   UNL     1      -5.563   0.096 -33.365  1.00  0.00     0.018 C 
BRANCH  16  17
HETATM   17  C   UNL     1      -6.671  -0.795 -33.970  1.00  0.00     0.015 C 
HETATM   18  C   UNL     1      -7.287  -0.224 -35.252  1.00  0.00     0.015 C 
BRANCH  17  19
HETATM   19  C   UNL     1      -6.125  -2.198 -34.215  1.00  0.00    -0.054 A 
HETATM   20  C   UNL     1      -6.942  -3.230 -34.704  1.00  0.00     0.007 A 
HETATM   21  C   UNL     1      -6.420  -4.505 -34.933  1.00  0.00     0.001 A 
HETATM   22  C   UNL     1      -5.077  -4.765 -34.677  1.00  0.00     0.000 A 
HETATM   23  C   UNL     1      -4.253  -3.751 -34.194  1.00  0.00     0.001 A 
HETATM   24  C   UNL     1      -4.773  -2.475 -33.966  1.00  0.00     0.007 A 
ENDBRANCH  17  19
ENDBRANCH  16  17
ENDBRANCH  15  16
ENDBRANCH  12  15
ENDBRANCH   1  11
BRANCH   8  25
HETATM   25  C   UNL     1     -13.406  -0.009 -33.933  1.00  0.00     0.270 C 
HETATM   26  N   UNL     1     -14.721   0.221 -34.228  1.00  0.00    -0.365 N 
HETATM   27  H   UNL     1     -14.970   1.079 -34.704  1.00  0.00     0.159 HD
HETATM   28  H   UNL     1     -15.421  -0.457 -33.968  1.00  0.00     0.159 HD
HETATM   29  O   UNL     1     -13.049  -1.031 -33.355  1.00  0.00    -0.266 OA
ENDBRANCH   8  25
TORSDOF 6
ENDMDL
MODEL 2
REMARK VINA RESULT:      -9.2      3.755      6.663
REMARK  6 active torsions:
REMARK  status: ('A' for Active; 'I' for Inactive)
REMARK    1  A    between atoms: C_2  and  C_3 
REMARK    2  A    between atoms: C_2  and  C_9 
REMARK    3  A    between atoms: C_9  and  C_10 
REMARK    4  A    between atoms: C_10  and  C_11 
REMARK       I    between atoms: C_11  and  N_12 
REMARK    5  A    between atoms: N_12  and  C_13 
REMARK    6  A    between atoms: C_20  and  C_21 
REMARK       I    between atoms: C_21  and  N_22 
ROOT
HETATM    1  C   UNL     1      -6.404   2.915 -32.716  1.00  0.00     0.035 A 
HETATM    2  C   UNL     1      -5.432   3.597 -33.451  1.00  0.00     0.046 A 
HETATM    3  C   UNL     1      -4.162   3.851 -32.885  1.00  0.00     0.030 A 
HETATM    4  C   UNL     1      -3.901   3.420 -31.593  1.00  0.00     0.063 A 
HETATM    5  N   UNL     1      -2.614   3.804 -31.337  1.00  0.00    -0.277 N 
HETATM    6  H   UNL     1      -2.085   3.650 -30.486  1.00  0.00     0.189 HD
HETATM    7  N   UNL     1      -2.016   4.458 -32.348  1.00  0.00    -0.168 NA
HETATM    8  C   UNL     1      -2.963   4.497 -33.313  1.00  0.00     0.156 A 
HETATM    9  C   UNL     1      -4.844   2.746 -30.817  1.00  0.00     0.034 A 
HETATM   10  C   UNL     1      -6.096   2.511 -31.405  1.00  0.00     0.032 A 
ENDROOT
BRANCH   1  11
HETATM   11  N   UNL     1      -7.701   2.598 -33.168  1.00  0.00    -0.327 N 
HETATM   12  C   UNL     1      -8.211   1.735 -34.096  1.00  0.00     0.222 C 
HETATM   13  O   UNL     1      -9.436   1.735 -34.246  1.00  0.00    -0.273 OA
HETATM   14  H   UNL     1      -8.460   3.083 -32.703  1.00  0.00     0.169 HD
BRANCH  12  15
HETATM   15  C   UNL     1      -7.314   0.808 -34.883  1.00  0.00     0.103 C 
BRANCH  15  16
HETATM   16  C   UNL     1      -6.983  -0.513 -34.180  1.00  0.00     0.018 C 
BRANCH  16  17
HETATM   17  C   UNL     1      -5.488  -0.899 -34.117  1.00  0.00     0.015 C 
HETATM   18  C   UNL     1      -4.784  -0.422 -32.841  1.00  0.00     0.015 C 
BRANCH  17  19
HETATM   19  C   UNL     1      -5.339  -2.408 -34.281  1.00  0.00    -0.054 A 
HETATM   20  C   UNL     1      -4.169  -3.078 -33.890  1.00  0.00     0.007 A 
HETATM   21  C   UNL     1      -4.056  -4.462 -34.037  1.00  0.00     0.001 A 
HETATM   22  C   UNL     1      -5.110  -5.194 -34.575  1.00  0.00     0.000 A 
HETATM   23  C   UNL     1      -6.280  -4.543 -34.965  1.00  0.00     0.001 A 
HETATM   24  C   UNL     1      -6.395  -3.160 -34.817  1.00  0.00     0.007 A 
ENDBRANCH  17  19
ENDBRANCH  16  17
ENDBRANCH  15  16
ENDBRANCH  12  15
ENDBRANCH   1  11
BRANCH   8  25
HETATM   25  C   UNL     1      -2.716   5.139 -34.611  1.00  0.00     0.270 C 
HETATM   26  N   UNL     1      -1.397   5.197 -34.966  1.00  0.00    -0.365 N 
HETATM   27  H   UNL     1      -0.706   4.809 -34.336  1.00  0.00     0.159 HD
HETATM   28  H   UNL     1      -1.131   5.625 -35.840  1.00  0.00     0.159 HD
HETATM   29  O   UNL     1      -3.595   5.596 -35.335  1.00  0.00    -0.266 OA
ENDBRANCH   8  25
TORSDOF 6
ENDMDL
MODEL 3
REMARK VINA RESULT:      -9.0      1.988      3.000
REMARK  6 active torsions:
REMARK  status: ('A' for Active; 'I' for Inactive)
REMARK    1  A    between atoms: C_2  and  C_3 
REMARK    2  A    between atoms: C_2  and  C_9 
REMARK    3  A    between atoms: C_9  and  C_10 
REMARK    4  A    between atoms: C_10  and  C_11 
REMARK       I    between atoms: C_11  and  N_12 
REMARK    5  A    between atoms: N_12  and  C_13 
REMARK    6  A    between atoms: C_20  and  C_21 
REMARK       I    between atoms: C_21  and  N_22 
ROOT
HETATM    1  C   UNL     1      -8.709   1.388 -32.025  1.00  0.00     0.035 A 
HETATM    2  C   UNL     1      -8.847   2.592 -32.720  1.00  0.00     0.046 A 
HETATM    3  C   UNL     1      -9.837   2.723 -33.721  1.00  0.00     0.030 A 
HETATM    4  C   UNL     1     -10.659   1.643 -34.003  1.00  0.00     0.063 A 
HETATM    5  N   UNL     1     -11.498   2.076 -34.993  1.00  0.00    -0.277 N 
HETATM    6  H   UNL     1     -12.238   1.550 -35.444  1.00  0.00     0.189 HD
HETATM    7  N   UNL     1     -11.285   3.344 -35.387  1.00  0.00    -0.168 NA
HETATM    8  C   UNL     1     -10.258   3.756 -34.611  1.00  0.00     0.156 A 
HETATM    9  C   UNL     1     -10.551   0.419 -33.343  1.00  0.00     0.034 A 
HETATM   10  C   UNL     1      -9.558   0.318 -32.357  1.00  0.00     0.032 A 
ENDROOT
BRANCH   1  11
HETATM   11  N   UNL     1      -7.769   1.134 -31.007  1.00  0.00    -0.327 N 
HETATM   12  C   UNL     1      -6.409   1.022 -30.960  1.00  0.00     0.222 C 
HETATM   13  O   UNL     1      -5.904   0.768 -29.862  1.00  0.00    -0.273 OA
HETATM   14  H   UNL     1      -8.148   1.030 -30.072  1.00  0.00     0.169 HD
BRANCH  12  15
HETATM   15  C   UNL     1      -5.562   1.224 -32.196  1.00  0.00     0.103 C 
BRANCH  15  16
HETATM   16  C   UNL     1      -5.208  -0.063 -32.948  1.00  0.00     0.018 C 
BRANCH  16  17
HETATM   17  C   UNL     1      -6.354  -0.729 -33.742  1.00  0.00     0.015 C 
HETATM   18  C   UNL     1      -6.778   0.060 -34.987  1.00  0.00     0.015 C 
BRANCH  17  19
HETATM   19  C   UNL     1      -5.960  -2.154 -34.117  1.00  0.00    -0.054 A 
HETATM   20  C   UNL     1      -4.646  -2.621 -33.949  1.00  0.00     0.007 A 
HETATM   21  C   UNL     1      -4.307  -3.933 -34.287  1.00  0.00     0.001 A 
HETATM   22  C   UNL     1      -5.274  -4.794 -34.797  1.00  0.00     0.000 A 
HETATM   23  C   UNL     1      -6.583  -4.345 -34.967  1.00  0.00     0.001 A 
HETATM   24  C   UNL     1      -6.924  -3.035 -34.628  1.00  0.00     0.007 A 
ENDBRANCH  17  19
ENDBRANCH  16  17
ENDBRANCH  15  16
ENDBRANCH  12  15
ENDBRANCH   1  11
BRANCH   8  25
HETATM   25  C   UNL     1      -9.701   5.111 -34.725  1.00  0.00     0.270 C 
HETATM   26  N   UNL     1     -10.607   6.061 -35.108  1.00  0.00    -0.365 N 
HETATM   27  H   UNL     1     -11.564   5.778 -35.281  1.00  0.00     0.159 HD
HETATM   28  H   UNL     1     -10.315   7.020 -35.217  1.00  0.00     0.159 HD
HETATM   29  O   UNL     1      -8.529   5.398 -34.505  1.00  0.00    -0.266 OA
ENDBRANCH   8  25
TORSDOF 6
ENDMDL
MODEL 4
REMARK VINA RESULT:      -8.8      4.495      7.290
REMARK  6 active torsions:
REMARK  status: ('A' for Active; 'I' for Inactive)
REMARK    1  A    between atoms: C_2  and  C_3 
REMARK    2  A    between atoms: C_2  and  C_9 
REMARK    3  A    between atoms: C_9  and  C_10 
REMARK    4  A    between atoms: C_10  and  C_11 
REMARK       I    between atoms: C_11  and  N_12 
REMARK    5  A    between atoms: N_12  and  C_13 
REMARK    6  A    between atoms: C_20  and  C_21 
REMARK       I    between atoms: C_21  and  N_22 
ROOT
HETATM    1  C   UNL     1      -5.077   3.870 -32.753  1.00  0.00     0.035 A 
HETATM    2  C   UNL     1      -3.846   4.248 -32.209  1.00  0.00     0.046 A 
HETATM    3  C   UNL     1      -2.925   4.987 -32.986  1.00  0.00     0.030 A 
HETATM    4  C   UNL     1      -3.258   5.323 -34.289  1.00  0.00     0.063 A 
HETATM    5  N   UNL     1      -2.186   6.026 -34.766  1.00  0.00    -0.277 N 
HETATM    6  H   UNL     1      -2.080   6.435 -35.688  1.00  0.00     0.189 HD
HETATM    7  N   UNL     1      -1.178   6.167 -33.888  1.00  0.00    -0.168 NA
HETATM    8  C   UNL     1      -1.620   5.527 -32.782  1.00  0.00     0.156 A 
HETATM    9  C   UNL     1      -4.469   4.958 -34.877  1.00  0.00     0.034 A 
HETATM   10  C   UNL     1      -5.361   4.223 -34.083  1.00  0.00     0.032 A 
ENDROOT
BRANCH   1  11
HETATM   11  N   UNL     1      -6.078   3.139 -32.082  1.00  0.00    -0.327 N 
HETATM   12  C   UNL     1      -6.234   1.833 -31.718  1.00  0.00     0.222 C 
HETATM   13  O   UNL     1      -7.282   1.534 -31.138  1.00  0.00    -0.273 OA
HETATM   14  H   UNL     1      -6.872   3.679 -31.754  1.00  0.00     0.169 HD
BRANCH  12  15
HETATM   15  C   UNL     1      -5.159   0.807 -31.994  1.00  0.00     0.103 C 
BRANCH  15  16
HETATM   16  C   UNL     1      -5.119   0.292 -33.437  1.00  0.00     0.018 C 
BRANCH  16  17
HETATM   17  C   UNL     1      -6.379  -0.453 -33.932  1.00  0.00     0.015 C 
HETATM   18  C   UNL     1      -7.025   0.186 -35.167  1.00  0.00     0.015 C 
BRANCH  17  19
HETATM   19  C   UNL     1      -6.039  -1.916 -34.199  1.00  0.00    -0.054 A 
HETATM   20  C   UNL     1      -7.025  -2.844 -34.568  1.00  0.00     0.007 A 
HETATM   21  C   UNL     1      -6.692  -4.177 -34.820  1.00  0.00     0.001 A 
HETATM   22  C   UNL     1      -5.370  -4.598 -34.708  1.00  0.00     0.000 A 
HETATM   23  C   UNL     1      -4.380  -3.688 -34.346  1.00  0.00     0.001 A 
HETATM   24  C   UNL     1      -4.711  -2.355 -34.095  1.00  0.00     0.007 A 
ENDBRANCH  17  19
ENDBRANCH  16  17
ENDBRANCH  15  16
ENDBRANCH  12  15
ENDBRANCH   1  11
BRANCH   8  25
HETATM   25  C   UNL     1      -0.804   5.441 -31.563  1.00  0.00     0.270 C 
HETATM   26  N   UNL     1      -0.278   6.635 -31.153  1.00  0.00    -0.365 N 
HETATM   27  H   UNL     1      -0.478   7.466 -31.696  1.00  0.00     0.159 HD
HETATM   28  H   UNL     1       0.299   6.673 -30.328  1.00  0.00     0.159 HD
HETATM   29  O   UNL     1      -0.592   4.403 -30.945  1.00  0.00    -0.266 OA
ENDBRANCH   8  25
TORSDOF 6
ENDMDL
MODEL 5
REMARK VINA RESULT:      -8.3      5.183      7.761
REMARK  6 active torsions:
REMARK  status: ('A' for Active; 'I' for Inactive)
REMARK    1  A    between atoms: C_2  and  C_3 
REMARK    2  A    between atoms: C_2  and  C_9 
REMARK    3  A    between atoms: C_9  and  C_10 
REMARK    4  A    between atoms: C_10  and  C_11 
REMARK       I    between atoms: C_11  and  N_12 
REMARK    5  A    between atoms: N_12  and  C_13 
REMARK    6  A    between atoms: C_20  and  C_21 
REMARK       I    between atoms: C_21  and  N_22 
ROOT
HETATM    1  C   UNL     1      -3.326   4.027 -31.644  1.00  0.00     0.035 A 
HETATM    2  C   UNL     1      -3.291   5.366 -31.246  1.00  0.00     0.046 A 
HETATM    3  C   UNL     1      -2.672   6.334 -32.068  1.00  0.00     0.030 A 
HETATM    4  C   UNL     1      -2.098   5.936 -33.266  1.00  0.00     0.063 A 
HETATM    5  N   UNL     1      -1.595   7.078 -33.824  1.00  0.00    -0.277 N 
HETATM    6  H   UNL     1      -1.108   7.167 -34.709  1.00  0.00     0.189 HD
HETATM    7  N   UNL     1      -1.783   8.187 -33.086  1.00  0.00    -0.168 NA
HETATM    8  C   UNL     1      -2.446   7.742 -31.996  1.00  0.00     0.156 A 
HETATM    9  C   UNL     1      -2.098   4.610 -33.698  1.00  0.00     0.034 A 
HETATM   10  C   UNL     1      -2.717   3.671 -32.860  1.00  0.00     0.032 A 
ENDROOT
BRANCH   1  11
HETATM   11  N   UNL     1      -3.914   2.972 -30.918  1.00  0.00    -0.327 N 
HETATM   12  C   UNL     1      -4.821   1.993 -31.209  1.00  0.00     0.222 C 
HETATM   13  O   UNL     1      -5.129   1.225 -30.293  1.00  0.00    -0.273 OA
HETATM   14  H   UNL     1      -3.597   2.865 -29.961  1.00  0.00     0.169 HD
BRANCH  12  15
HETATM   15  C   UNL     1      -5.400   1.847 -32.597  1.00  0.00     0.103 C 
BRANCH  15  16
HETATM   16  C   UNL     1      -5.150   0.487 -33.256  1.00  0.00     0.018 C 
BRANCH  16  17
HETATM   17  C   UNL     1      -6.388  -0.226 -33.845  1.00  0.00     0.015 C 
HETATM   18  C   UNL     1      -6.960   0.463 -35.090  1.00  0.00     0.015 C 
BRANCH  17  19
HETATM   19  C   UNL     1      -6.049  -1.682 -34.145  1.00  0.00    -0.054 A 
HETATM   20  C   UNL     1      -7.032  -2.599 -34.550  1.00  0.00     0.007 A 
HETATM   21  C   UNL     1      -6.699  -3.926 -34.832  1.00  0.00     0.001 A 
HETATM   22  C   UNL     1      -5.380  -4.353 -34.713  1.00  0.00     0.000 A 
HETATM   23  C   UNL     1      -4.392  -3.455 -34.314  1.00  0.00     0.001 A 
HETATM   24  C   UNL     1      -4.723  -2.128 -34.034  1.00  0.00     0.007 A 
ENDBRANCH  17  19
ENDBRANCH  16  17
ENDBRANCH  15  16
ENDBRANCH  12  15
ENDBRANCH   1  11
BRANCH   8  25
HETATM   25  C   UNL     1      -2.850   8.651 -30.915  1.00  0.00     0.270 C 
HETATM   26  N   UNL     1      -4.107   9.169 -31.058  1.00  0.00    -0.365 N 
HETATM   27  H   UNL     1      -4.654   8.903 -31.868  1.00  0.00     0.159 HD
HETATM   28  H   UNL     1      -4.470   9.807 -30.366  1.00  0.00     0.159 HD
HETATM   29  O   UNL     1      -2.144   8.942 -29.955  1.00  0.00    -0.266 OA
ENDBRANCH   8  25
TORSDOF 6
ENDMDL
MODEL 6
REMARK VINA RESULT:      -8.3      3.876      5.985
REMARK  6 active torsions:
REMARK  status: ('A' for Active; 'I' for Inactive)
REMARK    1  A    between atoms: C_2  and  C_3 
REMARK    2  A    between atoms: C_2  and  C_9 
REMARK    3  A    between atoms: C_9  and  C_10 
REMARK    4  A    between atoms: C_10  and  C_11 
REMARK       I    between atoms: C_11  and  N_12 
REMARK    5  A    between atoms: N_12  and  C_13 
REMARK    6  A    between atoms: C_20  and  C_21 
REMARK       I    between atoms: C_21  and  N_22 
ROOT
HETATM    1  C   UNL     1      -4.553   1.143 -31.364  1.00  0.00     0.035 A 
HETATM    2  C   UNL     1      -4.504   2.345 -32.075  1.00  0.00     0.046 A 
HETATM    3  C   UNL     1      -5.605   3.231 -32.047  1.00  0.00     0.030 A 
HETATM    4  C   UNL     1      -6.729   2.888 -31.312  1.00  0.00     0.063 A 
HETATM    5  N   UNL     1      -7.601   3.929 -31.477  1.00  0.00    -0.277 N 
HETATM    6  H   UNL     1      -8.528   4.023 -31.077  1.00  0.00     0.189 HD
HETATM    7  N   UNL     1      -7.144   4.918 -32.266  1.00  0.00    -0.168 NA
HETATM    8  C   UNL     1      -5.910   4.499 -32.628  1.00  0.00     0.156 A 
HETATM    9  C   UNL     1      -6.828   1.695 -30.597  1.00  0.00     0.034 A 
HETATM   10  C   UNL     1      -5.721   0.834 -30.646  1.00  0.00     0.032 A 
ENDROOT
BRANCH   1  11
HETATM   11  N   UNL     1      -3.524   0.182 -31.309  1.00  0.00    -0.327 N 
HETATM   12  C   UNL     1      -3.092  -0.813 -32.138  1.00  0.00     0.222 C 
HETATM   13  O   UNL     1      -2.140  -1.494 -31.747  1.00  0.00    -0.273 OA
HETATM   14  H   UNL     1      -2.927   0.223 -30.490  1.00  0.00     0.169 HD
BRANCH  12  15
HETATM   15  C   UNL     1      -3.738  -1.049 -33.484  1.00  0.00     0.103 C 
BRANCH  15  16
HETATM   16  C   UNL     1      -4.794  -2.160 -33.502  1.00  0.00     0.018 C 
BRANCH  16  17
HETATM   17  C   UNL     1      -5.842  -2.088 -34.635  1.00  0.00     0.015 C 
HETATM   18  C   UNL     1      -6.581  -3.411 -34.873  1.00  0.00     0.015 C 
BRANCH  17  19
HETATM   19  C   UNL     1      -6.832  -0.964 -34.347  1.00  0.00    -0.054 A 
HETATM   20  C   UNL     1      -7.819  -1.088 -33.355  1.00  0.00     0.007 A 
HETATM   21  C   UNL     1      -8.709  -0.043 -33.099  1.00  0.00     0.001 A 
HETATM   22  C   UNL     1      -8.625   1.139 -33.829  1.00  0.00     0.000 A 
HETATM   23  C   UNL     1      -7.649   1.279 -34.814  1.00  0.00     0.001 A 
HETATM   24  C   UNL     1      -6.758   0.235 -35.071  1.00  0.00     0.007 A 
ENDBRANCH  17  19
ENDBRANCH  16  17
ENDBRANCH  15  16
ENDBRANCH  12  15
ENDBRANCH   1  11
BRANCH   8  25
HETATM   25  C   UNL     1      -5.052   5.301 -33.510  1.00  0.00     0.270 C 
HETATM   26  N   UNL     1      -4.193   6.136 -32.850  1.00  0.00    -0.365 N 
HETATM   27  H   UNL     1      -4.206   6.146 -31.837  1.00  0.00     0.159 HD
HETATM   28  H   UNL     1      -3.567   6.729 -33.373  1.00  0.00     0.159 HD
HETATM   29  O   UNL     1      -5.080   5.251 -34.735  1.00  0.00    -0.266 OA
ENDBRANCH   8  25
TORSDOF 6
ENDMDL
MODEL 7
REMARK VINA RESULT:      -8.3     13.785     16.189
REMARK  6 active torsions:
REMARK  status: ('A' for Active; 'I' for Inactive)
REMARK    1  A    between atoms: C_2  and  C_3 
REMARK    2  A    between atoms: C_2  and  C_9 
REMARK    3  A    between atoms: C_9  and  C_10 
REMARK    4  A    between atoms: C_10  and  C_11 
REMARK       I    between atoms: C_11  and  N_12 
REMARK    5  A    between atoms: N_12  and  C_13 
REMARK    6  A    between atoms: C_20  and  C_21 
REMARK       I    between atoms: C_21  and  N_22 
ROOT
HETATM    1  C   UNL     1      -6.934 -12.474 -40.781  1.00  0.00     0.035 A 
HETATM    2  C   UNL     1      -6.445 -13.279 -41.814  1.00  0.00     0.046 A 
HETATM    3  C   UNL     1      -5.082 -13.651 -41.838  1.00  0.00     0.030 A 
HETATM    4  C   UNL     1      -4.242 -13.202 -40.829  1.00  0.00     0.063 A 
HETATM    5  N   UNL     1      -3.012 -13.724 -41.124  1.00  0.00    -0.277 N 
HETATM    6  H   UNL     1      -2.153 -13.607 -40.598  1.00  0.00     0.189 HD
HETATM    7  N   UNL     1      -2.977 -14.467 -42.244  1.00  0.00    -0.168 NA
HETATM    8  C   UNL     1      -4.250 -14.429 -42.698  1.00  0.00     0.156 A 
HETATM    9  C   UNL     1      -4.683 -12.388 -39.786  1.00  0.00     0.034 A 
HETATM   10  C   UNL     1      -6.039 -12.033 -39.791  1.00  0.00     0.032 A 
ENDROOT
BRANCH   1  11
HETATM   11  N   UNL     1      -8.268 -12.040 -40.644  1.00  0.00    -0.327 N 
HETATM   12  C   UNL     1      -9.375 -12.523 -40.007  1.00  0.00     0.222 C 
HETATM   13  O   UNL     1     -10.415 -11.867 -40.118  1.00  0.00    -0.273 OA
HETATM   14  H   UNL     1      -8.490 -11.153 -41.082  1.00  0.00     0.169 HD
BRANCH  12  15
HETATM   15  C   UNL     1      -9.318 -13.791 -39.187  1.00  0.00     0.103 C 
BRANCH  15  16
HETATM   16  C   UNL     1      -8.757 -13.614 -37.771  1.00  0.00     0.018 C 
BRANCH  16  17
HETATM   17  C   UNL     1      -7.733 -14.673 -37.304  1.00  0.00     0.015 C 
HETATM   18  C   UNL     1      -6.912 -15.280 -38.448  1.00  0.00     0.015 C 
BRANCH  17  19
HETATM   19  C   UNL     1      -6.816 -14.068 -36.246  1.00  0.00    -0.054 A 
HETATM   20  C   UNL     1      -7.314 -13.611 -35.016  1.00  0.00     0.007 A 
HETATM   21  C   UNL     1      -6.457 -13.071 -34.054  1.00  0.00     0.001 A 
HETATM   22  C   UNL     1      -5.092 -12.983 -34.309  1.00  0.00     0.000 A 
HETATM   23  C   UNL     1      -4.582 -13.435 -35.525  1.00  0.00     0.001 A 
HETATM   24  C   UNL     1      -5.437 -13.976 -36.486  1.00  0.00     0.007 A 
ENDBRANCH  17  19
ENDBRANCH  16  17
ENDBRANCH  15  16
ENDBRANCH  12  15
ENDBRANCH   1  11
BRANCH   8  25
HETATM   25  C   UNL     1      -4.651 -15.124 -43.928  1.00  0.00     0.270 C 
HETATM   26  N   UNL     1      -4.271 -14.494 -45.080  1.00  0.00    -0.365 N 
HETATM   27  H   UNL     1      -3.758 -13.623 -45.012  1.00  0.00     0.159 HD
HETATM   28  H   UNL     1      -4.506 -14.896 -45.975  1.00  0.00     0.159 HD
HETATM   29  O   UNL     1      -5.277 -16.180 -43.954  1.00  0.00    -0.266 OA
ENDBRANCH   8  25
TORSDOF 6
ENDMDL
MODEL 8
REMARK VINA RESULT:      -8.2      4.688      7.168
REMARK  6 active torsions:
REMARK  status: ('A' for Active; 'I' for Inactive)
REMARK    1  A    between atoms: C_2  and  C_3 
REMARK    2  A    between atoms: C_2  and  C_9 
REMARK    3  A    between atoms: C_9  and  C_10 
REMARK    4  A    between atoms: C_10  and  C_11 
REMARK       I    between atoms: C_11  and  N_12 
REMARK    5  A    between atoms: N_12  and  C_13 
REMARK    6  A    between atoms: C_20  and  C_21 
REMARK       I    between atoms: C_21  and  N_22 
ROOT
HETATM    1  C   UNL     1      -3.964   0.495 -31.066  1.00  0.00     0.035 A 
HETATM    2  C   UNL     1      -3.516   1.623 -31.759  1.00  0.00     0.046 A 
HETATM    3  C   UNL     1      -4.101   2.886 -31.511  1.00  0.00     0.030 A 
HETATM    4  C   UNL     1      -5.123   2.985 -30.580  1.00  0.00     0.063 A 
HETATM    5  N   UNL     1      -5.470   4.308 -30.563  1.00  0.00    -0.277 N 
HETATM    6  H   UNL     1      -6.183   4.749 -29.993  1.00  0.00     0.189 HD
HETATM    7  N   UNL     1      -4.767   5.078 -31.412  1.00  0.00    -0.168 NA
HETATM    8  C   UNL     1      -3.917   4.212 -32.007  1.00  0.00     0.156 A 
HETATM    9  C   UNL     1      -5.610   1.885 -29.874  1.00  0.00     0.034 A 
HETATM   10  C   UNL     1      -5.013   0.645 -30.143  1.00  0.00     0.032 A 
ENDROOT
BRANCH   1  11
HETATM   11  N   UNL     1      -3.461  -0.812 -31.220  1.00  0.00    -0.327 N 
HETATM   12  C   UNL     1      -3.573  -1.779 -32.178  1.00  0.00     0.222 C 
HETATM   13  O   UNL     1      -2.991  -2.847 -31.965  1.00  0.00    -0.273 OA
HETATM   14  H   UNL     1      -2.848  -1.138 -30.480  1.00  0.00     0.169 HD
BRANCH  12  15
HETATM   15  C   UNL     1      -4.354  -1.538 -33.449  1.00  0.00     0.103 C 
BRANCH  15  16
HETATM   16  C   UNL     1      -5.825  -1.168 -33.236  1.00  0.00     0.018 C 
BRANCH  16  17
HETATM   17  C   UNL     1      -6.366   0.003 -34.088  1.00  0.00     0.015 C 
HETATM   18  C   UNL     1      -7.115  -0.448 -35.348  1.00  0.00     0.015 C 
BRANCH  17  19
HETATM   19  C   UNL     1      -7.251   0.898 -33.227  1.00  0.00    -0.054 A 
HETATM   20  C   UNL     1      -7.287   2.290 -33.408  1.00  0.00     0.007 A 
HETATM   21  C   UNL     1      -8.113   3.092 -32.617  1.00  0.00     0.001 A 
HETATM   22  C   UNL     1      -8.915   2.513 -31.638  1.00  0.00     0.000 A 
HETATM   23  C   UNL     1      -8.893   1.132 -31.449  1.00  0.00     0.001 A 
HETATM   24  C   UNL     1      -8.069   0.330 -32.239  1.00  0.00     0.007 A 
ENDBRANCH  17  19
ENDBRANCH  16  17
ENDBRANCH  15  16
ENDBRANCH  12  15
ENDBRANCH   1  11
BRANCH   8  25
HETATM   25  C   UNL     1      -2.955   4.652 -33.026  1.00  0.00     0.270 C 
HETATM   26  N   UNL     1      -3.519   5.301 -34.089  1.00  0.00    -0.365 N 
HETATM   27  H   UNL     1      -4.524   5.429 -34.103  1.00  0.00     0.159 HD
HETATM   28  H   UNL     1      -2.937   5.636 -34.841  1.00  0.00     0.159 HD
HETATM   29  O   UNL     1      -1.744   4.467 -32.960  1.00  0.00    -0.266 OA
ENDBRANCH   8  25
TORSDOF 6
ENDMDL
MODEL 9
REMARK VINA RESULT:      -8.1      3.394      7.561
REMARK  6 active torsions:
REMARK  status: ('A' for Active; 'I' for Inactive)
REMARK    1  A    between atoms: C_2  and  C_3 
REMARK    2  A    between atoms: C_2  and  C_9 
REMARK    3  A    between atoms: C_9  and  C_10 
REMARK    4  A    between atoms: C_10  and  C_11 
REMARK       I    between atoms: C_11  and  N_12 
REMARK    5  A    between atoms: N_12  and  C_13 
REMARK    6  A    between atoms: C_20  and  C_21 
REMARK       I    between atoms: C_21  and  N_22 
ROOT
HETATM    1  C   UNL     1      -6.118   0.958 -33.228  1.00  0.00     0.035 A 
HETATM    2  C   UNL     1      -5.181   0.055 -32.718  1.00  0.00     0.046 A 
HETATM    3  C   UNL     1      -4.989  -1.197 -33.345  1.00  0.00     0.030 A 
HETATM    4  C   UNL     1      -5.744  -1.515 -34.464  1.00  0.00     0.063 A 
HETATM    5  N   UNL     1      -5.332  -2.765 -34.835  1.00  0.00    -0.277 N 
HETATM    6  H   UNL     1      -5.666  -3.314 -35.619  1.00  0.00     0.189 HD
HETATM    7  N   UNL     1      -4.380  -3.294 -34.047  1.00  0.00    -0.168 NA
HETATM    8  C   UNL     1      -4.158  -2.335 -33.119  1.00  0.00     0.156 A 
HETATM    9  C   UNL     1      -6.698  -0.650 -35.000  1.00  0.00     0.034 A 
HETATM   10  C   UNL     1      -6.869   0.583 -34.355  1.00  0.00     0.032 A 
ENDROOT
BRANCH   1  11
HETATM   11  N   UNL     1      -6.398   2.233 -32.698  1.00  0.00    -0.327 N 
HETATM   12  C   UNL     1      -7.491   2.818 -32.124  1.00  0.00     0.222 C 
HETATM   13  O   UNL     1      -7.379   3.998 -31.781  1.00  0.00    -0.273 OA
HETATM   14  H   UNL     1      -5.626   2.891 -32.701  1.00  0.00     0.169 HD
BRANCH  12  15
HETATM   15  C   UNL     1      -8.768   2.042 -31.900  1.00  0.00     0.103 C 
BRANCH  15  16
HETATM   16  C   UNL     1      -9.842   2.251 -32.973  1.00  0.00     0.018 C 
BRANCH  16  17
HETATM   17  C   UNL     1     -10.517   0.974 -33.523  1.00  0.00     0.015 C 
HETATM   18  C   UNL     1     -10.091  -0.307 -32.796  1.00  0.00     0.015 C 
BRANCH  17  19
HETATM   19  C   UNL     1     -12.033   1.137 -33.482  1.00  0.00    -0.054 A 
HETATM   20  C   UNL     1     -12.632   2.379 -33.220  1.00  0.00     0.007 A 
HETATM   21  C   UNL     1     -14.023   2.511 -33.198  1.00  0.00     0.001 A 
HETATM   22  C   UNL     1     -14.831   1.404 -33.438  1.00  0.00     0.000 A 
HETATM   23  C   UNL     1     -14.251   0.164 -33.703  1.00  0.00     0.001 A 
HETATM   24  C   UNL     1     -12.861   0.032 -33.727  1.00  0.00     0.007 A 
ENDBRANCH  17  19
ENDBRANCH  16  17
ENDBRANCH  15  16
ENDBRANCH  12  15
ENDBRANCH   1  11
BRANCH   8  25
HETATM   25  C   UNL     1      -3.172  -2.515 -32.045  1.00  0.00     0.270 C 
HETATM   26  N   UNL     1      -2.544  -1.363 -31.661  1.00  0.00    -0.365 N 
HETATM   27  H   UNL     1      -2.791  -0.497 -32.124  1.00  0.00     0.159 HD
HETATM   28  H   UNL     1      -1.847  -1.389 -30.933  1.00  0.00     0.159 HD
HETATM   29  O   UNL     1      -2.909  -3.592 -31.520  1.00  0.00    -0.266 OA
ENDBRANCH   8  25
TORSDOF 6
ENDMDL
MODEL 10
REMARK VINA RESULT:      -8.0      3.994      7.583
REMARK  6 active torsions:
REMARK  status: ('A' for Active; 'I' for Inactive)
REMARK    1  A    between atoms: C_2  and  C_3 
REMARK    2  A    between atoms: C_2  and  C_9 
REMARK    3  A    between atoms: C_9  and  C_10 
REMARK    4  A    between atoms: C_10  and  C_11 
REMARK       I    between atoms: C_11  and  N_12 
REMARK    5  A    between atoms: N_12  and  C_13 
REMARK    6  A    between atoms: C_20  and  C_21 
REMARK       I    between atoms: C_21  and  N_22 
ROOT
HETATM    1  C   UNL     1      -7.023   0.294 -31.886  1.00  0.00     0.035 A 
HETATM    2  C   UNL     1      -5.826  -0.409 -31.730  1.00  0.00     0.046 A 
HETATM    3  C   UNL     1      -5.378  -1.281 -32.748  1.00  0.00     0.030 A 
HETATM    4  C   UNL     1      -6.143  -1.430 -33.895  1.00  0.00     0.063 A 
HETATM    5  N   UNL     1      -5.456  -2.318 -34.676  1.00  0.00    -0.277 N 
HETATM    6  H   UNL     1      -5.718  -2.660 -35.594  1.00  0.00     0.189 HD
HETATM    7  N   UNL     1      -4.312  -2.769 -34.131  1.00  0.00    -0.168 NA
HETATM    8  C   UNL     1      -4.251  -2.138 -32.937  1.00  0.00     0.156 A 
HETATM    9  C   UNL     1      -7.350  -0.758 -34.089  1.00  0.00     0.034 A 
HETATM   10  C   UNL     1      -7.770   0.098 -33.060  1.00  0.00     0.032 A 
ENDROOT
BRANCH   1  11
HETATM   11  N   UNL     1      -7.573   1.193 -30.950  1.00  0.00    -0.327 N 
HETATM   12  C   UNL     1      -7.635   2.553 -30.845  1.00  0.00     0.222 C 
HETATM   13  O   UNL     1      -8.200   3.012 -29.847  1.00  0.00    -0.273 OA
HETATM   14  H   UNL     1      -8.069   0.770 -30.173  1.00  0.00     0.169 HD
BRANCH  12  15
HETATM   15  C   UNL     1      -7.059   3.450 -31.915  1.00  0.00     0.103 C 
BRANCH  15  16
HETATM   16  C   UNL     1      -5.531   3.568 -31.899  1.00  0.00     0.018 C 
BRANCH  16  17
HETATM   17  C   UNL     1      -4.956   5.002 -31.858  1.00  0.00     0.015 C 
HETATM   18  C   UNL     1      -4.559   5.464 -30.451  1.00  0.00     0.015 C 
BRANCH  17  19
HETATM   19  C   UNL     1      -3.772   5.107 -32.813  1.00  0.00    -0.054 A 
HETATM   20  C   UNL     1      -2.447   5.094 -32.346  1.00  0.00     0.007 A 
HETATM   21  C   UNL     1      -1.375   5.180 -33.237  1.00  0.00     0.001 A 
HETATM   22  C   UNL     1      -1.612   5.279 -34.605  1.00  0.00     0.000 A 
HETATM   23  C   UNL     1      -2.921   5.290 -35.084  1.00  0.00     0.001 A 
HETATM   24  C   UNL     1      -3.994   5.203 -34.194  1.00  0.00     0.007 A 
ENDBRANCH  17  19
ENDBRANCH  16  17
ENDBRANCH  15  16
ENDBRANCH  12  15
ENDBRANCH   1  11
BRANCH   8  25
HETATM   25  C   UNL     1      -3.136  -2.355 -32.006  1.00  0.00     0.270 C 
HETATM   26  N   UNL     1      -2.449  -1.220 -31.677  1.00  0.00    -0.365 N 
HETATM   27  H   UNL     1      -2.743  -0.339 -32.081  1.00  0.00     0.159 HD
HETATM   28  H   UNL     1      -1.664  -1.272 -31.046  1.00  0.00     0.159 HD
HETATM   29  O   UNL     1      -2.821  -3.448 -31.547  1.00  0.00    -0.266 OA
ENDBRANCH   8  25
TORSDOF 6
ENDMDL
