MODEL 1
REMARK VINA RESULT:      -7.8      0.000      0.000
REMARK  7 active torsions:
REMARK  status: ('A' for Active; 'I' for Inactive)
REMARK    1  A    between atoms: C_8  and  C_9 
REMARK    2  A    between atoms: C_9  and  C_10 
REMARK    3  A    between atoms: C_10  and  C_11 
REMARK       I    between atoms: C_11  and  N_12 
REMARK    4  A    between atoms: N_12  and  C_13 
REMARK    5  A    between atoms: C_13  and  C_14 
REMARK    6  A    between atoms: C_14  and  N_15 
REMARK    7  A    between atoms: C_14  and  C_19 
ROOT
HETATM    1  C   UNL     1      -3.331  -0.125 -31.593  1.00  0.00     0.217 C 
HETATM    2  N   UNL     1      -3.980   1.049 -31.881  1.00  0.00    -0.359 N 
HETATM    3  O   UNL     1      -2.255  -0.131 -30.997  1.00  0.00    -0.274 OA
HETATM    4  H   UNL     1      -4.806   0.990 -32.472  1.00  0.00     0.162 HD
ENDROOT
BRANCH   2   5
HETATM    5  C   UNL     1      -3.375   2.373 -31.711  1.00  0.00     0.160 C 
BRANCH   5   6
HETATM    6  C   UNL     1      -3.872   3.498 -32.693  1.00  0.00     0.239 C 
BRANCH   6   7
HETATM    7  N   UNL     1      -5.235   4.055 -32.260  1.00  0.00    -0.069 N 
HETATM    8  H   UNL     1      -5.223   5.046 -32.583  1.00  0.00     0.279 HD
HETATM    9  C   UNL     1      -6.449   3.475 -32.914  1.00  0.00     0.270 C 
HETATM   10  C   UNL     1      -5.401   4.150 -30.774  1.00  0.00     0.270 C 
ENDBRANCH   6   7
BRANCH   6  11
HETATM   11  C   UNL     1      -2.817   4.573 -32.930  1.00  0.00    -0.004 A 
HETATM   12  C   UNL     1      -2.801   5.361 -34.098  1.00  0.00     0.042 A 
HETATM   13 CL   UNL     1      -3.959   5.161 -35.365  1.00  0.00    -0.084 Cl
HETATM   14  C   UNL     1      -1.831   6.352 -34.285  1.00  0.00     0.024 A 
HETATM   15  C   UNL     1      -0.856   6.574 -33.315  1.00  0.00     0.002 A 
HETATM   16  C   UNL     1      -0.847   5.804 -32.158  1.00  0.00     0.001 A 
HETATM   17  C   UNL     1      -1.814   4.814 -31.967  1.00  0.00     0.011 A 
ENDBRANCH   6  11
ENDBRANCH   5   6
ENDBRANCH   2   5
BRANCH   1  18
HETATM   18  C   UNL     1      -4.014  -1.383 -32.066  1.00  0.00     0.107 C 
BRANCH  18  19
HETATM   19  C   UNL     1      -4.024  -1.419 -33.589  1.00  0.00     0.052 C 
BRANCH  19  20
HETATM   20  C   UNL     1      -4.952  -2.457 -34.120  1.00  0.00    -0.008 A 
HETATM   21  C   UNL     1      -6.232  -2.291 -34.615  1.00  0.00     0.032 A 
HETATM   22  C   UNL     1      -7.083  -1.091 -34.788  1.00  0.00     0.070 C 
HETATM   23  N   UNL     1      -6.660  -3.539 -34.974  1.00  0.00    -0.282 N 
HETATM   24  H   UNL     1      -7.550  -3.808 -35.382  1.00  0.00     0.189 HD
HETATM   25  N   UNL     1      -5.761  -4.502 -34.738  1.00  0.00    -0.179 NA
HETATM   26  C   UNL     1      -4.709  -3.857 -34.229  1.00  0.00     0.059 A 
HETATM   27  C   UNL     1      -3.490  -4.613 -33.847  1.00  0.00     0.073 C 
ENDBRANCH  19  20
ENDBRANCH  18  19
ENDBRANCH   1  18
TORSDOF 7
ENDMDL
MODEL 2
REMARK VINA RESULT:      -7.7      0.809      1.843
REMARK  7 active torsions:
REMARK  status: ('A' for Active; 'I' for Inactive)
REMARK    1  A    between atoms: C_8  and  C_9 
REMARK    2  A    between atoms: C_9  and  C_10 
REMARK    3  A    between atoms: C_10  and  C_11 
REMARK       I    between atoms: C_11  and  N_12 
REMARK    4  A    between atoms: N_12  and  C_13 
REMARK    5  A    between atoms: C_13  and  C_14 
REMARK    6  A    between atoms: C_14  and  N_15 
REMARK    7  A    between atoms: C_14  and  C_19 
ROOT
HETATM    1  C   UNL     1      -4.500   0.211 -31.993  1.00  0.00     0.217 C 
HETATM    2  N   UNL     1      -3.434   1.074 -32.018  1.00  0.00    -0.359 N 
HETATM    3  O   UNL     1      -5.645   0.614 -31.800  1.00  0.00    -0.274 OA
HETATM    4  H   UNL     1      -2.504   0.665 -32.069  1.00  0.00     0.162 HD
ENDROOT
BRANCH   2   5
HETATM    5  C   UNL     1      -3.520   2.480 -31.614  1.00  0.00     0.160 C 
BRANCH   5   6
HETATM    6  C   UNL     1      -3.882   3.511 -32.747  1.00  0.00     0.239 C 
BRANCH   6   7
HETATM    7  N   UNL     1      -5.299   4.070 -32.563  1.00  0.00    -0.069 N 
HETATM    8  H   UNL     1      -5.214   5.077 -32.814  1.00  0.00     0.279 HD
HETATM    9  C   UNL     1      -6.362   3.555 -33.481  1.00  0.00     0.270 C 
HETATM   10  C   UNL     1      -5.760   4.079 -31.137  1.00  0.00     0.270 C 
ENDBRANCH   6   7
BRANCH   6  11
HETATM   11  C   UNL     1      -2.816   4.587 -32.919  1.00  0.00    -0.004 A 
HETATM   12  C   UNL     1      -2.743   5.391 -34.074  1.00  0.00     0.042 A 
HETATM   13 CL   UNL     1      -3.841   5.211 -35.397  1.00  0.00    -0.084 Cl
HETATM   14  C   UNL     1      -1.764   6.383 -34.201  1.00  0.00     0.024 A 
HETATM   15  C   UNL     1      -0.836   6.589 -33.183  1.00  0.00     0.002 A 
HETATM   16  C   UNL     1      -0.883   5.804 -32.038  1.00  0.00     0.001 A 
HETATM   17  C   UNL     1      -1.858   4.812 -31.907  1.00  0.00     0.011 A 
ENDBRANCH   6  11
ENDBRANCH   5   6
ENDBRANCH   2   5
BRANCH   1  18
HETATM   18  C   UNL     1      -4.166  -1.245 -32.199  1.00  0.00     0.107 C 
BRANCH  18  19
HETATM   19  C   UNL     1      -4.009  -1.529 -33.688  1.00  0.00     0.052 C 
BRANCH  19  20
HETATM   20  C   UNL     1      -4.920  -2.612 -34.152  1.00  0.00    -0.008 A 
HETATM   21  C   UNL     1      -4.660  -3.967 -34.253  1.00  0.00     0.032 A 
HETATM   22  C   UNL     1      -3.457  -4.774 -33.948  1.00  0.00     0.070 C 
HETATM   23  N   UNL     1      -5.812  -4.534 -34.726  1.00  0.00    -0.282 N 
HETATM   24  H   UNL     1      -5.998  -5.514 -34.921  1.00  0.00     0.189 HD
HETATM   25  N   UNL     1      -6.791  -3.651 -34.952  1.00  0.00    -0.179 NA
HETATM   26  C   UNL     1      -6.268  -2.476 -34.594  1.00  0.00     0.059 A 
HETATM   27  C   UNL     1      -7.082  -1.239 -34.699  1.00  0.00     0.073 C 
ENDBRANCH  19  20
ENDBRANCH  18  19
ENDBRANCH   1  18
TORSDOF 7
ENDMDL
MODEL 3
REMARK VINA RESULT:      -7.6      2.886      7.654
REMARK  7 active torsions:
REMARK  status: ('A' for Active; 'I' for Inactive)
REMARK    1  A    between atoms: C_8  and  C_9 
REMARK    2  A    between atoms: C_9  and  C_10 
REMARK    3  A    between atoms: C_10  and  C_11 
REMARK       I    between atoms: C_11  and  N_12 
REMARK    4  A    between atoms: N_12  and  C_13 
REMARK    5  A    between atoms: C_13  and  C_14 
REMARK    6  A    between atoms: C_14  and  N_15 
REMARK    7  A    between atoms: C_14  and  C_19 
ROOT
HETATM    1  C   UNL     1      -5.124   3.506 -31.838  1.00  0.00     0.217 C 
HETATM    2  N   UNL     1      -4.921   2.554 -32.804  1.00  0.00    -0.359 N 
HETATM    3  O   UNL     1      -6.247   3.739 -31.395  1.00  0.00    -0.274 OA
HETATM    4  H   UNL     1      -3.989   2.489 -33.205  1.00  0.00     0.162 HD
ENDROOT
BRANCH   2   5
HETATM    5  C   UNL     1      -6.008   1.899 -33.537  1.00  0.00     0.160 C 
BRANCH   5   6
HETATM    6  C   UNL     1      -6.601   0.593 -32.886  1.00  0.00     0.239 C 
BRANCH   6   7
HETATM    7  N   UNL     1      -8.130   0.553 -33.008  1.00  0.00    -0.069 N 
HETATM    8  H   UNL     1      -8.331  -0.382 -33.421  1.00  0.00     0.279 HD
HETATM    9  C   UNL     1      -8.918   0.565 -31.736  1.00  0.00     0.270 C 
HETATM   10  C   UNL     1      -8.679   1.528 -34.005  1.00  0.00     0.270 C 
ENDBRANCH   6   7
BRANCH   6  11
HETATM   11  C   UNL     1      -5.912  -0.671 -33.386  1.00  0.00    -0.004 A 
HETATM   12  C   UNL     1      -4.751  -1.184 -32.773  1.00  0.00     0.042 A 
HETATM   13 CL   UNL     1      -4.002  -0.412 -31.421  1.00  0.00    -0.084 Cl
HETATM   14  C   UNL     1      -4.147  -2.356 -33.242  1.00  0.00     0.024 A 
HETATM   15  C   UNL     1      -4.683  -3.036 -34.332  1.00  0.00     0.002 A 
HETATM   16  C   UNL     1      -5.823  -2.546 -34.958  1.00  0.00     0.001 A 
HETATM   17  C   UNL     1      -6.430  -1.377 -34.494  1.00  0.00     0.011 A 
ENDBRANCH   6  11
ENDBRANCH   5   6
ENDBRANCH   2   5
BRANCH   1  18
HETATM   18  C   UNL     1      -3.892   4.243 -31.378  1.00  0.00     0.107 C 
BRANCH  18  19
HETATM   19  C   UNL     1      -2.732   3.942 -32.320  1.00  0.00     0.052 C 
BRANCH  19  20
HETATM   20  C   UNL     1      -2.330   5.136 -33.114  1.00  0.00    -0.008 A 
HETATM   21  C   UNL     1      -2.882   5.609 -34.291  1.00  0.00     0.032 A 
HETATM   22  C   UNL     1      -4.006   5.127 -35.126  1.00  0.00     0.070 C 
HETATM   23  N   UNL     1      -2.164   6.726 -34.619  1.00  0.00    -0.282 N 
HETATM   24  H   UNL     1      -2.286   7.343 -35.417  1.00  0.00     0.189 HD
HETATM   25  N   UNL     1      -1.183   7.006 -33.753  1.00  0.00    -0.179 NA
HETATM   26  C   UNL     1      -1.280   6.053 -32.822  1.00  0.00     0.059 A 
HETATM   27  C   UNL     1      -0.342   6.044 -31.672  1.00  0.00     0.073 C 
ENDBRANCH  19  20
ENDBRANCH  18  19
ENDBRANCH   1  18
TORSDOF 7
ENDMDL
MODEL 4
REMARK VINA RESULT:      -7.6      2.823      7.586
REMARK  7 active torsions:
REMARK  status: ('A' for Active; 'I' for Inactive)
REMARK    1  A    between atoms: C_8  and  C_9 
REMARK    2  A    between atoms: C_9  and  C_10 
REMARK    3  A    between atoms: C_10  and  C_11 
REMARK       I    between atoms: C_11  and  N_12 
REMARK    4  A    between atoms: N_12  and  C_13 
REMARK    5  A    between atoms: C_13  and  C_14 
REMARK    6  A    between atoms: C_14  and  N_15 
REMARK    7  A    between atoms: C_14  and  C_19 
ROOT
HETATM    1  C   UNL     1      -6.071   3.980 -33.140  1.00  0.00     0.217 C 
HETATM    2  N   UNL     1      -5.946   2.861 -33.923  1.00  0.00    -0.359 N 
HETATM    3  O   UNL     1      -6.753   3.972 -32.117  1.00  0.00    -0.274 OA
HETATM    4  H   UNL     1      -5.461   2.966 -34.811  1.00  0.00     0.162 HD
ENDROOT
BRANCH   2   5
HETATM    5  C   UNL     1      -6.758   1.654 -33.746  1.00  0.00     0.160 C 
BRANCH   5   6
HETATM    6  C   UNL     1      -6.167   0.548 -32.794  1.00  0.00     0.239 C 
BRANCH   6   7
HETATM    7  N   UNL     1      -6.980   0.438 -31.496  1.00  0.00    -0.069 N 
HETATM    8  H   UNL     1      -7.080  -0.588 -31.341  1.00  0.00     0.279 HD
HETATM    9  C   UNL     1      -6.334   0.934 -30.241  1.00  0.00     0.270 C 
HETATM   10  C   UNL     1      -8.388   0.934 -31.625  1.00  0.00     0.270 C 
ENDBRANCH   6   7
BRANCH   6  11
HETATM   11  C   UNL     1      -5.961  -0.784 -33.504  1.00  0.00    -0.004 A 
HETATM   12  C   UNL     1      -4.683  -1.358 -33.662  1.00  0.00     0.042 A 
HETATM   13 CL   UNL     1      -3.247  -0.590 -33.085  1.00  0.00    -0.084 Cl
HETATM   14  C   UNL     1      -4.522  -2.591 -34.305  1.00  0.00     0.024 A 
HETATM   15  C   UNL     1      -5.628  -3.272 -34.806  1.00  0.00     0.002 A 
HETATM   16  C   UNL     1      -6.897  -2.723 -34.668  1.00  0.00     0.001 A 
HETATM   17  C   UNL     1      -7.063  -1.493 -34.028  1.00  0.00     0.011 A 
ENDBRANCH   6  11
ENDBRANCH   5   6
ENDBRANCH   2   5
BRANCH   1  18
HETATM   18  C   UNL     1      -5.336   5.204 -33.626  1.00  0.00     0.107 C 
BRANCH  18  19
HETATM   19  C   UNL     1      -3.963   4.803 -34.149  1.00  0.00     0.052 C 
BRANCH  19  20
HETATM   20  C   UNL     1      -2.899   4.970 -33.120  1.00  0.00    -0.008 A 
HETATM   21  C   UNL     1      -2.021   6.026 -32.957  1.00  0.00     0.032 A 
HETATM   22  C   UNL     1      -1.842   7.294 -33.701  1.00  0.00     0.070 C 
HETATM   23  N   UNL     1      -1.247   5.706 -31.876  1.00  0.00    -0.282 N 
HETATM   24  H   UNL     1      -0.497   6.247 -31.455  1.00  0.00     0.189 HD
HETATM   25  N   UNL     1      -1.547   4.519 -31.335  1.00  0.00    -0.179 NA
HETATM   26  C   UNL     1      -2.561   4.064 -32.074  1.00  0.00     0.059 A 
HETATM   27  C   UNL     1      -3.176   2.750 -31.758  1.00  0.00     0.073 C 
ENDBRANCH  19  20
ENDBRANCH  18  19
ENDBRANCH   1  18
TORSDOF 7
ENDMDL
MODEL 5
REMARK VINA RESULT:      -7.6      2.763      8.052
REMARK  7 active torsions:
REMARK  status: ('A' for Active; 'I' for Inactive)
REMARK    1  A    between atoms: C_8  and  C_9 
REMARK    2  A    between atoms: C_9  and  C_10 
REMARK    3  A    between atoms: C_10  and  C_11 
REMARK       I    between atoms: C_11  and  N_12 
REMARK    4  A    between atoms: N_12  and  C_13 
REMARK    5  A    between atoms: C_13  and  C_14 
REMARK    6  A    between atoms: C_14  and  N_15 
REMARK    7  A    between atoms: C_14  and  C_19 
ROOT
HETATM    1  C   UNL     1      -3.772   2.993 -32.196  1.00  0.00     0.217 C 
HETATM    2  N   UNL     1      -5.088   2.903 -32.573  1.00  0.00    -0.359 N 
HETATM    3  O   UNL     1      -2.971   2.096 -32.450  1.00  0.00    -0.274 OA
HETATM    4  H   UNL     1      -5.719   3.625 -32.235  1.00  0.00     0.162 HD
ENDROOT
BRANCH   2   5
HETATM    5  C   UNL     1      -5.697   1.680 -33.101  1.00  0.00     0.160 C 
BRANCH   5   6
HETATM    6  C   UNL     1      -5.458   0.365 -32.268  1.00  0.00     0.239 C 
BRANCH   6   7
HETATM    7  N   UNL     1      -6.434   0.268 -31.087  1.00  0.00    -0.069 N 
HETATM    8  H   UNL     1      -6.611  -0.753 -30.982  1.00  0.00     0.279 HD
HETATM    9  C   UNL     1      -5.925   0.689 -29.744  1.00  0.00     0.270 C 
HETATM   10  C   UNL     1      -7.784   0.852 -31.373  1.00  0.00     0.270 C 
ENDBRANCH   6   7
BRANCH   6  11
HETATM   11  C   UNL     1      -5.428  -0.882 -33.143  1.00  0.00    -0.004 A 
HETATM   12  C   UNL     1      -4.359  -1.800 -33.101  1.00  0.00     0.042 A 
HETATM   13 CL   UNL     1      -2.988  -1.576 -32.074  1.00  0.00    -0.084 Cl
HETATM   14  C   UNL     1      -4.363  -2.946 -33.904  1.00  0.00     0.024 A 
HETATM   15  C   UNL     1      -5.427  -3.198 -34.766  1.00  0.00     0.002 A 
HETATM   16  C   UNL     1      -6.489  -2.304 -34.830  1.00  0.00     0.001 A 
HETATM   17  C   UNL     1      -6.490  -1.159 -34.030  1.00  0.00     0.011 A 
ENDBRANCH   6  11
ENDBRANCH   5   6
ENDBRANCH   2   5
BRANCH   1  18
HETATM   18  C   UNL     1      -3.391   4.245 -31.446  1.00  0.00     0.107 C 
BRANCH  18  19
HETATM   19  C   UNL     1      -1.934   4.589 -31.729  1.00  0.00     0.052 C 
BRANCH  19  20
HETATM   20  C   UNL     1      -1.791   5.904 -32.414  1.00  0.00    -0.008 A 
HETATM   21  C   UNL     1      -1.678   7.160 -31.845  1.00  0.00     0.032 A 
HETATM   22  C   UNL     1      -1.655   7.614 -30.436  1.00  0.00     0.070 C 
HETATM   23  N   UNL     1      -1.570   8.035 -32.890  1.00  0.00    -0.282 N 
HETATM   24  H   UNL     1      -1.465   9.046 -32.858  1.00  0.00     0.189 HD
HETATM   25  N   UNL     1      -1.618   7.446 -34.091  1.00  0.00    -0.179 NA
HETATM   26  C   UNL     1      -1.739   6.145 -33.817  1.00  0.00     0.059 A 
HETATM   27  C   UNL     1      -1.814   5.159 -34.924  1.00  0.00     0.073 C 
ENDBRANCH  19  20
ENDBRANCH  18  19
ENDBRANCH   1  18
TORSDOF 7
ENDMDL
MODEL 6
REMARK VINA RESULT:      -7.6      3.007      4.523
REMARK  7 active torsions:
REMARK  status: ('A' for Active; 'I' for Inactive)
REMARK    1  A    between atoms: C_8  and  C_9 
REMARK    2  A    between atoms: C_9  and  C_10 
REMARK    3  A    between atoms: C_10  and  C_11 
REMARK       I    between atoms: C_11  and  N_12 
REMARK    4  A    between atoms: N_12  and  C_13 
REMARK    5  A    between atoms: C_13  and  C_14 
REMARK    6  A    between atoms: C_14  and  N_15 
REMARK    7  A    between atoms: C_14  and  C_19 
ROOT
HETATM    1  C   UNL     1      -3.899  -0.451 -31.598  1.00  0.00     0.217 C 
HETATM    2  N   UNL     1      -5.106   0.171 -31.796  1.00  0.00    -0.359 N 
HETATM    3  O   UNL     1      -2.983   0.107 -30.999  1.00  0.00    -0.274 OA
HETATM    4  H   UNL     1      -5.780  -0.301 -32.395  1.00  0.00     0.162 HD
ENDROOT
BRANCH   2   5
HETATM    5  C   UNL     1      -5.341   1.590 -31.518  1.00  0.00     0.160 C 
BRANCH   5   6
HETATM    6  C   UNL     1      -6.792   1.978 -31.047  1.00  0.00     0.239 C 
BRANCH   6   7
HETATM    7  N   UNL     1      -6.864   3.449 -30.615  1.00  0.00    -0.069 N 
HETATM    8  H   UNL     1      -6.875   3.980 -31.511  1.00  0.00     0.279 HD
HETATM    9  C   UNL     1      -8.108   3.896 -29.914  1.00  0.00     0.270 C 
HETATM   10  C   UNL     1      -5.632   3.930 -29.911  1.00  0.00     0.270 C 
ENDBRANCH   6   7
BRANCH   6  11
HETATM   11  C   UNL     1      -7.860   1.583 -32.059  1.00  0.00    -0.004 A 
HETATM   12  C   UNL     1      -7.937   2.176 -33.336  1.00  0.00     0.042 A 
HETATM   13 CL   UNL     1      -6.845   3.413 -33.848  1.00  0.00    -0.084 Cl
HETATM   14  C   UNL     1      -8.918   1.784 -34.254  1.00  0.00     0.024 A 
HETATM   15  C   UNL     1      -9.842   0.799 -33.918  1.00  0.00     0.002 A 
HETATM   16  C   UNL     1      -9.791   0.204 -32.663  1.00  0.00     0.001 A 
HETATM   17  C   UNL     1      -8.814   0.592 -31.743  1.00  0.00     0.011 A 
ENDBRANCH   6  11
ENDBRANCH   5   6
ENDBRANCH   2   5
BRANCH   1  18
HETATM   18  C   UNL     1      -3.777  -1.839 -32.174  1.00  0.00     0.107 C 
BRANCH  18  19
HETATM   19  C   UNL     1      -3.965  -1.787 -33.685  1.00  0.00     0.052 C 
BRANCH  19  20
HETATM   20  C   UNL     1      -4.914  -2.828 -34.169  1.00  0.00    -0.008 A 
HETATM   21  C   UNL     1      -6.216  -2.665 -34.605  1.00  0.00     0.032 A 
HETATM   22  C   UNL     1      -7.076  -1.467 -34.741  1.00  0.00     0.070 C 
HETATM   23  N   UNL     1      -6.657  -3.915 -34.942  1.00  0.00    -0.282 N 
HETATM   24  H   UNL     1      -7.565  -4.186 -35.308  1.00  0.00     0.189 HD
HETATM   25  N   UNL     1      -5.746  -4.876 -34.746  1.00  0.00    -0.179 NA
HETATM   26  C   UNL     1      -4.673  -4.227 -34.288  1.00  0.00     0.059 A 
HETATM   27  C   UNL     1      -3.436  -4.980 -33.962  1.00  0.00     0.073 C 
ENDBRANCH  19  20
ENDBRANCH  18  19
ENDBRANCH   1  18
TORSDOF 7
ENDMDL
MODEL 7
REMARK VINA RESULT:      -7.3      4.532      7.741
REMARK  7 active torsions:
REMARK  status: ('A' for Active; 'I' for Inactive)
REMARK    1  A    between atoms: C_8  and  C_9 
REMARK    2  A    between atoms: C_9  and  C_10 
REMARK    3  A    between atoms: C_10  and  C_11 
REMARK       I    between atoms: C_11  and  N_12 
REMARK    4  A    between atoms: N_12  and  C_13 
REMARK    5  A    between atoms: C_13  and  C_14 
REMARK    6  A    between atoms: C_14  and  N_15 
REMARK    7  A    between atoms: C_14  and  C_19 
ROOT
HETATM    1  C   UNL     1      -9.369   2.117 -32.844  1.00  0.00     0.217 C 
HETATM    2  N   UNL     1      -8.270   2.293 -33.646  1.00  0.00    -0.359 N 
HETATM    3  O   UNL     1      -9.718   0.997 -32.475  1.00  0.00    -0.274 OA
HETATM    4  H   UNL     1      -8.103   3.230 -34.006  1.00  0.00     0.162 HD
ENDROOT
BRANCH   2   5
HETATM    5  C   UNL     1      -7.558   1.192 -34.300  1.00  0.00     0.160 C 
BRANCH   5   6
HETATM    6  C   UNL     1      -6.283   0.646 -33.556  1.00  0.00     0.239 C 
BRANCH   6   7
HETATM    7  N   UNL     1      -6.368   0.898 -32.044  1.00  0.00    -0.069 N 
HETATM    8  H   UNL     1      -7.294   1.356 -31.911  1.00  0.00     0.279 HD
HETATM    9  C   UNL     1      -6.423  -0.302 -31.152  1.00  0.00     0.270 C 
HETATM   10  C   UNL     1      -5.379   1.909 -31.547  1.00  0.00     0.270 C 
ENDBRANCH   6   7
BRANCH   6  11
HETATM   11  C   UNL     1      -5.970  -0.800 -33.919  1.00  0.00    -0.004 A 
HETATM   12  C   UNL     1      -4.669  -1.333 -33.817  1.00  0.00     0.042 A 
HETATM   13 CL   UNL     1      -3.321  -0.388 -33.293  1.00  0.00    -0.084 Cl
HETATM   14  C   UNL     1      -4.410  -2.669 -34.142  1.00  0.00     0.024 A 
HETATM   15  C   UNL     1      -5.439  -3.499 -34.580  1.00  0.00     0.002 A 
HETATM   16  C   UNL     1      -6.729  -2.994 -34.697  1.00  0.00     0.001 A 
HETATM   17  C   UNL     1      -6.993  -1.661 -34.373  1.00  0.00     0.011 A 
ENDBRANCH   6  11
ENDBRANCH   5   6
ENDBRANCH   2   5
BRANCH   1  18
HETATM   18  C   UNL     1     -10.113   3.373 -32.468  1.00  0.00     0.107 C 
BRANCH  18  19
HETATM   19  C   UNL     1     -11.603   3.184 -32.726  1.00  0.00     0.052 C 
BRANCH  19  20
HETATM   20  C   UNL     1     -11.895   2.918 -34.162  1.00  0.00    -0.008 A 
HETATM   21  C   UNL     1     -11.640   3.730 -35.253  1.00  0.00     0.032 A 
HETATM   22  C   UNL     1     -11.018   5.068 -35.373  1.00  0.00     0.070 C 
HETATM   23  N   UNL     1     -12.091   3.040 -36.345  1.00  0.00    -0.282 N 
HETATM   24  H   UNL     1     -12.066   3.319 -37.322  1.00  0.00     0.189 HD
HETATM   25  N   UNL     1     -12.629   1.852 -36.044  1.00  0.00    -0.179 NA
HETATM   26  C   UNL     1     -12.505   1.757 -34.718  1.00  0.00     0.059 A 
HETATM   27  C   UNL     1     -12.992   0.545 -34.014  1.00  0.00     0.073 C 
ENDBRANCH  19  20
ENDBRANCH  18  19
ENDBRANCH   1  18
TORSDOF 7
ENDMDL
MODEL 8
REMARK VINA RESULT:      -7.3      2.351      3.486
REMARK  7 active torsions:
REMARK  status: ('A' for Active; 'I' for Inactive)
REMARK    1  A    between atoms: C_8  and  C_9 
REMARK    2  A    between atoms: C_9  and  C_10 
REMARK    3  A    between atoms: C_10  and  C_11 
REMARK       I    between atoms: C_11  and  N_12 
REMARK    4  A    between atoms: N_12  and  C_13 
REMARK    5  A    between atoms: C_13  and  C_14 
REMARK    6  A    between atoms: C_14  and  N_15 
REMARK    7  A    between atoms: C_14  and  C_19 
ROOT
HETATM    1  C   UNL     1      -7.882   0.845 -34.626  1.00  0.00     0.217 C 
HETATM    2  N   UNL     1      -6.944   1.822 -34.408  1.00  0.00    -0.359 N 
HETATM    3  O   UNL     1      -9.066   1.021 -34.341  1.00  0.00    -0.274 OA
HETATM    4  H   UNL     1      -5.969   1.573 -34.561  1.00  0.00     0.162 HD
ENDROOT
BRANCH   2   5
HETATM    5  C   UNL     1      -7.207   3.041 -33.639  1.00  0.00     0.160 C 
BRANCH   5   6
HETATM    6  C   UNL     1      -6.247   4.259 -33.912  1.00  0.00     0.239 C 
BRANCH   6   7
HETATM    7  N   UNL     1      -6.949   5.596 -33.639  1.00  0.00    -0.069 N 
HETATM    8  H   UNL     1      -6.740   6.173 -34.480  1.00  0.00     0.279 HD
HETATM    9  C   UNL     1      -8.444   5.581 -33.569  1.00  0.00     0.270 C 
HETATM   10  C   UNL     1      -6.352   6.367 -32.501  1.00  0.00     0.270 C 
ENDBRANCH   6   7
BRANCH   6  11
HETATM   11  C   UNL     1      -4.905   4.114 -33.203  1.00  0.00    -0.004 A 
HETATM   12  C   UNL     1      -3.711   4.624 -33.750  1.00  0.00     0.042 A 
HETATM   13 CL   UNL     1      -3.664   5.434 -35.276  1.00  0.00    -0.084 Cl
HETATM   14  C   UNL     1      -2.494   4.492 -33.072  1.00  0.00     0.024 A 
HETATM   15  C   UNL     1      -2.442   3.847 -31.839  1.00  0.00     0.002 A 
HETATM   16  C   UNL     1      -3.606   3.329 -31.282  1.00  0.00     0.001 A 
HETATM   17  C   UNL     1      -4.823   3.458 -31.956  1.00  0.00     0.011 A 
ENDBRANCH   6  11
ENDBRANCH   5   6
ENDBRANCH   2   5
BRANCH   1  18
HETATM   18  C   UNL     1      -7.363  -0.441 -35.216  1.00  0.00     0.107 C 
BRANCH  18  19
HETATM   19  C   UNL     1      -7.301  -1.513 -34.136  1.00  0.00     0.052 C 
BRANCH  19  20
HETATM   20  C   UNL     1      -5.998  -2.234 -34.133  1.00  0.00    -0.008 A 
HETATM   21  C   UNL     1      -5.715  -3.496 -34.624  1.00  0.00     0.032 A 
HETATM   22  C   UNL     1      -6.556  -4.515 -35.292  1.00  0.00     0.070 C 
HETATM   23  N   UNL     1      -4.383  -3.699 -34.386  1.00  0.00    -0.282 N 
HETATM   24  H   UNL     1      -3.818  -4.512 -34.615  1.00  0.00     0.189 HD
HETATM   25  N   UNL     1      -3.786  -2.673 -33.768  1.00  0.00    -0.179 NA
HETATM   26  C   UNL     1      -4.754  -1.767 -33.618  1.00  0.00     0.059 A 
HETATM   27  C   UNL     1      -4.458  -0.466 -32.967  1.00  0.00     0.073 C 
ENDBRANCH  19  20
ENDBRANCH  18  19
ENDBRANCH   1  18
TORSDOF 7
ENDMDL
MODEL 9
REMARK VINA RESULT:      -7.3      2.919      7.834
REMARK  7 active torsions:
REMARK  status: ('A' for Active; 'I' for Inactive)
REMARK    1  A    between atoms: C_8  and  C_9 
REMARK    2  A    between atoms: C_9  and  C_10 
REMARK    3  A    between atoms: C_10  and  C_11 
REMARK       I    between atoms: C_11  and  N_12 
REMARK    4  A    between atoms: N_12  and  C_13 
REMARK    5  A    between atoms: C_13  and  C_14 
REMARK    6  A    between atoms: C_14  and  N_15 
REMARK    7  A    between atoms: C_14  and  C_19 
ROOT
HETATM    1  C   UNL     1      -3.562   3.000 -31.482  1.00  0.00     0.217 C 
HETATM    2  N   UNL     1      -4.680   2.561 -30.821  1.00  0.00    -0.359 N 
HETATM    3  O   UNL     1      -3.015   2.311 -32.341  1.00  0.00    -0.274 OA
HETATM    4  H   UNL     1      -5.016   3.129 -30.047  1.00  0.00     0.162 HD
ENDROOT
BRANCH   2   5
HETATM    5  C   UNL     1      -5.188   1.189 -30.909  1.00  0.00     0.160 C 
BRANCH   5   6
HETATM    6  C   UNL     1      -6.375   0.947 -31.914  1.00  0.00     0.239 C 
BRANCH   6   7
HETATM    7  N   UNL     1      -6.744   2.235 -32.663  1.00  0.00    -0.069 N 
HETATM    8  H   UNL     1      -6.105   2.956 -32.265  1.00  0.00     0.279 HD
HETATM    9  C   UNL     1      -6.467   2.274 -34.132  1.00  0.00     0.270 C 
HETATM   10  C   UNL     1      -8.118   2.741 -32.347  1.00  0.00     0.270 C 
ENDBRANCH   6   7
BRANCH   6  11
HETATM   11  C   UNL     1      -6.130  -0.246 -32.829  1.00  0.00    -0.004 A 
HETATM   12  C   UNL     1      -7.183  -0.917 -33.483  1.00  0.00     0.042 A 
HETATM   13 CL   UNL     1      -8.837  -0.456 -33.285  1.00  0.00    -0.084 Cl
HETATM   14  C   UNL     1      -6.930  -2.000 -34.332  1.00  0.00     0.024 A 
HETATM   15  C   UNL     1      -5.626  -2.440 -34.541  1.00  0.00     0.002 A 
HETATM   16  C   UNL     1      -4.571  -1.800 -33.902  1.00  0.00     0.001 A 
HETATM   17  C   UNL     1      -4.818  -0.718 -33.054  1.00  0.00     0.011 A 
ENDBRANCH   6  11
ENDBRANCH   5   6
ENDBRANCH   2   5
BRANCH   1  18
HETATM   18  C   UNL     1      -3.053   4.359 -31.075  1.00  0.00     0.107 C 
BRANCH  18  19
HETATM   19  C   UNL     1      -1.693   4.612 -31.715  1.00  0.00     0.052 C 
BRANCH  19  20
HETATM   20  C   UNL     1      -1.645   5.915 -32.435  1.00  0.00    -0.008 A 
HETATM   21  C   UNL     1      -1.536   7.186 -31.900  1.00  0.00     0.032 A 
HETATM   22  C   UNL     1      -1.429   7.672 -30.506  1.00  0.00     0.070 C 
HETATM   23  N   UNL     1      -1.533   8.041 -32.967  1.00  0.00    -0.282 N 
HETATM   24  H   UNL     1      -1.460   9.055 -32.963  1.00  0.00     0.189 HD
HETATM   25  N   UNL     1      -1.644   7.424 -34.150  1.00  0.00    -0.179 NA
HETATM   26  C   UNL     1      -1.700   6.126 -33.843  1.00  0.00     0.059 A 
HETATM   27  C   UNL     1      -1.819   5.114 -34.922  1.00  0.00     0.073 C 
ENDBRANCH  19  20
ENDBRANCH  18  19
ENDBRANCH   1  18
TORSDOF 7
ENDMDL
MODEL 10
REMARK VINA RESULT:      -7.2      5.129      7.752
REMARK  7 active torsions:
REMARK  status: ('A' for Active; 'I' for Inactive)
REMARK    1  A    between atoms: C_8  and  C_9 
REMARK    2  A    between atoms: C_9  and  C_10 
REMARK    3  A    between atoms: C_10  and  C_11 
REMARK       I    between atoms: C_11  and  N_12 
REMARK    4  A    between atoms: N_12  and  C_13 
REMARK    5  A    between atoms: C_13  and  C_14 
REMARK    6  A    between atoms: C_14  and  N_15 
REMARK    7  A    between atoms: C_14  and  C_19 
ROOT
HETATM    1  C   UNL     1      -9.536   1.212 -32.811  1.00  0.00     0.217 C 
HETATM    2  N   UNL     1      -8.314   1.536 -32.278  1.00  0.00    -0.359 N 
HETATM    3  O   UNL     1      -9.924   0.047 -32.859  1.00  0.00    -0.274 OA
HETATM    4  H   UNL     1      -8.007   2.501 -32.369  1.00  0.00     0.162 HD
ENDROOT
BRANCH   2   5
HETATM    5  C   UNL     1      -7.294   0.543 -31.928  1.00  0.00     0.160 C 
BRANCH   5   6
HETATM    6  C   UNL     1      -5.927   0.645 -32.702  1.00  0.00     0.239 C 
BRANCH   6   7
HETATM    7  N   UNL     1      -4.851   1.329 -31.847  1.00  0.00    -0.069 N 
HETATM    8  H   UNL     1      -4.073   0.637 -31.810  1.00  0.00     0.279 HD
HETATM    9  C   UNL     1      -4.214   2.562 -32.406  1.00  0.00     0.270 C 
HETATM   10  C   UNL     1      -5.251   1.517 -30.415  1.00  0.00     0.270 C 
ENDBRANCH   6   7
BRANCH   6  11
HETATM   11  C   UNL     1      -5.487  -0.691 -33.288  1.00  0.00    -0.004 A 
HETATM   12  C   UNL     1      -6.113  -1.256 -34.417  1.00  0.00     0.042 A 
HETATM   13 CL   UNL     1      -7.442  -0.493 -35.216  1.00  0.00    -0.084 Cl
HETATM   14  C   UNL     1      -5.680  -2.477 -34.945  1.00  0.00     0.024 A 
HETATM   15  C   UNL     1      -4.620  -3.161 -34.357  1.00  0.00     0.002 A 
HETATM   16  C   UNL     1      -3.991  -2.628 -33.238  1.00  0.00     0.001 A 
HETATM   17  C   UNL     1      -4.419  -1.409 -32.707  1.00  0.00     0.011 A 
ENDBRANCH   6  11
ENDBRANCH   5   6
ENDBRANCH   2   5
BRANCH   1  18
HETATM   18  C   UNL     1     -10.346   2.369 -33.337  1.00  0.00     0.107 C 
BRANCH  18  19
HETATM   19  C   UNL     1     -11.378   1.861 -34.336  1.00  0.00     0.052 C 
BRANCH  19  20
HETATM   20  C   UNL     1     -12.769   1.981 -33.817  1.00  0.00    -0.008 A 
HETATM   21  C   UNL     1     -13.482   3.132 -33.535  1.00  0.00     0.032 A 
HETATM   22  C   UNL     1     -13.139   4.568 -33.648  1.00  0.00     0.070 C 
HETATM   23  N   UNL     1     -14.705   2.714 -33.087  1.00  0.00    -0.282 N 
HETATM   24  H   UNL     1     -15.496   3.279 -32.792  1.00  0.00     0.189 HD
HETATM   25  N   UNL     1     -14.834   1.382 -33.045  1.00  0.00    -0.179 NA
HETATM   26  C   UNL     1     -13.666   0.921 -33.499  1.00  0.00     0.059 A 
HETATM   27  C   UNL     1     -13.439  -0.541 -33.606  1.00  0.00     0.073 C 
ENDBRANCH  19  20
ENDBRANCH  18  19
ENDBRANCH   1  18
TORSDOF 7
ENDMDL
