MODEL 1
REMARK VINA RESULT:      -8.9      0.000      0.000
REMARK  7 active torsions:
REMARK  status: ('A' for Active; 'I' for Inactive)
REMARK    1  A    between atoms: C_7  and  C_8 
REMARK    2  A    between atoms: C_8  and  N_9 
REMARK    3  A    between atoms: C_13  and  C_14 
REMARK    4  A    between atoms: C_14  and  C_15 
REMARK    5  A    between atoms: C_15  and  C_16 
REMARK    6  A    between atoms: N_26  and  C_27 
REMARK    7  A    between atoms: C_27  and  C_28 
ROOT
HETATM    1  C   UNL     1      -6.794   0.174 -32.953  1.00  0.00     0.123 C 
HETATM    2  N   UNL     1      -6.353  -0.295 -31.649  1.00  0.00    -0.324 N 
HETATM    3  C   UNL     1      -5.498   0.578 -31.016  1.00  0.00     0.326 C 
HETATM    4  O   UNL     1      -4.890   0.316 -29.996  1.00  0.00    -0.247 OA
HETATM    5  N   UNL     1      -5.501   1.745 -31.706  1.00  0.00    -0.268 N 
HETATM    6  C   UNL     1      -6.309   1.637 -32.794  1.00  0.00     0.257 C 
HETATM    7  O   UNL     1      -6.602   2.553 -33.551  1.00  0.00    -0.270 OA
HETATM    8  H   UNL     1      -6.326  -1.272 -31.369  1.00  0.00     0.165 HD
ENDROOT
BRANCH   1   9
HETATM    9  C   UNL     1      -8.340  -0.003 -33.110  1.00  0.00     0.027 C 
HETATM   10  C   UNL     1      -9.007   0.616 -34.347  1.00  0.00     0.035 C 
HETATM   11  C   UNL     1      -9.319   2.106 -34.284  1.00  0.00     0.235 C 
HETATM   12  N   UNL     1      -9.891   2.555 -32.961  1.00  0.00    -0.067 N 
HETATM   13  H   UNL     1     -10.900   2.367 -33.005  1.00  0.00     0.280 HD
HETATM   14  C   UNL     1      -9.361   1.894 -31.717  1.00  0.00     0.235 C 
HETATM   15  C   UNL     1      -9.186   0.398 -31.888  1.00  0.00     0.035 C 
BRANCH  12  16
HETATM   16  C   UNL     1      -9.761   4.068 -32.793  1.00  0.00     0.277 C 
BRANCH  16  17
HETATM   17  C   UNL     1     -10.396   4.877 -33.859  1.00  0.00     0.011 A 
HETATM   18  C   UNL     1     -11.736   4.975 -34.211  1.00  0.00     0.035 A 
HETATM   19  C   UNL     1     -12.945   4.325 -33.640  1.00  0.00     0.070 C 
HETATM   20  N   UNL     1     -11.789   5.921 -35.211  1.00  0.00    -0.278 N 
HETATM   21  C   UNL     1     -12.949   6.494 -35.856  1.00  0.00     0.179 C 
HETATM   22  N   UNL     1     -10.577   6.394 -35.548  1.00  0.00    -0.185 NA
HETATM   23  C   UNL     1      -9.743   5.801 -34.704  1.00  0.00     0.149 A 
ENDBRANCH  16  17
ENDBRANCH  12  16
ENDBRANCH   1   9
BRANCH   1  24
HETATM   24  C   UNL     1      -5.904  -0.421 -34.089  1.00  0.00     0.082 C 
BRANCH  24  25
HETATM   25  C   UNL     1      -5.559  -1.901 -34.136  1.00  0.00    -0.034 A 
HETATM   26  C   UNL     1      -4.387  -2.482 -33.622  1.00  0.00     0.040 A 
HETATM   27 CL   UNL     1      -3.176  -1.583 -32.794  1.00  0.00    -0.084 Cl
HETATM   28  C   UNL     1      -4.123  -3.847 -33.803  1.00  0.00     0.024 A 
HETATM   29  C   UNL     1      -5.004  -4.653 -34.521  1.00  0.00     0.002 A 
HETATM   30  C   UNL     1      -6.157  -4.096 -35.059  1.00  0.00     0.001 A 
HETATM   31  C   UNL     1      -6.429  -2.739 -34.870  1.00  0.00     0.009 A 
ENDBRANCH  24  25
ENDBRANCH   1  24
BRANCH   5  32
HETATM   32  C   UNL     1      -4.767   2.932 -31.324  1.00  0.00     0.141 C 
BRANCH  32  33
HETATM   33  C   UNL     1      -3.414   2.931 -31.968  1.00  0.00     0.004 A 
HETATM   34  C   UNL     1      -3.035   3.961 -33.005  1.00  0.00     0.007 A 
HETATM   35  C   UNL     1      -2.415   4.012 -31.636  1.00  0.00     0.007 A 
ENDBRANCH  32  33
ENDBRANCH   5  32
TORSDOF 7
ENDMDL
MODEL 2
REMARK VINA RESULT:      -8.7      2.188      2.775
REMARK  7 active torsions:
REMARK  status: ('A' for Active; 'I' for Inactive)
REMARK    1  A    between atoms: C_7  and  C_8 
REMARK    2  A    between atoms: C_8  and  N_9 
REMARK    3  A    between atoms: C_13  and  C_14 
REMARK    4  A    between atoms: C_14  and  C_15 
REMARK    5  A    between atoms: C_15  and  C_16 
REMARK    6  A    between atoms: N_26  and  C_27 
REMARK    7  A    between atoms: C_27  and  C_28 
ROOT
HETATM    1  C   UNL     1      -5.661   0.536 -32.596  1.00  0.00     0.123 C 
HETATM    2  N   UNL     1      -5.099   1.052 -31.358  1.00  0.00    -0.324 N 
HETATM    3  C   UNL     1      -4.772   2.387 -31.423  1.00  0.00     0.326 C 
HETATM    4  O   UNL     1      -4.148   2.977 -30.562  1.00  0.00    -0.247 OA
HETATM    5  N   UNL     1      -5.293   2.893 -32.567  1.00  0.00    -0.268 N 
HETATM    6  C   UNL     1      -5.918   1.909 -33.265  1.00  0.00     0.257 C 
HETATM    7  O   UNL     1      -6.577   2.074 -34.284  1.00  0.00    -0.270 OA
HETATM    8  H   UNL     1      -4.631   0.481 -30.658  1.00  0.00     0.165 HD
ENDROOT
BRANCH   1   9
HETATM    9  C   UNL     1      -6.941  -0.316 -32.309  1.00  0.00     0.027 C 
HETATM   10  C   UNL     1      -7.772  -0.784 -33.513  1.00  0.00     0.035 C 
HETATM   11  C   UNL     1      -8.742   0.226 -34.110  1.00  0.00     0.235 C 
HETATM   12  N   UNL     1      -9.508   1.022 -33.080  1.00  0.00    -0.067 N 
HETATM   13  H   UNL     1     -10.311   0.443 -32.807  1.00  0.00     0.280 HD
HETATM   14  C   UNL     1      -8.779   1.406 -31.819  1.00  0.00     0.235 C 
HETATM   15  C   UNL     1      -7.923   0.276 -31.281  1.00  0.00     0.035 C 
BRANCH  12  16
HETATM   16  C   UNL     1     -10.102   2.288 -33.695  1.00  0.00     0.277 C 
BRANCH  16  17
HETATM   17  C   UNL     1     -11.464   2.635 -33.228  1.00  0.00     0.011 A 
HETATM   18  C   UNL     1     -12.666   1.977 -33.451  1.00  0.00     0.035 A 
HETATM   19  C   UNL     1     -12.972   0.734 -34.206  1.00  0.00     0.070 C 
HETATM   20  N   UNL     1     -13.610   2.672 -32.728  1.00  0.00    -0.278 N 
HETATM   21  C   UNL     1     -15.004   2.352 -32.512  1.00  0.00     0.179 C 
HETATM   22  N   UNL     1     -13.101   3.747 -32.102  1.00  0.00    -0.185 NA
HETATM   23  C   UNL     1     -11.802   3.699 -32.364  1.00  0.00     0.149 A 
ENDBRANCH  16  17
ENDBRANCH  12  16
ENDBRANCH   1   9
BRANCH   1  24
HETATM   24  C   UNL     1      -4.557  -0.136 -33.471  1.00  0.00     0.082 C 
BRANCH  24  25
HETATM   25  C   UNL     1      -4.118  -1.572 -33.234  1.00  0.00    -0.034 A 
HETATM   26  C   UNL     1      -4.505  -2.681 -34.005  1.00  0.00     0.040 A 
HETATM   27 CL   UNL     1      -5.508  -2.554 -35.399  1.00  0.00    -0.084 Cl
HETATM   28  C   UNL     1      -4.119  -3.979 -33.642  1.00  0.00     0.024 A 
HETATM   29  C   UNL     1      -3.365  -4.200 -32.492  1.00  0.00     0.002 A 
HETATM   30  C   UNL     1      -2.991  -3.123 -31.701  1.00  0.00     0.001 A 
HETATM   31  C   UNL     1      -3.364  -1.827 -32.066  1.00  0.00     0.009 A 
ENDBRANCH  24  25
ENDBRANCH   1  24
BRANCH   5  32
HETATM   32  C   UNL     1      -5.209   4.281 -32.969  1.00  0.00     0.141 C 
BRANCH  32  33
HETATM   33  C   UNL     1      -3.895   4.544 -33.641  1.00  0.00     0.004 A 
HETATM   34  C   UNL     1      -3.823   5.205 -34.996  1.00  0.00     0.007 A 
HETATM   35  C   UNL     1      -3.380   5.955 -33.771  1.00  0.00     0.007 A 
ENDBRANCH  32  33
ENDBRANCH   5  32
TORSDOF 7
ENDMDL
MODEL 3
REMARK VINA RESULT:      -8.7      2.273      2.880
REMARK  7 active torsions:
REMARK  status: ('A' for Active; 'I' for Inactive)
REMARK    1  A    between atoms: C_7  and  C_8 
REMARK    2  A    between atoms: C_8  and  N_9 
REMARK    3  A    between atoms: C_13  and  C_14 
REMARK    4  A    between atoms: C_14  and  C_15 
REMARK    5  A    between atoms: C_15  and  C_16 
REMARK    6  A    between atoms: N_26  and  C_27 
REMARK    7  A    between atoms: C_27  and  C_28 
ROOT
HETATM    1  C   UNL     1      -6.773   0.786 -33.187  1.00  0.00     0.123 C 
HETATM    2  N   UNL     1      -5.595   1.081 -32.387  1.00  0.00    -0.324 N 
HETATM    3  C   UNL     1      -5.063   2.325 -32.637  1.00  0.00     0.326 C 
HETATM    4  O   UNL     1      -3.996   2.709 -32.199  1.00  0.00    -0.247 OA
HETATM    5  N   UNL     1      -5.945   3.014 -33.402  1.00  0.00    -0.268 N 
HETATM    6  C   UNL     1      -7.020   2.231 -33.687  1.00  0.00     0.257 C 
HETATM    7  O   UNL     1      -8.032   2.604 -34.266  1.00  0.00    -0.270 OA
HETATM    8  H   UNL     1      -4.983   0.374 -31.984  1.00  0.00     0.165 HD
ENDROOT
BRANCH   1   9
HETATM    9  C   UNL     1      -7.910   0.184 -32.297  1.00  0.00     0.027 C 
HETATM   10  C   UNL     1      -9.155  -0.368 -33.006  1.00  0.00     0.035 C 
HETATM   11  C   UNL     1     -10.208   0.647 -33.430  1.00  0.00     0.235 C 
HETATM   12  N   UNL     1     -10.486   1.711 -32.394  1.00  0.00    -0.067 N 
HETATM   13  H   UNL     1     -11.168   1.306 -31.742  1.00  0.00     0.280 HD
HETATM   14  C   UNL     1      -9.319   2.205 -31.580  1.00  0.00     0.235 C 
HETATM   15  C   UNL     1      -8.401   1.080 -31.145  1.00  0.00     0.035 C 
BRANCH  12  16
HETATM   16  C   UNL     1     -11.180   2.919 -33.021  1.00  0.00     0.277 C 
BRANCH  16  17
HETATM   17  C   UNL     1     -12.606   3.084 -32.656  1.00  0.00     0.011 A 
HETATM   18  C   UNL     1     -13.702   2.308 -33.009  1.00  0.00     0.035 A 
HETATM   19  C   UNL     1     -13.800   1.081 -33.843  1.00  0.00     0.070 C 
HETATM   20  N   UNL     1     -14.775   2.851 -32.338  1.00  0.00    -0.278 N 
HETATM   21  C   UNL     1     -16.134   2.365 -32.256  1.00  0.00     0.179 C 
HETATM   22  N   UNL     1     -14.446   3.941 -31.623  1.00  0.00    -0.185 NA
HETATM   23  C   UNL     1     -13.133   4.054 -31.776  1.00  0.00     0.149 A 
ENDBRANCH  16  17
ENDBRANCH  12  16
ENDBRANCH   1   9
BRANCH   1  24
HETATM   24  C   UNL     1      -6.389  -0.020 -34.468  1.00  0.00     0.082 C 
BRANCH  24  25
HETATM   25  C   UNL     1      -5.948  -1.473 -34.391  1.00  0.00    -0.034 A 
HETATM   26  C   UNL     1      -4.666  -1.918 -34.024  1.00  0.00     0.040 A 
HETATM   27 CL   UNL     1      -3.403  -0.852 -33.541  1.00  0.00    -0.084 Cl
HETATM   28  C   UNL     1      -4.336  -3.279 -34.078  1.00  0.00     0.024 A 
HETATM   29  C   UNL     1      -5.263  -4.218 -34.522  1.00  0.00     0.002 A 
HETATM   30  C   UNL     1      -6.527  -3.801 -34.913  1.00  0.00     0.001 A 
HETATM   31  C   UNL     1      -6.865  -2.446 -34.849  1.00  0.00     0.009 A 
ENDBRANCH  24  25
ENDBRANCH   1  24
BRANCH   5  32
HETATM   32  C   UNL     1      -5.771   4.384 -33.831  1.00  0.00     0.141 C 
BRANCH  32  33
HETATM   33  C   UNL     1      -5.899   5.311 -32.660  1.00  0.00     0.004 A 
HETATM   34  C   UNL     1      -6.805   6.517 -32.706  1.00  0.00     0.007 A 
HETATM   35  C   UNL     1      -7.172   5.337 -31.851  1.00  0.00     0.007 A 
ENDBRANCH  32  33
ENDBRANCH   5  32
TORSDOF 7
ENDMDL
MODEL 4
REMARK VINA RESULT:      -8.6      2.231      2.825
REMARK  7 active torsions:
REMARK  status: ('A' for Active; 'I' for Inactive)
REMARK    1  A    between atoms: C_7  and  C_8 
REMARK    2  A    between atoms: C_8  and  N_9 
REMARK    3  A    between atoms: C_13  and  C_14 
REMARK    4  A    between atoms: C_14  and  C_15 
REMARK    5  A    between atoms: C_15  and  C_16 
REMARK    6  A    between atoms: N_26  and  C_27 
REMARK    7  A    between atoms: C_27  and  C_28 
ROOT
HETATM    1  C   UNL     1      -6.286  -0.065 -32.637  1.00  0.00     0.123 C 
HETATM    2  N   UNL     1      -6.296  -0.487 -31.246  1.00  0.00    -0.324 N 
HETATM    3  C   UNL     1      -5.977   0.523 -30.367  1.00  0.00     0.326 C 
HETATM    4  O   UNL     1      -5.774   0.353 -29.181  1.00  0.00    -0.247 OA
HETATM    5  N   UNL     1      -5.973   1.692 -31.053  1.00  0.00    -0.268 N 
HETATM    6  C   UNL     1      -6.245   1.459 -32.365  1.00  0.00     0.257 C 
HETATM    7  O   UNL     1      -6.417   2.323 -33.215  1.00  0.00    -0.270 OA
HETATM    8  H   UNL     1      -6.161  -1.447 -30.935  1.00  0.00     0.165 HD
ENDROOT
BRANCH   1   9
HETATM    9  C   UNL     1      -7.565  -0.576 -33.379  1.00  0.00     0.027 C 
HETATM   10  C   UNL     1      -7.848  -0.017 -34.781  1.00  0.00     0.035 C 
HETATM   11  C   UNL     1      -8.517   1.350 -34.851  1.00  0.00     0.235 C 
HETATM   12  N   UNL     1      -9.637   1.535 -33.854  1.00  0.00    -0.067 N 
HETATM   13  H   UNL     1     -10.475   1.125 -34.283  1.00  0.00     0.280 HD
HETATM   14  C   UNL     1      -9.468   0.902 -32.498  1.00  0.00     0.235 C 
HETATM   15  C   UNL     1      -8.879  -0.493 -32.581  1.00  0.00     0.035 C 
BRANCH  12  16
HETATM   16  C   UNL     1      -9.956   3.016 -33.656  1.00  0.00     0.277 C 
BRANCH  16  17
HETATM   17  C   UNL     1     -11.224   3.296 -32.945  1.00  0.00     0.011 A 
HETATM   18  C   UNL     1     -12.520   2.913 -33.269  1.00  0.00     0.035 A 
HETATM   19  C   UNL     1     -13.044   2.108 -34.404  1.00  0.00     0.070 C 
HETATM   20  N   UNL     1     -13.311   3.365 -32.237  1.00  0.00    -0.278 N 
HETATM   21  C   UNL     1     -14.720   3.138 -32.008  1.00  0.00     0.179 C 
HETATM   22  N   UNL     1     -12.618   4.045 -31.307  1.00  0.00    -0.185 NA
HETATM   23  C   UNL     1     -11.356   3.964 -31.708  1.00  0.00     0.149 A 
ENDBRANCH  16  17
ENDBRANCH  12  16
ENDBRANCH   1   9
BRANCH   1  24
HETATM   24  C   UNL     1      -4.913  -0.389 -33.307  1.00  0.00     0.082 C 
BRANCH  24  25
HETATM   25  C   UNL     1      -4.287  -1.771 -33.209  1.00  0.00    -0.034 A 
HETATM   26  C   UNL     1      -4.548  -2.848 -34.072  1.00  0.00     0.040 A 
HETATM   27 CL   UNL     1      -5.597  -2.730 -35.433  1.00  0.00    -0.084 Cl
HETATM   28  C   UNL     1      -3.988  -4.111 -33.835  1.00  0.00     0.024 A 
HETATM   29  C   UNL     1      -3.181  -4.333 -32.722  1.00  0.00     0.002 A 
HETATM   30  C   UNL     1      -2.928  -3.291 -31.841  1.00  0.00     0.001 A 
HETATM   31  C   UNL     1      -3.475  -2.027 -32.081  1.00  0.00     0.009 A 
ENDBRANCH  24  25
ENDBRANCH   1  24
BRANCH   5  32
HETATM   32  C   UNL     1      -5.735   2.993 -30.466  1.00  0.00     0.141 C 
BRANCH  32  33
HETATM   33  C   UNL     1      -7.013   3.550 -29.914  1.00  0.00     0.004 A 
HETATM   34  C   UNL     1      -7.059   4.907 -29.254  1.00  0.00     0.007 A 
HETATM   35  C   UNL     1      -7.695   4.706 -30.602  1.00  0.00     0.007 A 
ENDBRANCH  32  33
ENDBRANCH   5  32
TORSDOF 7
ENDMDL
MODEL 5
REMARK VINA RESULT:      -8.6      2.313      6.041
REMARK  7 active torsions:
REMARK  status: ('A' for Active; 'I' for Inactive)
REMARK    1  A    between atoms: C_7  and  C_8 
REMARK    2  A    between atoms: C_8  and  N_9 
REMARK    3  A    between atoms: C_13  and  C_14 
REMARK    4  A    between atoms: C_14  and  C_15 
REMARK    5  A    between atoms: C_15  and  C_16 
REMARK    6  A    between atoms: N_26  and  C_27 
REMARK    7  A    between atoms: C_27  and  C_28 
ROOT
HETATM    1  C   UNL     1      -6.765   1.402 -32.753  1.00  0.00     0.123 C 
HETATM    2  N   UNL     1      -6.956   2.827 -32.969  1.00  0.00    -0.324 N 
HETATM    3  C   UNL     1      -8.260   3.166 -33.250  1.00  0.00     0.326 C 
HETATM    4  O   UNL     1      -8.611   4.271 -33.616  1.00  0.00    -0.247 OA
HETATM    5  N   UNL     1      -9.038   2.083 -33.008  1.00  0.00    -0.268 N 
HETATM    6  C   UNL     1      -8.264   1.037 -32.615  1.00  0.00     0.257 C 
HETATM    7  O   UNL     1      -8.684  -0.044 -32.223  1.00  0.00    -0.270 OA
HETATM    8  H   UNL     1      -6.223   3.465 -33.272  1.00  0.00     0.165 HD
ENDROOT
BRANCH   1   9
HETATM    9  C   UNL     1      -5.897   1.148 -31.476  1.00  0.00     0.027 C 
HETATM   10  C   UNL     1      -6.322   1.843 -30.174  1.00  0.00     0.035 C 
HETATM   11  C   UNL     1      -5.904   3.298 -30.006  1.00  0.00     0.235 C 
HETATM   12  N   UNL     1      -4.487   3.582 -30.445  1.00  0.00    -0.067 N 
HETATM   13  H   UNL     1      -3.885   3.338 -29.649  1.00  0.00     0.280 HD
HETATM   14  C   UNL     1      -3.972   2.836 -31.647  1.00  0.00     0.235 C 
HETATM   15  C   UNL     1      -4.383   1.377 -31.641  1.00  0.00     0.035 C 
BRANCH  12  16
HETATM   16  C   UNL     1      -4.276   5.077 -30.680  1.00  0.00     0.277 C 
BRANCH  16  17
HETATM   17  C   UNL     1      -3.694   5.430 -31.996  1.00  0.00     0.011 A 
HETATM   18  C   UNL     1      -2.363   5.454 -32.393  1.00  0.00     0.035 A 
HETATM   19  C   UNL     1      -1.117   5.132 -31.649  1.00  0.00     0.070 C 
HETATM   20  N   UNL     1      -2.380   5.771 -33.733  1.00  0.00    -0.278 N 
HETATM   21  C   UNL     1      -1.279   5.815 -34.669  1.00  0.00     0.179 C 
HETATM   22  N   UNL     1      -3.621   5.994 -34.201  1.00  0.00    -0.185 NA
HETATM   23  C   UNL     1      -4.415   5.744 -33.168  1.00  0.00     0.149 A 
ENDBRANCH  16  17
ENDBRANCH  12  16
ENDBRANCH   1   9
BRANCH   1  24
HETATM   24  C   UNL     1      -6.300   0.696 -34.065  1.00  0.00     0.082 C 
BRANCH  24  25
HETATM   25  C   UNL     1      -6.009  -0.795 -34.107  1.00  0.00    -0.034 A 
HETATM   26  C   UNL     1      -4.751  -1.387 -33.899  1.00  0.00     0.040 A 
HETATM   27 CL   UNL     1      -3.341  -0.484 -33.500  1.00  0.00    -0.084 Cl
HETATM   28  C   UNL     1      -4.573  -2.769 -34.054  1.00  0.00     0.024 A 
HETATM   29  C   UNL     1      -5.634  -3.583 -34.444  1.00  0.00     0.002 A 
HETATM   30  C   UNL     1      -6.880  -3.018 -34.678  1.00  0.00     0.001 A 
HETATM   31  C   UNL     1      -7.064  -1.643 -34.513  1.00  0.00     0.009 A 
ENDBRANCH  24  25
ENDBRANCH   1  24
BRANCH   5  32
HETATM   32  C   UNL     1     -10.479   2.058 -33.133  1.00  0.00     0.141 C 
BRANCH  32  33
HETATM   33  C   UNL     1     -10.868   1.864 -34.568  1.00  0.00     0.004 A 
HETATM   34  C   UNL     1     -12.278   1.494 -34.958  1.00  0.00     0.007 A 
HETATM   35  C   UNL     1     -11.755   2.872 -35.255  1.00  0.00     0.007 A 
ENDBRANCH  32  33
ENDBRANCH   5  32
TORSDOF 7
ENDMDL
MODEL 6
REMARK VINA RESULT:      -8.5      1.748      2.849
REMARK  7 active torsions:
REMARK  status: ('A' for Active; 'I' for Inactive)
REMARK    1  A    between atoms: C_7  and  C_8 
REMARK    2  A    between atoms: C_8  and  N_9 
REMARK    3  A    between atoms: C_13  and  C_14 
REMARK    4  A    between atoms: C_14  and  C_15 
REMARK    5  A    between atoms: C_15  and  C_16 
REMARK    6  A    between atoms: N_26  and  C_27 
REMARK    7  A    between atoms: C_27  and  C_28 
ROOT
HETATM    1  C   UNL     1      -6.548   0.138 -32.820  1.00  0.00     0.123 C 
HETATM    2  N   UNL     1      -6.162  -0.321 -31.496  1.00  0.00    -0.324 N 
HETATM    3  C   UNL     1      -5.335   0.557 -30.833  1.00  0.00     0.326 C 
HETATM    4  O   UNL     1      -4.770   0.302 -29.787  1.00  0.00    -0.247 OA
HETATM    5  N   UNL     1      -5.309   1.719 -31.531  1.00  0.00    -0.268 N 
HETATM    6  C   UNL     1      -6.070   1.602 -32.651  1.00  0.00     0.257 C 
HETATM    7  O   UNL     1      -6.331   2.513 -33.426  1.00  0.00    -0.270 OA
HETATM    8  H   UNL     1      -6.147  -1.297 -31.208  1.00  0.00     0.165 HD
ENDROOT
BRANCH   1   9
HETATM    9  C   UNL     1      -8.086  -0.041 -33.041  1.00  0.00     0.027 C 
HETATM   10  C   UNL     1      -8.696   0.549 -34.322  1.00  0.00     0.035 C 
HETATM   11  C   UNL     1      -9.007   2.039 -34.309  1.00  0.00     0.235 C 
HETATM   12  N   UNL     1      -9.637   2.522 -33.024  1.00  0.00    -0.067 N 
HETATM   13  H   UNL     1     -10.643   2.334 -33.108  1.00  0.00     0.280 HD
HETATM   14  C   UNL     1      -9.163   1.891 -31.741  1.00  0.00     0.235 C 
HETATM   15  C   UNL     1      -8.985   0.391 -31.868  1.00  0.00     0.035 C 
BRANCH  12  16
HETATM   16  C   UNL     1      -9.510   4.039 -32.887  1.00  0.00     0.277 C 
BRANCH  16  17
HETATM   17  C   UNL     1      -8.745   4.502 -31.706  1.00  0.00     0.011 A 
HETATM   18  C   UNL     1      -7.539   5.188 -31.652  1.00  0.00     0.035 A 
HETATM   19  C   UNL     1      -6.647   5.680 -32.734  1.00  0.00     0.070 C 
HETATM   20  N   UNL     1      -7.316   5.442 -30.317  1.00  0.00    -0.278 N 
HETATM   21  C   UNL     1      -6.266   6.227 -29.706  1.00  0.00     0.179 C 
HETATM   22  N   UNL     1      -8.269   4.927 -29.521  1.00  0.00    -0.185 NA
HETATM   23  C   UNL     1      -9.153   4.402 -30.358  1.00  0.00     0.149 A 
ENDBRANCH  16  17
ENDBRANCH  12  16
ENDBRANCH   1   9
BRANCH   1  24
HETATM   24  C   UNL     1      -5.610  -0.465 -33.914  1.00  0.00     0.082 C 
BRANCH  24  25
HETATM   25  C   UNL     1      -5.300  -1.952 -33.963  1.00  0.00    -0.034 A 
HETATM   26  C   UNL     1      -4.195  -2.575 -33.357  1.00  0.00     0.040 A 
HETATM   27 CL   UNL     1      -3.043  -1.725 -32.401  1.00  0.00    -0.084 Cl
HETATM   28  C   UNL     1      -3.949  -3.942 -33.544  1.00  0.00     0.024 A 
HETATM   29  C   UNL     1      -4.781  -4.709 -34.357  1.00  0.00     0.002 A 
HETATM   30  C   UNL     1      -5.865  -4.111 -34.985  1.00  0.00     0.001 A 
HETATM   31  C   UNL     1      -6.120  -2.751 -34.791  1.00  0.00     0.009 A 
ENDBRANCH  24  25
ENDBRANCH   1  24
BRANCH   5  32
HETATM   32  C   UNL     1      -4.592   2.909 -31.126  1.00  0.00     0.141 C 
BRANCH  32  33
HETATM   33  C   UNL     1      -3.269   2.977 -31.828  1.00  0.00     0.004 A 
HETATM   34  C   UNL     1      -3.030   3.941 -32.964  1.00  0.00     0.007 A 
HETATM   35  C   UNL     1      -2.369   4.171 -31.634  1.00  0.00     0.007 A 
ENDBRANCH  32  33
ENDBRANCH   5  32
TORSDOF 7
ENDMDL
MODEL 7
REMARK VINA RESULT:      -8.5      3.071      6.961
REMARK  7 active torsions:
REMARK  status: ('A' for Active; 'I' for Inactive)
REMARK    1  A    between atoms: C_7  and  C_8 
REMARK    2  A    between atoms: C_8  and  N_9 
REMARK    3  A    between atoms: C_13  and  C_14 
REMARK    4  A    between atoms: C_14  and  C_15 
REMARK    5  A    between atoms: C_15  and  C_16 
REMARK    6  A    between atoms: N_26  and  C_27 
REMARK    7  A    between atoms: C_27  and  C_28 
ROOT
HETATM    1  C   UNL     1      -6.468   2.553 -31.157  1.00  0.00     0.123 C 
HETATM    2  N   UNL     1      -6.150   2.514 -32.575  1.00  0.00    -0.324 N 
HETATM    3  C   UNL     1      -5.959   3.760 -33.126  1.00  0.00     0.326 C 
HETATM    4  O   UNL     1      -5.841   3.966 -34.318  1.00  0.00    -0.247 OA
HETATM    5  N   UNL     1      -5.895   4.661 -32.115  1.00  0.00    -0.268 N 
HETATM    6  C   UNL     1      -6.078   4.033 -30.924  1.00  0.00     0.257 C 
HETATM    7  O   UNL     1      -5.968   4.558 -29.823  1.00  0.00    -0.270 OA
HETATM    8  H   UNL     1      -6.404   1.752 -33.200  1.00  0.00     0.165 HD
ENDROOT
BRANCH   1   9
HETATM    9  C   UNL     1      -5.614   1.505 -30.370  1.00  0.00     0.027 C 
HETATM   10  C   UNL     1      -4.091   1.533 -30.568  1.00  0.00     0.035 C 
HETATM   11  C   UNL     1      -3.550   0.840 -31.812  1.00  0.00     0.235 C 
HETATM   12  N   UNL     1      -4.206  -0.488 -32.107  1.00  0.00    -0.067 N 
HETATM   13  H   UNL     1      -3.717  -1.184 -31.531  1.00  0.00     0.280 HD
HETATM   14  C   UNL     1      -5.678  -0.613 -31.816  1.00  0.00     0.235 C 
HETATM   15  C   UNL     1      -6.064   0.039 -30.503  1.00  0.00     0.035 C 
BRANCH  12  16
HETATM   16  C   UNL     1      -3.966  -0.908 -33.556  1.00  0.00     0.277 C 
BRANCH  16  17
HETATM   17  C   UNL     1      -4.545  -2.217 -33.935  1.00  0.00     0.011 A 
HETATM   18  C   UNL     1      -5.762  -2.500 -34.543  1.00  0.00     0.035 A 
HETATM   19  C   UNL     1      -6.851  -1.603 -35.009  1.00  0.00     0.070 C 
HETATM   20  N   UNL     1      -5.770  -3.863 -34.742  1.00  0.00    -0.278 N 
HETATM   21  C   UNL     1      -6.744  -4.671 -35.441  1.00  0.00     0.179 C 
HETATM   22  N   UNL     1      -4.668  -4.467 -34.264  1.00  0.00    -0.185 NA
HETATM   23  C   UNL     1      -3.910  -3.473 -33.821  1.00  0.00     0.149 A 
ENDBRANCH  16  17
ENDBRANCH  12  16
ENDBRANCH   1   9
BRANCH   1  24
HETATM   24  C   UNL     1      -8.013   2.505 -30.931  1.00  0.00     0.082 C 
BRANCH  24  25
HETATM   25  C   UNL     1      -8.962   2.039 -32.023  1.00  0.00    -0.034 A 
HETATM   26  C   UNL     1      -9.668   2.878 -32.903  1.00  0.00     0.040 A 
HETATM   27 CL   UNL     1      -9.505   4.591 -32.903  1.00  0.00    -0.084 Cl
HETATM   28  C   UNL     1     -10.593   2.348 -33.813  1.00  0.00     0.024 A 
HETATM   29  C   UNL     1     -10.853   0.980 -33.847  1.00  0.00     0.002 A 
HETATM   30  C   UNL     1     -10.186   0.135 -32.972  1.00  0.00     0.001 A 
HETATM   31  C   UNL     1      -9.254   0.657 -32.072  1.00  0.00     0.009 A 
ENDBRANCH  24  25
ENDBRANCH   1  24
BRANCH   5  32
HETATM   32  C   UNL     1      -5.646   6.077 -32.286  1.00  0.00     0.141 C 
BRANCH  32  33
HETATM   33  C   UNL     1      -4.182   6.322 -32.490  1.00  0.00     0.004 A 
HETATM   34  C   UNL     1      -3.479   7.485 -31.832  1.00  0.00     0.007 A 
HETATM   35  C   UNL     1      -3.209   6.082 -31.362  1.00  0.00     0.007 A 
ENDBRANCH  32  33
ENDBRANCH   5  32
TORSDOF 7
ENDMDL
MODEL 8
REMARK VINA RESULT:      -8.4      2.990      7.227
REMARK  7 active torsions:
REMARK  status: ('A' for Active; 'I' for Inactive)
REMARK    1  A    between atoms: C_7  and  C_8 
REMARK    2  A    between atoms: C_8  and  N_9 
REMARK    3  A    between atoms: C_13  and  C_14 
REMARK    4  A    between atoms: C_14  and  C_15 
REMARK    5  A    between atoms: C_15  and  C_16 
REMARK    6  A    between atoms: N_26  and  C_27 
REMARK    7  A    between atoms: C_27  and  C_28 
ROOT
HETATM    1  C   UNL     1      -7.774   2.565 -31.255  1.00  0.00     0.123 C 
HETATM    2  N   UNL     1      -7.202   3.221 -32.420  1.00  0.00    -0.324 N 
HETATM    3  C   UNL     1      -8.117   3.963 -33.132  1.00  0.00     0.326 C 
HETATM    4  O   UNL     1      -7.892   4.461 -34.218  1.00  0.00    -0.247 OA
HETATM    5  N   UNL     1      -9.251   4.052 -32.394  1.00  0.00    -0.268 N 
HETATM    6  C   UNL     1      -9.107   3.354 -31.237  1.00  0.00     0.257 C 
HETATM    7  O   UNL     1      -9.915   3.333 -30.318  1.00  0.00    -0.270 OA
HETATM    8  H   UNL     1      -6.367   2.904 -32.907  1.00  0.00     0.165 HD
ENDROOT
BRANCH   1   9
HETATM    9  C   UNL     1      -6.860   2.770 -30.002  1.00  0.00     0.027 C 
HETATM   10  C   UNL     1      -6.666   4.203 -29.487  1.00  0.00     0.035 C 
HETATM   11  C   UNL     1      -5.635   5.058 -30.212  1.00  0.00     0.235 C 
HETATM   12  N   UNL     1      -4.358   4.324 -30.545  1.00  0.00    -0.067 N 
HETATM   13  H   UNL     1      -3.772   4.368 -29.703  1.00  0.00     0.280 HD
HETATM   14  C   UNL     1      -4.475   2.875 -30.940  1.00  0.00     0.235 C 
HETATM   15  C   UNL     1      -5.466   2.120 -30.077  1.00  0.00     0.035 C 
BRANCH  12  16
HETATM   16  C   UNL     1      -3.572   5.056 -31.633  1.00  0.00     0.277 C 
BRANCH  16  17
HETATM   17  C   UNL     1      -2.236   5.544 -31.222  1.00  0.00     0.011 A 
HETATM   18  C   UNL     1      -1.901   6.504 -30.276  1.00  0.00     0.035 A 
HETATM   19  C   UNL     1      -2.753   7.330 -29.380  1.00  0.00     0.070 C 
HETATM   20  N   UNL     1      -0.525   6.517 -30.230  1.00  0.00    -0.278 N 
HETATM   21  C   UNL     1       0.346   7.246 -29.335  1.00  0.00     0.179 C 
HETATM   22  N   UNL     1       0.035   5.669 -31.110  1.00  0.00    -0.185 NA
HETATM   23  C   UNL     1      -0.993   5.050 -31.674  1.00  0.00     0.149 A 
ENDBRANCH  16  17
ENDBRANCH  12  16
ENDBRANCH   1   9
BRANCH   1  24
HETATM   24  C   UNL     1      -8.182   1.095 -31.589  1.00  0.00     0.082 C 
BRANCH  24  25
HETATM   25  C   UNL     1      -7.542   0.334 -32.738  1.00  0.00    -0.034 A 
HETATM   26  C   UNL     1      -8.078   0.207 -34.031  1.00  0.00     0.040 A 
HETATM   27 CL   UNL     1      -9.543   0.968 -34.521  1.00  0.00    -0.084 Cl
HETATM   28  C   UNL     1      -7.453  -0.600 -34.992  1.00  0.00     0.024 A 
HETATM   29  C   UNL     1      -6.300  -1.315 -34.678  1.00  0.00     0.002 A 
HETATM   30  C   UNL     1      -5.766  -1.226 -33.401  1.00  0.00     0.001 A 
HETATM   31  C   UNL     1      -6.379  -0.413 -32.444  1.00  0.00     0.009 A 
ENDBRANCH  24  25
ENDBRANCH   1  24
BRANCH   5  32
HETATM   32  C   UNL     1     -10.429   4.800 -32.779  1.00  0.00     0.141 C 
BRANCH  32  33
HETATM   33  C   UNL     1     -11.338   3.939 -33.604  1.00  0.00     0.004 A 
HETATM   34  C   UNL     1     -12.521   4.522 -34.338  1.00  0.00     0.007 A 
HETATM   35  C   UNL     1     -11.321   4.044 -35.108  1.00  0.00     0.007 A 
ENDBRANCH  32  33
ENDBRANCH   5  32
TORSDOF 7
ENDMDL
MODEL 9
REMARK VINA RESULT:      -8.3      2.699      6.802
REMARK  7 active torsions:
REMARK  status: ('A' for Active; 'I' for Inactive)
REMARK    1  A    between atoms: C_7  and  C_8 
REMARK    2  A    between atoms: C_8  and  N_9 
REMARK    3  A    between atoms: C_13  and  C_14 
REMARK    4  A    between atoms: C_14  and  C_15 
REMARK    5  A    between atoms: C_15  and  C_16 
REMARK    6  A    between atoms: N_26  and  C_27 
REMARK    7  A    between atoms: C_27  and  C_28 
ROOT
HETATM    1  C   UNL     1      -6.347   1.502 -32.787  1.00  0.00     0.123 C 
HETATM    2  N   UNL     1      -6.611   2.907 -33.057  1.00  0.00    -0.324 N 
HETATM    3  C   UNL     1      -7.950   3.197 -33.180  1.00  0.00     0.326 C 
HETATM    4  O   UNL     1      -8.382   4.268 -33.558  1.00  0.00    -0.247 OA
HETATM    5  N   UNL     1      -8.655   2.111 -32.777  1.00  0.00    -0.268 N 
HETATM    6  C   UNL     1      -7.803   1.109 -32.432  1.00  0.00     0.257 C 
HETATM    7  O   UNL     1      -8.132   0.043 -31.928  1.00  0.00    -0.270 OA
HETATM    8  H   UNL     1      -5.945   3.544 -33.489  1.00  0.00     0.165 HD
ENDROOT
BRANCH   1   9
HETATM    9  C   UNL     1      -5.311   1.347 -31.625  1.00  0.00     0.027 C 
HETATM   10  C   UNL     1      -5.617   2.056 -30.298  1.00  0.00     0.035 C 
HETATM   11  C   UNL     1      -5.281   3.539 -30.220  1.00  0.00     0.235 C 
HETATM   12  N   UNL     1      -3.952   3.899 -30.842  1.00  0.00    -0.067 N 
HETATM   13  H   UNL     1      -3.240   3.720 -30.123  1.00  0.00     0.280 HD
HETATM   14  C   UNL     1      -3.542   3.148 -32.081  1.00  0.00     0.235 C 
HETATM   15  C   UNL     1      -3.849   1.667 -31.986  1.00  0.00     0.035 C 
BRANCH  12  16
HETATM   16  C   UNL     1      -3.873   5.396 -31.139  1.00  0.00     0.277 C 
BRANCH  16  17
HETATM   17  C   UNL     1      -2.846   6.136 -30.369  1.00  0.00     0.011 A 
HETATM   18  C   UNL     1      -1.463   6.099 -30.483  1.00  0.00     0.035 A 
HETATM   19  C   UNL     1      -0.579   5.330 -31.398  1.00  0.00     0.070 C 
HETATM   20  N   UNL     1      -0.991   7.035 -29.589  1.00  0.00    -0.278 N 
HETATM   21  C   UNL     1       0.366   7.488 -29.383  1.00  0.00     0.179 C 
HETATM   22  N   UNL     1      -1.973   7.627 -28.887  1.00  0.00    -0.185 NA
HETATM   23  C   UNL     1      -3.091   7.121 -29.388  1.00  0.00     0.149 A 
ENDBRANCH  16  17
ENDBRANCH  12  16
ENDBRANCH   1   9
BRANCH   1  24
HETATM   24  C   UNL     1      -6.035   0.731 -34.109  1.00  0.00     0.082 C 
BRANCH  24  25
HETATM   25  C   UNL     1      -5.867  -0.779 -34.127  1.00  0.00    -0.034 A 
HETATM   26  C   UNL     1      -4.665  -1.469 -33.891  1.00  0.00     0.040 A 
HETATM   27 CL   UNL     1      -3.193  -0.679 -33.479  1.00  0.00    -0.084 Cl
HETATM   28  C   UNL     1      -4.599  -2.863 -34.027  1.00  0.00     0.024 A 
HETATM   29  C   UNL     1      -5.716  -3.592 -34.424  1.00  0.00     0.002 A 
HETATM   30  C   UNL     1      -6.908  -2.931 -34.687  1.00  0.00     0.001 A 
HETATM   31  C   UNL     1      -6.982  -1.543 -34.541  1.00  0.00     0.009 A 
ENDBRANCH  24  25
ENDBRANCH   1  24
BRANCH   5  32
HETATM   32  C   UNL     1     -10.098   2.042 -32.709  1.00  0.00     0.141 C 
BRANCH  32  33
HETATM   33  C   UNL     1     -10.650   1.496 -33.991  1.00  0.00     0.004 A 
HETATM   34  C   UNL     1     -12.095   1.077 -34.111  1.00  0.00     0.007 A 
HETATM   35  C   UNL     1     -11.612   2.316 -34.813  1.00  0.00     0.007 A 
ENDBRANCH  32  33
ENDBRANCH   5  32
TORSDOF 7
ENDMDL
MODEL 10
REMARK VINA RESULT:      -8.1      3.308      7.670
REMARK  7 active torsions:
REMARK  status: ('A' for Active; 'I' for Inactive)
REMARK    1  A    between atoms: C_7  and  C_8 
REMARK    2  A    between atoms: C_8  and  N_9 
REMARK    3  A    between atoms: C_13  and  C_14 
REMARK    4  A    between atoms: C_14  and  C_15 
REMARK    5  A    between atoms: C_15  and  C_16 
REMARK    6  A    between atoms: N_26  and  C_27 
REMARK    7  A    between atoms: C_27  and  C_28 
ROOT
HETATM    1  C   UNL     1      -6.175   2.731 -32.278  1.00  0.00     0.123 C 
HETATM    2  N   UNL     1      -5.032   2.265 -31.510  1.00  0.00    -0.324 N 
HETATM    3  C   UNL     1      -4.570   1.033 -31.912  1.00  0.00     0.326 C 
HETATM    4  O   UNL     1      -3.732   0.391 -31.309  1.00  0.00    -0.247 OA
HETATM    5  N   UNL     1      -5.184   0.713 -33.078  1.00  0.00    -0.268 N 
HETATM    6  C   UNL     1      -6.061   1.693 -33.422  1.00  0.00     0.257 C 
HETATM    7  O   UNL     1      -6.685   1.745 -34.474  1.00  0.00    -0.270 OA
HETATM    8  H   UNL     1      -4.813   2.569 -30.564  1.00  0.00     0.165 HD
ENDROOT
BRANCH   1   9
HETATM    9  C   UNL     1      -5.981   4.222 -32.709  1.00  0.00     0.027 C 
HETATM   10  C   UNL     1      -4.946   4.520 -33.804  1.00  0.00     0.035 C 
HETATM   11  C   UNL     1      -3.489   4.596 -33.367  1.00  0.00     0.235 C 
HETATM   12  N   UNL     1      -3.277   5.344 -32.072  1.00  0.00    -0.067 N 
HETATM   13  H   UNL     1      -3.235   6.340 -32.319  1.00  0.00     0.280 HD
HETATM   14  C   UNL     1      -4.326   5.187 -31.003  1.00  0.00     0.235 C 
HETATM   15  C   UNL     1      -5.733   5.222 -31.565  1.00  0.00     0.035 C 
BRANCH  12  16
HETATM   16  C   UNL     1      -1.917   5.011 -31.462  1.00  0.00     0.277 C 
BRANCH  16  17
HETATM   17  C   UNL     1      -1.339   6.067 -30.599  1.00  0.00     0.011 A 
HETATM   18  C   UNL     1      -0.215   6.022 -29.785  1.00  0.00     0.035 A 
HETATM   19  C   UNL     1       0.760   4.930 -29.526  1.00  0.00     0.070 C 
HETATM   20  N   UNL     1      -0.079   7.292 -29.269  1.00  0.00    -0.278 N 
HETATM   21  C   UNL     1       0.988   7.830 -28.455  1.00  0.00     0.179 C 
HETATM   22  N   UNL     1      -1.061   8.122 -29.660  1.00  0.00    -0.185 NA
HETATM   23  C   UNL     1      -1.793   7.400 -30.498  1.00  0.00     0.149 A 
ENDBRANCH  16  17
ENDBRANCH  12  16
ENDBRANCH   1   9
BRANCH   1  24
HETATM   24  C   UNL     1      -7.513   2.382 -31.553  1.00  0.00     0.082 C 
BRANCH  24  25
HETATM   25  C   UNL     1      -8.707   1.827 -32.311  1.00  0.00    -0.034 A 
HETATM   26  C   UNL     1      -9.626   2.587 -33.055  1.00  0.00     0.040 A 
HETATM   27 CL   UNL     1      -9.487   4.290 -33.264  1.00  0.00    -0.084 Cl
HETATM   28  C   UNL     1     -10.750   1.986 -33.638  1.00  0.00     0.024 A 
HETATM   29  C   UNL     1     -10.995   0.625 -33.471  1.00  0.00     0.002 A 
HETATM   30  C   UNL     1     -10.115  -0.142 -32.721  1.00  0.00     0.001 A 
HETATM   31  C   UNL     1      -8.987   0.451 -32.148  1.00  0.00     0.009 A 
ENDBRANCH  24  25
ENDBRANCH   1  24
BRANCH   5  32
HETATM   32  C   UNL     1      -4.923  -0.485 -33.846  1.00  0.00     0.141 C 
BRANCH  32  33
HETATM   33  C   UNL     1      -6.002  -1.498 -33.603  1.00  0.00     0.004 A 
HETATM   34  C   UNL     1      -7.118  -1.712 -34.596  1.00  0.00     0.007 A 
HETATM   35  C   UNL     1      -6.054  -2.761 -34.425  1.00  0.00     0.007 A 
ENDBRANCH  32  33
ENDBRANCH   5  32
TORSDOF 7
ENDMDL
