MODEL 1
REMARK VINA RESULT:      -8.3      0.000      0.000
REMARK  8 active torsions:
REMARK  status: ('A' for Active; 'I' for Inactive)
REMARK    1  A    between atoms: C_2  and  C_3 
REMARK    2  A    between atoms: C_3  and  C_4 
REMARK    3  A    between atoms: C_8  and  C_9 
REMARK       I    between atoms: C_9  and  N_10 
REMARK    4  A    between atoms: N_10  and  C_11 
REMARK    5  A    between atoms: N_10  and  C_17 
REMARK    6  A    between atoms: C_17  and  C_18 
REMARK    7  A    between atoms: C_18  and  O_19 
REMARK    8  A    between atoms: C_18  and  C_20 
ROOT
HETATM    1  C   UNL     1      -8.218   1.971 -32.177  1.00  0.00     0.272 C 
HETATM    2  N   UNL     1      -7.085   1.151 -32.197  1.00  0.00    -0.339 N 
HETATM    3  O   UNL     1      -8.258   3.002 -31.511  1.00  0.00    -0.266 OA
ENDROOT
BRANCH   2   4
HETATM    4  C   UNL     1      -5.858   1.553 -31.458  1.00  0.00     0.087 C 
HETATM    5  C   UNL     1      -5.419   0.496 -30.427  1.00  0.00     0.025 C 
HETATM    6  C   UNL     1      -4.285  -0.419 -30.868  1.00  0.00     0.002 C 
HETATM    7  C   UNL     1      -3.117   0.377 -31.429  1.00  0.00     0.000 C 
HETATM    8  C   UNL     1      -3.539   1.212 -32.627  1.00  0.00     0.002 C 
HETATM    9  C   UNL     1      -4.721   2.133 -32.325  1.00  0.00     0.025 C 
ENDBRANCH   2   4
BRANCH   2  10
HETATM   10  C   UNL     1      -7.104  -0.249 -32.680  1.00  0.00     0.163 C 
BRANCH  10  11
HETATM   11  C   UNL     1      -6.416  -0.440 -34.051  1.00  0.00     0.169 C 
BRANCH  11  12
HETATM   12  O   UNL     1      -7.301  -0.062 -35.111  1.00  0.00    -0.389 OA
HETATM   13  H   UNL     1      -7.083   0.859 -35.340  1.00  0.00     0.210 HD
ENDBRANCH  11  12
BRANCH  11  14
HETATM   14  C   UNL     1      -5.999  -1.882 -34.262  1.00  0.00    -0.028 A 
HETATM   15  C   UNL     1      -4.667  -2.271 -34.062  1.00  0.00     0.010 A 
HETATM   16  C   UNL     1      -4.284  -3.600 -34.253  1.00  0.00     0.001 A 
HETATM   17  C   UNL     1      -5.224  -4.553 -34.642  1.00  0.00     0.000 A 
HETATM   18  C   UNL     1      -6.552  -4.182 -34.835  1.00  0.00     0.001 A 
HETATM   19  C   UNL     1      -6.939  -2.854 -34.643  1.00  0.00     0.010 A 
ENDBRANCH  11  14
ENDBRANCH  10  11
ENDBRANCH   2  10
BRANCH   1  20
HETATM   20  C   UNL     1      -9.402   1.596 -32.913  1.00  0.00     0.119 A 
HETATM   21  N   UNL     1     -10.196   0.569 -32.471  1.00  0.00    -0.273 N 
HETATM   22  N   UNL     1     -11.265   0.327 -33.245  1.00  0.00    -0.179 NA
HETATM   23  H   UNL     1     -10.047  -0.001 -31.645  1.00  0.00     0.189 HD
HETATM   24  C   UNL     1     -11.237   1.315 -34.146  1.00  0.00     0.057 A 
HETATM   25  C   UNL     1     -10.094   2.135 -33.979  1.00  0.00     0.065 A 
BRANCH  24  26
HETATM   26  C   UNL     1     -12.342   1.462 -35.139  1.00  0.00     0.061 C 
BRANCH  26  27
HETATM   27  C   UNL     1     -13.650   1.901 -34.478  1.00  0.00     0.002 C 
HETATM   28  C   UNL     1     -14.644   0.754 -34.386  1.00  0.00     0.005 C 
ENDBRANCH  26  27
ENDBRANCH  24  26
ENDBRANCH   1  20
TORSDOF 8
ENDMDL
MODEL 2
REMARK VINA RESULT:      -8.1      2.946      6.303
REMARK  8 active torsions:
REMARK  status: ('A' for Active; 'I' for Inactive)
REMARK    1  A    between atoms: C_2  and  C_3 
REMARK    2  A    between atoms: C_3  and  C_4 
REMARK    3  A    between atoms: C_8  and  C_9 
REMARK       I    between atoms: C_9  and  N_10 
REMARK    4  A    between atoms: N_10  and  C_11 
REMARK    5  A    between atoms: N_10  and  C_17 
REMARK    6  A    between atoms: C_17  and  C_18 
REMARK    7  A    between atoms: C_18  and  O_19 
REMARK    8  A    between atoms: C_18  and  C_20 
ROOT
HETATM    1  C   UNL     1      -6.534   4.183 -32.890  1.00  0.00     0.272 C 
HETATM    2  N   UNL     1      -7.083   2.906 -33.051  1.00  0.00    -0.339 N 
HETATM    3  O   UNL     1      -7.214   5.138 -32.524  1.00  0.00    -0.266 OA
ENDROOT
BRANCH   2   4
HETATM    4  C   UNL     1      -8.509   2.657 -32.706  1.00  0.00     0.087 C 
HETATM    5  C   UNL     1      -9.373   2.372 -33.948  1.00  0.00     0.025 C 
HETATM    6  C   UNL     1      -9.671   0.904 -34.217  1.00  0.00     0.002 C 
HETATM    7  C   UNL     1     -10.186   0.205 -32.968  1.00  0.00     0.000 C 
HETATM    8  C   UNL     1      -9.176   0.279 -31.835  1.00  0.00     0.002 C 
HETATM    9  C   UNL     1      -8.747   1.710 -31.511  1.00  0.00     0.025 C 
ENDBRANCH   2   4
BRANCH   2  10
HETATM   10  C   UNL     1      -6.417   1.826 -33.813  1.00  0.00     0.163 C 
BRANCH  10  11
HETATM   11  C   UNL     1      -5.676   0.805 -32.921  1.00  0.00     0.169 C 
BRANCH  11  12
HETATM   12  O   UNL     1      -4.332   1.237 -32.679  1.00  0.00    -0.389 OA
HETATM   13  H   UNL     1      -4.393   2.098 -32.228  1.00  0.00     0.210 HD
ENDBRANCH  11  12
BRANCH  11  14
HETATM   14  C   UNL     1      -5.634  -0.565 -33.569  1.00  0.00    -0.028 A 
HETATM   15  C   UNL     1      -4.449  -1.313 -33.569  1.00  0.00     0.010 A 
HETATM   16  C   UNL     1      -4.411  -2.576 -34.163  1.00  0.00     0.001 A 
HETATM   17  C   UNL     1      -5.554  -3.106 -34.759  1.00  0.00     0.000 A 
HETATM   18  C   UNL     1      -6.741  -2.377 -34.758  1.00  0.00     0.001 A 
HETATM   19  C   UNL     1      -6.782  -1.115 -34.164  1.00  0.00     0.010 A 
ENDBRANCH  11  14
ENDBRANCH  10  11
ENDBRANCH   2  10
BRANCH   1  20
HETATM   20  C   UNL     1      -5.145   4.423 -33.200  1.00  0.00     0.119 A 
HETATM   21  N   UNL     1      -4.161   4.013 -32.338  1.00  0.00    -0.273 N 
HETATM   22  N   UNL     1      -2.915   4.295 -32.748  1.00  0.00    -0.179 NA
HETATM   23  H   UNL     1      -4.292   3.537 -31.451  1.00  0.00     0.189 HD
HETATM   24  C   UNL     1      -3.088   4.787 -33.979  1.00  0.00     0.057 A 
HETATM   25  C   UNL     1      -4.462   4.885 -34.309  1.00  0.00     0.065 A 
BRANCH  24  26
HETATM   26  C   UNL     1      -1.908   5.126 -34.828  1.00  0.00     0.061 C 
BRANCH  26  27
HETATM   27  C   UNL     1      -0.995   6.152 -34.154  1.00  0.00     0.002 C 
HETATM   28  C   UNL     1      -1.772   7.371 -33.684  1.00  0.00     0.005 C 
ENDBRANCH  26  27
ENDBRANCH  24  26
ENDBRANCH   1  20
TORSDOF 8
ENDMDL
MODEL 3
REMARK VINA RESULT:      -7.6     13.986     15.631
REMARK  8 active torsions:
REMARK  status: ('A' for Active; 'I' for Inactive)
REMARK    1  A    between atoms: C_2  and  C_3 
REMARK    2  A    between atoms: C_3  and  C_4 
REMARK    3  A    between atoms: C_8  and  C_9 
REMARK       I    between atoms: C_9  and  N_10 
REMARK    4  A    between atoms: N_10  and  C_11 
REMARK    5  A    between atoms: N_10  and  C_17 
REMARK    6  A    between atoms: C_17  and  C_18 
REMARK    7  A    between atoms: C_18  and  O_19 
REMARK    8  A    between atoms: C_18  and  C_20 
ROOT
HETATM    1  C   UNL     1      -4.077 -13.442 -36.727  1.00  0.00     0.272 C 
HETATM    2  N   UNL     1      -4.967 -13.627 -37.791  1.00  0.00    -0.339 N 
HETATM    3  O   UNL     1      -2.889 -13.193 -36.914  1.00  0.00    -0.266 OA
ENDROOT
BRANCH   2   4
HETATM    4  C   UNL     1      -4.501 -13.453 -39.194  1.00  0.00     0.087 C 
HETATM    5  C   UNL     1      -4.747 -14.705 -40.055  1.00  0.00     0.025 C 
HETATM    6  C   UNL     1      -5.975 -14.653 -40.954  1.00  0.00     0.002 C 
HETATM    7  C   UNL     1      -6.015 -13.365 -41.762  1.00  0.00     0.000 C 
HETATM    8  C   UNL     1      -6.043 -12.144 -40.858  1.00  0.00     0.002 C 
HETATM    9  C   UNL     1      -4.886 -12.115 -39.859  1.00  0.00     0.025 C 
ENDBRANCH   2   4
BRANCH   2  10
HETATM   10  C   UNL     1      -6.294 -14.265 -37.639  1.00  0.00     0.163 C 
BRANCH  10  11
HETATM   11  C   UNL     1      -7.448 -13.256 -37.450  1.00  0.00     0.169 C 
BRANCH  11  12
HETATM   12  O   UNL     1      -8.028 -13.398 -36.149  1.00  0.00    -0.389 OA
HETATM   13  H   UNL     1      -7.326 -13.189 -35.507  1.00  0.00     0.210 HD
ENDBRANCH  11  12
BRANCH  11  14
HETATM   14  C   UNL     1      -8.534 -13.461 -38.488  1.00  0.00    -0.028 A 
HETATM   15  C   UNL     1      -9.097 -12.363 -39.152  1.00  0.00     0.010 A 
HETATM   16  C   UNL     1     -10.095 -12.552 -40.110  1.00  0.00     0.001 A 
HETATM   17  C   UNL     1     -10.539 -13.837 -40.417  1.00  0.00     0.000 A 
HETATM   18  C   UNL     1      -9.982 -14.938 -39.771  1.00  0.00     0.001 A 
HETATM   19  C   UNL     1      -8.984 -14.752 -38.814  1.00  0.00     0.010 A 
ENDBRANCH  11  14
ENDBRANCH  10  11
ENDBRANCH   2  10
BRANCH   1  20
HETATM   20  C   UNL     1      -4.531 -13.586 -35.365  1.00  0.00     0.119 A 
HETATM   21  N   UNL     1      -5.176 -12.552 -34.736  1.00  0.00    -0.273 N 
HETATM   22  N   UNL     1      -5.547 -12.819 -33.475  1.00  0.00    -0.179 NA
HETATM   23  H   UNL     1      -5.384 -11.639 -35.129  1.00  0.00     0.189 HD
HETATM   24  C   UNL     1      -5.251 -14.114 -33.322  1.00  0.00     0.057 A 
HETATM   25  C   UNL     1      -4.617 -14.639 -34.475  1.00  0.00     0.065 A 
BRANCH  24  26
HETATM   26  C   UNL     1      -5.618 -14.828 -32.065  1.00  0.00     0.061 C 
BRANCH  26  27
HETATM   27  C   UNL     1      -6.476 -16.065 -32.338  1.00  0.00     0.002 C 
HETATM   28  C   UNL     1      -7.768 -15.703 -33.052  1.00  0.00     0.005 C 
ENDBRANCH  26  27
ENDBRANCH  24  26
ENDBRANCH   1  20
TORSDOF 8
ENDMDL
MODEL 4
REMARK VINA RESULT:      -7.5     14.127     16.426
REMARK  8 active torsions:
REMARK  status: ('A' for Active; 'I' for Inactive)
REMARK    1  A    between atoms: C_2  and  C_3 
REMARK    2  A    between atoms: C_3  and  C_4 
REMARK    3  A    between atoms: C_8  and  C_9 
REMARK       I    between atoms: C_9  and  N_10 
REMARK    4  A    between atoms: N_10  and  C_11 
REMARK    5  A    between atoms: N_10  and  C_17 
REMARK    6  A    between atoms: C_17  and  C_18 
REMARK    7  A    between atoms: C_18  and  O_19 
REMARK    8  A    between atoms: C_18  and  C_20 
ROOT
HETATM    1  C   UNL     1      -3.756 -12.672 -38.373  1.00  0.00     0.272 C 
HETATM    2  N   UNL     1      -2.778 -13.578 -38.797  1.00  0.00    -0.339 N 
HETATM    3  O   UNL     1      -3.608 -11.986 -37.365  1.00  0.00    -0.266 OA
ENDROOT
BRANCH   2   4
HETATM    4  C   UNL     1      -1.485 -13.679 -38.067  1.00  0.00     0.087 C 
HETATM    5  C   UNL     1      -1.412 -14.931 -37.173  1.00  0.00     0.025 C 
HETATM    6  C   UNL     1      -0.636 -16.105 -37.753  1.00  0.00     0.002 C 
HETATM    7  C   UNL     1       0.726 -15.670 -38.269  1.00  0.00     0.000 C 
HETATM    8  C   UNL     1       0.595 -14.613 -39.354  1.00  0.00     0.002 C 
HETATM    9  C   UNL     1      -0.223 -13.401 -38.910  1.00  0.00     0.025 C 
ENDBRANCH   2   4
BRANCH   2  10
HETATM   10  C   UNL     1      -3.042 -14.662 -39.771  1.00  0.00     0.163 C 
BRANCH  10  11
HETATM   11  C   UNL     1      -2.607 -14.318 -41.213  1.00  0.00     0.169 C 
BRANCH  11  12
HETATM   12  O   UNL     1      -3.617 -13.545 -41.869  1.00  0.00    -0.389 OA
HETATM   13  H   UNL     1      -3.221 -13.211 -42.694  1.00  0.00     0.210 HD
ENDBRANCH  11  12
BRANCH  11  14
HETATM   14  C   UNL     1      -2.354 -15.572 -42.026  1.00  0.00    -0.028 A 
HETATM   15  C   UNL     1      -2.900 -15.707 -43.310  1.00  0.00     0.010 A 
HETATM   16  C   UNL     1      -2.665 -16.861 -44.060  1.00  0.00     0.001 A 
HETATM   17  C   UNL     1      -1.881 -17.889 -43.539  1.00  0.00     0.000 A 
HETATM   18  C   UNL     1      -1.324 -17.764 -42.269  1.00  0.00     0.001 A 
HETATM   19  C   UNL     1      -1.557 -16.611 -41.517  1.00  0.00     0.010 A 
ENDBRANCH  11  14
ENDBRANCH  10  11
ENDBRANCH   2  10
BRANCH   1  20
HETATM   20  C   UNL     1      -5.001 -12.554 -39.093  1.00  0.00     0.119 A 
HETATM   21  N   UNL     1      -5.074 -11.791 -40.230  1.00  0.00    -0.273 N 
HETATM   22  N   UNL     1      -6.287 -11.770 -40.803  1.00  0.00    -0.179 NA
HETATM   23  H   UNL     1      -4.319 -11.262 -40.655  1.00  0.00     0.189 HD
HETATM   24  C   UNL     1      -6.993 -12.652 -40.088  1.00  0.00     0.057 A 
HETATM   25  C   UNL     1      -6.234 -13.171 -39.011  1.00  0.00     0.065 A 
BRANCH  24  26
HETATM   26  C   UNL     1      -8.390 -12.999 -40.486  1.00  0.00     0.061 C 
BRANCH  26  27
HETATM   27  C   UNL     1      -9.413 -12.037 -39.880  1.00  0.00     0.002 C 
HETATM   28  C   UNL     1     -10.832 -12.402 -40.283  1.00  0.00     0.005 C 
ENDBRANCH  26  27
ENDBRANCH  24  26
ENDBRANCH   1  20
TORSDOF 8
ENDMDL
MODEL 5
REMARK VINA RESULT:      -7.3      3.318      6.515
REMARK  8 active torsions:
REMARK  status: ('A' for Active; 'I' for Inactive)
REMARK    1  A    between atoms: C_2  and  C_3 
REMARK    2  A    between atoms: C_3  and  C_4 
REMARK    3  A    between atoms: C_8  and  C_9 
REMARK       I    between atoms: C_9  and  N_10 
REMARK    4  A    between atoms: N_10  and  C_11 
REMARK    5  A    between atoms: N_10  and  C_17 
REMARK    6  A    between atoms: C_17  and  C_18 
REMARK    7  A    between atoms: C_18  and  O_19 
REMARK    8  A    between atoms: C_18  and  C_20 
ROOT
HETATM    1  C   UNL     1      -6.959   2.365 -32.729  1.00  0.00     0.272 C 
HETATM    2  N   UNL     1      -6.094   3.276 -32.112  1.00  0.00    -0.339 N 
HETATM    3  O   UNL     1      -8.112   2.668 -33.024  1.00  0.00    -0.266 OA
ENDROOT
BRANCH   2   4
HETATM    4  C   UNL     1      -6.535   4.676 -31.863  1.00  0.00     0.087 C 
HETATM    5  C   UNL     1      -6.401   5.080 -30.383  1.00  0.00     0.025 C 
HETATM    6  C   UNL     1      -5.169   5.906 -30.040  1.00  0.00     0.002 C 
HETATM    7  C   UNL     1      -5.008   7.083 -30.989  1.00  0.00     0.000 C 
HETATM    8  C   UNL     1      -4.874   6.619 -32.430  1.00  0.00     0.002 C 
HETATM    9  C   UNL     1      -6.028   5.722 -32.877  1.00  0.00     0.025 C 
ENDBRANCH   2   4
BRANCH   2  10
HETATM   10  C   UNL     1      -4.846   2.874 -31.425  1.00  0.00     0.163 C 
BRANCH  10  11
HETATM   11  C   UNL     1      -3.671   2.594 -32.388  1.00  0.00     0.169 C 
BRANCH  11  12
HETATM   12  O   UNL     1      -2.941   1.438 -31.964  1.00  0.00    -0.389 OA
HETATM   13  H   UNL     1      -3.600   0.748 -31.770  1.00  0.00     0.210 HD
ENDBRANCH  11  12
BRANCH  11  14
HETATM   14  C   UNL     1      -2.718   3.772 -32.451  1.00  0.00    -0.028 A 
HETATM   15  C   UNL     1      -2.184   4.314 -31.275  1.00  0.00     0.010 A 
HETATM   16  C   UNL     1      -1.303   5.397 -31.333  1.00  0.00     0.001 A 
HETATM   17  C   UNL     1      -0.945   5.945 -32.563  1.00  0.00     0.000 A 
HETATM   18  C   UNL     1      -1.462   5.409 -33.740  1.00  0.00     0.001 A 
HETATM   19  C   UNL     1      -2.341   4.327 -33.685  1.00  0.00     0.010 A 
ENDBRANCH  11  14
ENDBRANCH  10  11
ENDBRANCH   2  10
BRANCH   1  20
HETATM   20  C   UNL     1      -6.526   1.015 -32.994  1.00  0.00     0.119 A 
HETATM   21  N   UNL     1      -6.444   0.101 -31.976  1.00  0.00    -0.273 N 
HETATM   22  N   UNL     1      -6.032  -1.117 -32.360  1.00  0.00    -0.179 NA
HETATM   23  H   UNL     1      -6.656   0.263 -30.997  1.00  0.00     0.189 HD
HETATM   24  C   UNL     1      -5.971  -1.028 -33.693  1.00  0.00     0.057 A 
HETATM   25  C   UNL     1      -6.273   0.283 -34.138  1.00  0.00     0.065 A 
BRANCH  24  26
HETATM   26  C   UNL     1      -5.649  -2.231 -34.515  1.00  0.00     0.061 C 
BRANCH  26  27
HETATM   27  C   UNL     1      -6.852  -3.165 -34.659  1.00  0.00     0.002 C 
HETATM   28  C   UNL     1      -6.467  -4.474 -35.331  1.00  0.00     0.005 C 
ENDBRANCH  26  27
ENDBRANCH  24  26
ENDBRANCH   1  20
TORSDOF 8
ENDMDL
MODEL 6
REMARK VINA RESULT:      -7.2      2.244      6.570
REMARK  8 active torsions:
REMARK  status: ('A' for Active; 'I' for Inactive)
REMARK    1  A    between atoms: C_2  and  C_3 
REMARK    2  A    between atoms: C_3  and  C_4 
REMARK    3  A    between atoms: C_8  and  C_9 
REMARK       I    between atoms: C_9  and  N_10 
REMARK    4  A    between atoms: N_10  and  C_11 
REMARK    5  A    between atoms: N_10  and  C_17 
REMARK    6  A    between atoms: C_17  and  C_18 
REMARK    7  A    between atoms: C_18  and  O_19 
REMARK    8  A    between atoms: C_18  and  C_20 
ROOT
HETATM    1  C   UNL     1      -9.774   3.976 -33.757  1.00  0.00     0.272 C 
HETATM    2  N   UNL     1     -10.521   2.836 -34.074  1.00  0.00    -0.339 N 
HETATM    3  O   UNL     1     -10.231   5.107 -33.894  1.00  0.00    -0.266 OA
ENDROOT
BRANCH   2   4
HETATM    4  C   UNL     1     -11.934   2.969 -34.521  1.00  0.00     0.087 C 
HETATM    5  C   UNL     1     -12.413   1.748 -35.327  1.00  0.00     0.025 C 
HETATM    6  C   UNL     1     -13.248   0.737 -34.552  1.00  0.00     0.002 C 
HETATM    7  C   UNL     1     -14.373   1.417 -33.789  1.00  0.00     0.000 C 
HETATM    8  C   UNL     1     -13.835   2.437 -32.799  1.00  0.00     0.002 C 
HETATM    9  C   UNL     1     -12.924   3.477 -33.451  1.00  0.00     0.025 C 
ENDBRANCH   2   4
BRANCH   2  10
HETATM   10  C   UNL     1      -9.919   1.498 -34.267  1.00  0.00     0.163 C 
BRANCH  10  11
HETATM   11  C   UNL     1      -9.780   0.687 -32.960  1.00  0.00     0.169 C 
BRANCH  11  12
HETATM   12  O   UNL     1     -10.162   1.484 -31.834  1.00  0.00    -0.389 OA
HETATM   13  H   UNL     1      -9.507   1.312 -31.134  1.00  0.00     0.210 HD
ENDBRANCH  11  12
BRANCH  11  14
HETATM   14  C   UNL     1      -8.355   0.212 -32.754  1.00  0.00    -0.028 A 
HETATM   15  C   UNL     1      -7.748   0.317 -31.495  1.00  0.00     0.010 A 
HETATM   16  C   UNL     1      -6.436  -0.123 -31.305  1.00  0.00     0.001 A 
HETATM   17  C   UNL     1      -5.720  -0.674 -32.366  1.00  0.00     0.000 A 
HETATM   18  C   UNL     1      -6.315  -0.793 -33.619  1.00  0.00     0.001 A 
HETATM   19  C   UNL     1      -7.626  -0.355 -33.812  1.00  0.00     0.010 A 
ENDBRANCH  11  14
ENDBRANCH  10  11
ENDBRANCH   2  10
BRANCH   1  20
HETATM   20  C   UNL     1      -8.411   3.850 -33.299  1.00  0.00     0.119 A 
HETATM   21  N   UNL     1      -8.129   3.836 -31.958  1.00  0.00    -0.273 N 
HETATM   22  N   UNL     1      -6.825   3.710 -31.670  1.00  0.00    -0.179 NA
HETATM   23  H   UNL     1      -8.797   3.913 -31.197  1.00  0.00     0.189 HD
HETATM   24  C   UNL     1      -6.253   3.503 -32.861  1.00  0.00     0.057 A 
HETATM   25  C   UNL     1      -7.202   3.578 -33.910  1.00  0.00     0.065 A 
BRANCH  24  26
HETATM   26  C   UNL     1      -4.794   3.204 -32.955  1.00  0.00     0.061 C 
BRANCH  26  27
HETATM   27  C   UNL     1      -4.111   3.251 -31.587  1.00  0.00     0.002 C 
HETATM   28  C   UNL     1      -3.326   1.979 -31.310  1.00  0.00     0.005 C 
ENDBRANCH  26  27
ENDBRANCH  24  26
ENDBRANCH   1  20
TORSDOF 8
ENDMDL
MODEL 7
REMARK VINA RESULT:      -7.2      2.663      5.870
REMARK  8 active torsions:
REMARK  status: ('A' for Active; 'I' for Inactive)
REMARK    1  A    between atoms: C_2  and  C_3 
REMARK    2  A    between atoms: C_3  and  C_4 
REMARK    3  A    between atoms: C_8  and  C_9 
REMARK       I    between atoms: C_9  and  N_10 
REMARK    4  A    between atoms: N_10  and  C_11 
REMARK    5  A    between atoms: N_10  and  C_17 
REMARK    6  A    between atoms: C_17  and  C_18 
REMARK    7  A    between atoms: C_18  and  O_19 
REMARK    8  A    between atoms: C_18  and  C_20 
ROOT
HETATM    1  C   UNL     1      -3.777   1.730 -31.758  1.00  0.00     0.272 C 
HETATM    2  N   UNL     1      -4.108   3.068 -31.999  1.00  0.00    -0.339 N 
HETATM    3  O   UNL     1      -2.685   1.406 -31.300  1.00  0.00    -0.266 OA
ENDROOT
BRANCH   2   4
HETATM    4  C   UNL     1      -3.157   4.151 -31.631  1.00  0.00     0.087 C 
HETATM    5  C   UNL     1      -2.119   4.422 -32.736  1.00  0.00     0.025 C 
HETATM    6  C   UNL     1      -2.408   5.623 -33.626  1.00  0.00     0.002 C 
HETATM    7  C   UNL     1      -2.728   6.860 -32.802  1.00  0.00     0.000 C 
HETATM    8  C   UNL     1      -3.939   6.635 -31.911  1.00  0.00     0.002 C 
HETATM    9  C   UNL     1      -3.794   5.410 -31.008  1.00  0.00     0.025 C 
ENDBRANCH   2   4
BRANCH   2  10
HETATM   10  C   UNL     1      -5.238   3.482 -32.861  1.00  0.00     0.163 C 
BRANCH  10  11
HETATM   11  C   UNL     1      -6.576   3.622 -32.103  1.00  0.00     0.169 C 
BRANCH  11  12
HETATM   12  O   UNL     1      -6.390   3.362 -30.708  1.00  0.00    -0.389 OA
HETATM   13  H   UNL     1      -5.770   4.038 -30.379  1.00  0.00     0.210 HD
ENDBRANCH  11  12
BRANCH  11  14
HETATM   14  C   UNL     1      -7.616   2.657 -32.639  1.00  0.00    -0.028 A 
HETATM   15  C   UNL     1      -8.563   2.086 -31.778  1.00  0.00     0.010 A 
HETATM   16  C   UNL     1      -9.523   1.199 -32.271  1.00  0.00     0.001 A 
HETATM   17  C   UNL     1      -9.550   0.879 -33.628  1.00  0.00     0.000 A 
HETATM   18  C   UNL     1      -8.621   1.447 -34.496  1.00  0.00     0.001 A 
HETATM   19  C   UNL     1      -7.661   2.333 -34.005  1.00  0.00     0.010 A 
ENDBRANCH  11  14
ENDBRANCH  10  11
ENDBRANCH   2  10
BRANCH   1  20
HETATM   20  C   UNL     1      -4.707   0.678 -32.091  1.00  0.00     0.119 A 
HETATM   21  N   UNL     1      -5.620   0.241 -31.166  1.00  0.00    -0.273 N 
HETATM   22  N   UNL     1      -6.427  -0.737 -31.605  1.00  0.00    -0.179 NA
HETATM   23  H   UNL     1      -5.730   0.581 -30.216  1.00  0.00     0.189 HD
HETATM   24  C   UNL     1      -6.115  -0.850 -32.901  1.00  0.00     0.057 A 
HETATM   25  C   UNL     1      -5.049   0.014 -33.254  1.00  0.00     0.065 A 
BRANCH  24  26
HETATM   26  C   UNL     1      -6.883  -1.777 -33.783  1.00  0.00     0.061 C 
BRANCH  26  27
HETATM   27  C   UNL     1      -5.968  -2.553 -34.733  1.00  0.00     0.002 C 
HETATM   28  C   UNL     1      -6.497  -3.952 -35.002  1.00  0.00     0.005 C 
ENDBRANCH  26  27
ENDBRANCH  24  26
ENDBRANCH   1  20
TORSDOF 8
ENDMDL
MODEL 8
REMARK VINA RESULT:      -7.0      2.554      6.295
REMARK  8 active torsions:
REMARK  status: ('A' for Active; 'I' for Inactive)
REMARK    1  A    between atoms: C_2  and  C_3 
REMARK    2  A    between atoms: C_3  and  C_4 
REMARK    3  A    between atoms: C_8  and  C_9 
REMARK       I    between atoms: C_9  and  N_10 
REMARK    4  A    between atoms: N_10  and  C_11 
REMARK    5  A    between atoms: N_10  and  C_17 
REMARK    6  A    between atoms: C_17  and  C_18 
REMARK    7  A    between atoms: C_18  and  O_19 
REMARK    8  A    between atoms: C_18  and  C_20 
ROOT
HETATM    1  C   UNL     1      -3.844   1.512 -31.642  1.00  0.00     0.272 C 
HETATM    2  N   UNL     1      -5.027   2.260 -31.621  1.00  0.00    -0.339 N 
HETATM    3  O   UNL     1      -2.775   1.984 -31.265  1.00  0.00    -0.266 OA
ENDROOT
BRANCH   2   4
HETATM    4  C   UNL     1      -5.030   3.640 -31.065  1.00  0.00     0.087 C 
HETATM    5  C   UNL     1      -5.462   4.691 -32.103  1.00  0.00     0.025 C 
HETATM    6  C   UNL     1      -6.909   5.154 -32.004  1.00  0.00     0.002 C 
HETATM    7  C   UNL     1      -7.269   5.550 -30.580  1.00  0.00     0.000 C 
HETATM    8  C   UNL     1      -7.080   4.389 -29.618  1.00  0.00     0.002 C 
HETATM    9  C   UNL     1      -5.674   3.792 -29.671  1.00  0.00     0.025 C 
ENDBRANCH   2   4
BRANCH   2  10
HETATM   10  C   UNL     1      -6.242   1.879 -32.376  1.00  0.00     0.163 C 
BRANCH  10  11
HETATM   11  C   UNL     1      -7.386   1.351 -31.483  1.00  0.00     0.169 C 
BRANCH  11  12
HETATM   12  O   UNL     1      -7.098   0.022 -31.035  1.00  0.00    -0.389 OA
HETATM   13  H   UNL     1      -7.839  -0.247 -30.463  1.00  0.00     0.210 HD
ENDBRANCH  11  12
BRANCH  11  14
HETATM   14  C   UNL     1      -8.705   1.332 -32.230  1.00  0.00    -0.028 A 
HETATM   15  C   UNL     1      -9.410   0.132 -32.395  1.00  0.00     0.010 A 
HETATM   16  C   UNL     1     -10.627   0.116 -33.080  1.00  0.00     0.001 A 
HETATM   17  C   UNL     1     -11.153   1.296 -33.604  1.00  0.00     0.000 A 
HETATM   18  C   UNL     1     -10.467   2.497 -33.440  1.00  0.00     0.001 A 
HETATM   19  C   UNL     1      -9.251   2.516 -32.755  1.00  0.00     0.010 A 
ENDBRANCH  11  14
ENDBRANCH  10  11
ENDBRANCH   2  10
BRANCH   1  20
HETATM   20  C   UNL     1      -3.843   0.165 -32.158  1.00  0.00     0.119 A 
HETATM   21  N   UNL     1      -3.373  -0.870 -31.391  1.00  0.00    -0.273 N 
HETATM   22  N   UNL     1      -3.431  -2.070 -31.989  1.00  0.00    -0.179 NA
HETATM   23  H   UNL     1      -2.998  -0.806 -30.450  1.00  0.00     0.189 HD
HETATM   24  C   UNL     1      -4.082  -1.826 -33.132  1.00  0.00     0.057 A 
HETATM   25  C   UNL     1      -4.363  -0.446 -33.283  1.00  0.00     0.065 A 
BRANCH  24  26
HETATM   26  C   UNL     1      -4.447  -2.948 -34.046  1.00  0.00     0.061 C 
BRANCH  26  27
HETATM   27  C   UNL     1      -5.835  -2.758 -34.659  1.00  0.00     0.002 C 
HETATM   28  C   UNL     1      -6.469  -4.089 -35.033  1.00  0.00     0.005 C 
ENDBRANCH  26  27
ENDBRANCH  24  26
ENDBRANCH   1  20
TORSDOF 8
ENDMDL
MODEL 9
REMARK VINA RESULT:      -7.0     14.107     15.778
REMARK  8 active torsions:
REMARK  status: ('A' for Active; 'I' for Inactive)
REMARK    1  A    between atoms: C_2  and  C_3 
REMARK    2  A    between atoms: C_3  and  C_4 
REMARK    3  A    between atoms: C_8  and  C_9 
REMARK       I    between atoms: C_9  and  N_10 
REMARK    4  A    between atoms: N_10  and  C_11 
REMARK    5  A    between atoms: N_10  and  C_17 
REMARK    6  A    between atoms: C_17  and  C_18 
REMARK    7  A    between atoms: C_18  and  O_19 
REMARK    8  A    between atoms: C_18  and  C_20 
ROOT
HETATM    1  C   UNL     1      -5.642 -13.781 -37.225  1.00  0.00     0.272 C 
HETATM    2  N   UNL     1      -4.496 -14.036 -37.986  1.00  0.00    -0.339 N 
HETATM    3  O   UNL     1      -5.579 -13.550 -36.020  1.00  0.00    -0.266 OA
ENDROOT
BRANCH   2   4
HETATM    4  C   UNL     1      -3.149 -13.962 -37.359  1.00  0.00     0.087 C 
HETATM    5  C   UNL     1      -2.366 -15.281 -37.487  1.00  0.00     0.025 C 
HETATM    6  C   UNL     1      -1.327 -15.322 -38.600  1.00  0.00     0.002 C 
HETATM    7  C   UNL     1      -0.421 -14.101 -38.557  1.00  0.00     0.000 C 
HETATM    8  C   UNL     1      -1.217 -12.815 -38.704  1.00  0.00     0.002 C 
HETATM    9  C   UNL     1      -2.339 -12.687 -37.675  1.00  0.00     0.025 C 
ENDBRANCH   2   4
BRANCH   2  10
HETATM   10  C   UNL     1      -4.536 -14.658 -39.329  1.00  0.00     0.163 C 
BRANCH  10  11
HETATM   11  C   UNL     1      -4.135 -13.695 -40.469  1.00  0.00     0.169 C 
BRANCH  11  12
HETATM   12  O   UNL     1      -5.180 -12.747 -40.713  1.00  0.00    -0.389 OA
HETATM   13  H   UNL     1      -5.951 -13.255 -41.024  1.00  0.00     0.210 HD
ENDBRANCH  11  12
BRANCH  11  14
HETATM   14  C   UNL     1      -3.858 -14.448 -41.755  1.00  0.00    -0.028 A 
HETATM   15  C   UNL     1      -4.644 -14.222 -42.893  1.00  0.00     0.010 A 
HETATM   16  C   UNL     1      -4.387 -14.914 -44.079  1.00  0.00     0.001 A 
HETATM   17  C   UNL     1      -3.341 -15.834 -44.142  1.00  0.00     0.000 A 
HETATM   18  C   UNL     1      -2.546 -16.061 -43.021  1.00  0.00     0.001 A 
HETATM   19  C   UNL     1      -2.801 -15.370 -41.835  1.00  0.00     0.010 A 
ENDBRANCH  11  14
ENDBRANCH  10  11
ENDBRANCH   2  10
BRANCH   1  20
HETATM   20  C   UNL     1      -6.948 -13.828 -37.835  1.00  0.00     0.119 A 
HETATM   21  N   UNL     1      -7.725 -14.952 -37.723  1.00  0.00    -0.273 N 
HETATM   22  N   UNL     1      -8.917 -14.862 -38.333  1.00  0.00    -0.179 NA
HETATM   23  H   UNL     1      -7.483 -15.811 -37.239  1.00  0.00     0.189 HD
HETATM   24  C   UNL     1      -8.970 -13.591 -38.744  1.00  0.00     0.057 A 
HETATM   25  C   UNL     1      -7.766 -12.903 -38.455  1.00  0.00     0.065 A 
BRANCH  24  26
HETATM   26  C   UNL     1     -10.207 -13.057 -39.386  1.00  0.00     0.061 C 
BRANCH  26  27
HETATM   27  C   UNL     1      -9.914 -11.846 -40.274  1.00  0.00     0.002 C 
HETATM   28  C   UNL     1     -11.181 -11.071 -40.599  1.00  0.00     0.005 C 
ENDBRANCH  26  27
ENDBRANCH  24  26
ENDBRANCH   1  20
TORSDOF 8
ENDMDL
MODEL 10
REMARK VINA RESULT:      -7.0      2.304      4.785
REMARK  8 active torsions:
REMARK  status: ('A' for Active; 'I' for Inactive)
REMARK    1  A    between atoms: C_2  and  C_3 
REMARK    2  A    between atoms: C_3  and  C_4 
REMARK    3  A    between atoms: C_8  and  C_9 
REMARK       I    between atoms: C_9  and  N_10 
REMARK    4  A    between atoms: N_10  and  C_11 
REMARK    5  A    between atoms: N_10  and  C_17 
REMARK    6  A    between atoms: C_17  and  C_18 
REMARK    7  A    between atoms: C_18  and  O_19 
REMARK    8  A    between atoms: C_18  and  C_20 
ROOT
HETATM    1  C   UNL     1      -9.623   0.529 -32.951  1.00  0.00     0.272 C 
HETATM    2  N   UNL     1      -8.229   0.608 -33.036  1.00  0.00    -0.339 N 
HETATM    3  O   UNL     1     -10.195  -0.521 -32.671  1.00  0.00    -0.266 OA
ENDROOT
BRANCH   2   4
HETATM    4  C   UNL     1      -7.391  -0.579 -32.713  1.00  0.00     0.087 C 
HETATM    5  C   UNL     1      -7.271  -1.554 -33.899  1.00  0.00     0.025 C 
HETATM    6  C   UNL     1      -5.982  -1.452 -34.703  1.00  0.00     0.002 C 
HETATM    7  C   UNL     1      -4.760  -1.472 -33.798  1.00  0.00     0.000 C 
HETATM    8  C   UNL     1      -4.787  -0.321 -32.805  1.00  0.00     0.002 C 
HETATM    9  C   UNL     1      -6.070  -0.278 -31.976  1.00  0.00     0.025 C 
ENDBRANCH   2   4
BRANCH   2  10
HETATM   10  C   UNL     1      -7.517   1.722 -33.703  1.00  0.00     0.163 C 
BRANCH  10  11
HETATM   11  C   UNL     1      -7.164   2.887 -32.752  1.00  0.00     0.169 C 
BRANCH  11  12
HETATM   12  O   UNL     1      -8.169   3.905 -32.812  1.00  0.00    -0.389 OA
HETATM   13  H   UNL     1      -8.946   3.503 -33.240  1.00  0.00     0.210 HD
ENDBRANCH  11  12
BRANCH  11  14
HETATM   14  C   UNL     1      -5.828   3.507 -33.112  1.00  0.00    -0.028 A 
HETATM   15  C   UNL     1      -5.735   4.432 -34.161  1.00  0.00     0.010 A 
HETATM   16  C   UNL     1      -4.505   5.005 -34.491  1.00  0.00     0.001 A 
HETATM   17  C   UNL     1      -3.358   4.664 -33.777  1.00  0.00     0.000 A 
HETATM   18  C   UNL     1      -3.437   3.753 -32.727  1.00  0.00     0.001 A 
HETATM   19  C   UNL     1      -4.665   3.179 -32.394  1.00  0.00     0.010 A 
ENDBRANCH  11  14
ENDBRANCH  10  11
ENDBRANCH   2  10
BRANCH   1  20
HETATM   20  C   UNL     1     -10.437   1.685 -33.240  1.00  0.00     0.119 A 
HETATM   21  N   UNL     1     -10.707   2.605 -32.260  1.00  0.00    -0.273 N 
HETATM   22  N   UNL     1     -11.471   3.631 -32.663  1.00  0.00    -0.179 NA
HETATM   23  H   UNL     1     -10.393   2.573 -31.295  1.00  0.00     0.189 HD
HETATM   24  C   UNL     1     -11.593   3.441 -33.981  1.00  0.00     0.057 A 
HETATM   25  C   UNL     1     -10.963   2.241 -34.390  1.00  0.00     0.065 A 
BRANCH  24  26
HETATM   26  C   UNL     1     -12.297   4.450 -34.826  1.00  0.00     0.061 C 
BRANCH  26  27
HETATM   27  C   UNL     1     -11.615   5.818 -34.773  1.00  0.00     0.002 C 
HETATM   28  C   UNL     1     -10.215   5.769 -35.363  1.00  0.00     0.005 C 
ENDBRANCH  26  27
ENDBRANCH  24  26
ENDBRANCH   1  20
TORSDOF 8
ENDMDL
