MODEL 1
REMARK VINA RESULT:      -8.8      0.000      0.000
REMARK  9 active torsions:
REMARK  status: ('A' for Active; 'I' for Inactive)
REMARK    1  A    between atoms: C_2  and  O_3 
REMARK    2  A    between atoms: O_3  and  C_4 
REMARK    3  A    between atoms: C_5  and  C_6 
REMARK    4  A    between atoms: N_7  and  C_9 
REMARK    5  A    between atoms: C_9  and  C_10 
REMARK       I    between atoms: C_10  and  N_11 
REMARK    6  A    between atoms: N_11  and  C_12 
REMARK    7  A    between atoms: C_20  and  C_21 
REMARK    8  A    between atoms: C_21  and  O_22 
REMARK    9  A    between atoms: C_28  and  O_29 
ROOT
HETATM    1  C   UNL     1      -8.594   2.002 -32.835  1.00  0.00     0.231 C 
HETATM    2  N   UNL     1      -7.863   3.357 -32.772  1.00  0.00    -0.054 N 
HETATM    3  H   UNL     1      -7.144   3.143 -32.066  1.00  0.00     0.281 HD
HETATM    4  C   UNL     1      -8.679   4.464 -32.172  1.00  0.00     0.239 C 
HETATM    5  C   UNL     1     -10.017   4.601 -32.872  1.00  0.00     0.066 C 
HETATM    6  C   UNL     1     -10.799   3.294 -32.771  1.00  0.00     0.065 C 
HETATM    7  C   UNL     1     -10.008   2.155 -33.458  1.00  0.00     0.055 C 
HETATM    8  C   UNL     1     -12.200   3.436 -33.391  1.00  0.00     0.038 C 
HETATM    9  C   UNL     1     -12.989   2.130 -33.303  1.00  0.00     0.003 C 
HETATM   10  C   UNL     1     -12.222   0.971 -33.923  1.00  0.00     0.001 C 
HETATM   11  C   UNL     1     -10.811   0.837 -33.353  1.00  0.00     0.010 C 
ENDROOT
BRANCH   2  12
HETATM   12  C   UNL     1      -7.033   3.776 -34.008  1.00  0.00     0.338 C 
BRANCH  12  13
HETATM   13  C   UNL     1      -5.579   4.071 -33.585  1.00  0.00     0.248 C 
HETATM   14  N   UNL     1      -5.277   5.427 -33.738  1.00  0.00    -0.319 N 
HETATM   15  H   UNL     1      -5.965   6.030 -34.169  1.00  0.00     0.169 HD
HETATM   16  O   UNL     1      -4.877   3.233 -33.030  1.00  0.00    -0.271 OA
BRANCH  14  17
HETATM   17  C   UNL     1      -4.565   6.057 -32.738  1.00  0.00     0.094 C 
HETATM   18  S   UNL     1      -5.456   6.089 -31.288  1.00  0.00    -0.075 SA
HETATM   19  C   UNL     1      -4.107   6.630 -30.420  1.00  0.00    -0.008 C 
HETATM   20  C   UNL     1      -3.022   6.896 -31.236  1.00  0.00    -0.026 C 
HETATM   21  C   UNL     1      -4.137   6.796 -28.930  1.00  0.00     0.047 C 
HETATM   22  C   UNL     1      -1.754   7.491 -30.677  1.00  0.00     0.041 C 
HETATM   23  C   UNL     1      -3.304   6.610 -32.633  1.00  0.00     0.080 C 
HETATM   24  C   UNL     1      -1.678   7.370 -29.147  1.00  0.00     0.005 C 
HETATM   25  C   UNL     1      -3.009   7.727 -28.473  1.00  0.00     0.005 C 
BRANCH  23  26
HETATM   26  C   UNL     1      -2.411   6.918 -33.755  1.00  0.00     0.296 C 
HETATM   27  O   UNL     1      -1.740   7.941 -33.816  1.00  0.00    -0.259 OA
BRANCH  26  28
HETATM   28  O   UNL     1      -2.510   6.006 -34.769  1.00  0.00    -0.322 OA
HETATM   29  C   UNL     1      -1.390   5.125 -34.871  1.00  0.00     0.213 C 
ENDBRANCH  26  28
ENDBRANCH  23  26
ENDBRANCH  14  17
ENDBRANCH  12  13
ENDBRANCH   2  12
BRANCH   1  30
HETATM   30  C   UNL     1      -7.676   0.879 -33.312  1.00  0.00     0.006 A 
HETATM   31  C   UNL     1      -6.860   0.099 -32.466  1.00  0.00     0.077 A 
HETATM   32  C   UNL     1      -6.067  -0.922 -33.002  1.00  0.00     0.037 A 
HETATM   33  C   UNL     1      -6.066  -1.175 -34.373  1.00  0.00     0.003 A 
HETATM   34  C   UNL     1      -6.866  -0.419 -35.219  1.00  0.00     0.001 A 
HETATM   35  C   UNL     1      -7.665   0.596 -34.697  1.00  0.00     0.012 A 
BRANCH  31  36
HETATM   36  O   UNL     1      -6.939   0.345 -31.120  1.00  0.00    -0.351 OA
BRANCH  36  37
HETATM   37  C   UNL     1      -5.745   0.813 -30.480  1.00  0.00     0.171 C 
HETATM   38  C   UNL     1      -6.044   2.178 -29.883  1.00  0.00     0.034 C 
ENDBRANCH  36  37
ENDBRANCH  31  36
ENDBRANCH   1  30
BRANCH   6  39
HETATM   39  O   UNL     1     -10.924   2.991 -31.376  1.00  0.00    -0.389 OA
HETATM   40  H   UNL     1     -10.687   3.781 -30.849  1.00  0.00     0.210 HD
ENDBRANCH   6  39
TORSDOF 9
ENDMDL
MODEL 2
REMARK VINA RESULT:      -8.7      1.391      1.706
REMARK  9 active torsions:
REMARK  status: ('A' for Active; 'I' for Inactive)
REMARK    1  A    between atoms: C_2  and  O_3 
REMARK    2  A    between atoms: O_3  and  C_4 
REMARK    3  A    between atoms: C_5  and  C_6 
REMARK    4  A    between atoms: N_7  and  C_9 
REMARK    5  A    between atoms: C_9  and  C_10 
REMARK       I    between atoms: C_10  and  N_11 
REMARK    6  A    between atoms: N_11  and  C_12 
REMARK    7  A    between atoms: C_20  and  C_21 
REMARK    8  A    between atoms: C_21  and  O_22 
REMARK    9  A    between atoms: C_28  and  O_29 
ROOT
HETATM    1  C   UNL     1      -8.891   2.098 -32.969  1.00  0.00     0.231 C 
HETATM    2  N   UNL     1      -8.098   3.304 -32.433  1.00  0.00    -0.054 N 
HETATM    3  H   UNL     1      -7.625   2.868 -31.629  1.00  0.00     0.281 HD
HETATM    4  C   UNL     1      -8.955   4.384 -31.840  1.00  0.00     0.239 C 
HETATM    5  C   UNL     1     -10.028   4.829 -32.814  1.00  0.00     0.066 C 
HETATM    6  C   UNL     1     -10.913   3.646 -33.198  1.00  0.00     0.065 C 
HETATM    7  C   UNL     1     -10.057   2.555 -33.887  1.00  0.00     0.055 C 
HETATM    8  C   UNL     1     -12.068   4.090 -34.112  1.00  0.00     0.038 C 
HETATM    9  C   UNL     1     -12.955   2.912 -34.511  1.00  0.00     0.003 C 
HETATM   10  C   UNL     1     -12.143   1.792 -35.146  1.00  0.00     0.001 C 
HETATM   11  C   UNL     1     -10.963   1.363 -34.276  1.00  0.00     0.010 C 
ENDROOT
BRANCH   2  12
HETATM   12  C   UNL     1      -6.924   3.826 -33.295  1.00  0.00     0.338 C 
BRANCH  12  13
HETATM   13  C   UNL     1      -6.263   5.035 -32.601  1.00  0.00     0.248 C 
HETATM   14  N   UNL     1      -5.506   4.627 -31.499  1.00  0.00    -0.319 N 
HETATM   15  H   UNL     1      -5.536   3.655 -31.224  1.00  0.00     0.169 HD
HETATM   16  O   UNL     1      -6.282   6.159 -33.089  1.00  0.00    -0.271 OA
BRANCH  14  17
HETATM   17  C   UNL     1      -4.265   5.199 -31.308  1.00  0.00     0.094 C 
HETATM   18  S   UNL     1      -4.347   6.454 -30.160  1.00  0.00    -0.075 SA
HETATM   19  C   UNL     1      -2.658   6.563 -30.095  1.00  0.00    -0.008 C 
HETATM   20  C   UNL     1      -2.037   5.739 -31.017  1.00  0.00    -0.026 C 
HETATM   21  C   UNL     1      -1.959   7.475 -29.132  1.00  0.00     0.047 C 
HETATM   22  C   UNL     1      -0.540   5.763 -31.199  1.00  0.00     0.041 C 
HETATM   23  C   UNL     1      -2.992   4.960 -31.787  1.00  0.00     0.080 C 
HETATM   24  C   UNL     1       0.179   6.449 -30.026  1.00  0.00     0.005 C 
HETATM   25  C   UNL     1      -0.523   7.743 -29.595  1.00  0.00     0.005 C 
BRANCH  23  26
HETATM   26  C   UNL     1      -2.657   4.104 -32.930  1.00  0.00     0.296 C 
HETATM   27  O   UNL     1      -2.655   2.881 -32.872  1.00  0.00    -0.259 OA
BRANCH  26  28
HETATM   28  O   UNL     1      -2.228   4.819 -34.013  1.00  0.00    -0.322 OA
HETATM   29  C   UNL     1      -3.281   5.272 -34.865  1.00  0.00     0.213 C 
ENDBRANCH  26  28
ENDBRANCH  23  26
ENDBRANCH  14  17
ENDBRANCH  12  13
ENDBRANCH   2  12
BRANCH   1  30
HETATM   30  C   UNL     1      -7.972   0.967 -33.424  1.00  0.00     0.006 A 
HETATM   31  C   UNL     1      -7.278   0.101 -32.553  1.00  0.00     0.077 A 
HETATM   32  C   UNL     1      -6.473  -0.919 -33.072  1.00  0.00     0.037 A 
HETATM   33  C   UNL     1      -6.341  -1.089 -34.449  1.00  0.00     0.003 A 
HETATM   34  C   UNL     1      -7.020  -0.249 -35.321  1.00  0.00     0.001 A 
HETATM   35  C   UNL     1      -7.829   0.768 -34.816  1.00  0.00     0.012 A 
BRANCH  31  36
HETATM   36  O   UNL     1      -7.485   0.268 -31.208  1.00  0.00    -0.351 OA
BRANCH  36  37
HETATM   37  C   UNL     1      -6.354   0.062 -30.352  1.00  0.00     0.171 C 
HETATM   38  C   UNL     1      -5.778   1.425 -30.008  1.00  0.00     0.034 C 
ENDBRANCH  36  37
ENDBRANCH  31  36
ENDBRANCH   1  30
BRANCH   6  39
HETATM   39  O   UNL     1     -11.446   3.113 -31.980  1.00  0.00    -0.389 OA
HETATM   40  H   UNL     1     -10.748   2.613 -31.511  1.00  0.00     0.210 HD
ENDBRANCH   6  39
TORSDOF 9
ENDMDL
MODEL 3
REMARK VINA RESULT:      -8.7      2.574      8.076
REMARK  9 active torsions:
REMARK  status: ('A' for Active; 'I' for Inactive)
REMARK    1  A    between atoms: C_2  and  O_3 
REMARK    2  A    between atoms: O_3  and  C_4 
REMARK    3  A    between atoms: C_5  and  C_6 
REMARK    4  A    between atoms: N_7  and  C_9 
REMARK    5  A    between atoms: C_9  and  C_10 
REMARK       I    between atoms: C_10  and  N_11 
REMARK    6  A    between atoms: N_11  and  C_12 
REMARK    7  A    between atoms: C_20  and  C_21 
REMARK    8  A    between atoms: C_21  and  O_22 
REMARK    9  A    between atoms: C_28  and  O_29 
ROOT
HETATM    1  C   UNL     1      -4.322   6.496 -31.782  1.00  0.00     0.231 C 
HETATM    2  N   UNL     1      -4.809   5.044 -31.955  1.00  0.00    -0.054 N 
HETATM    3  H   UNL     1      -4.347   4.803 -32.843  1.00  0.00     0.281 HD
HETATM    4  C   UNL     1      -6.279   4.922 -32.236  1.00  0.00     0.239 C 
HETATM    5  C   UNL     1      -7.099   5.649 -31.188  1.00  0.00     0.066 C 
HETATM    6  C   UNL     1      -6.719   7.128 -31.155  1.00  0.00     0.065 C 
HETATM    7  C   UNL     1      -5.224   7.276 -30.786  1.00  0.00     0.055 C 
HETATM    8  C   UNL     1      -7.605   7.907 -30.167  1.00  0.00     0.038 C 
HETATM    9  C   UNL     1      -7.227   9.386 -30.119  1.00  0.00     0.003 C 
HETATM   10  C   UNL     1      -5.749   9.576 -29.810  1.00  0.00     0.001 C 
HETATM   11  C   UNL     1      -4.850   8.777 -30.752  1.00  0.00     0.010 C 
ENDROOT
BRANCH   2  12
HETATM   12  C   UNL     1      -4.260   3.986 -30.969  1.00  0.00     0.338 C 
BRANCH  12  13
HETATM   13  C   UNL     1      -3.732   2.767 -31.753  1.00  0.00     0.248 C 
HETATM   14  N   UNL     1      -4.319   1.584 -31.293  1.00  0.00    -0.319 N 
HETATM   15  H   UNL     1      -4.924   1.626 -30.485  1.00  0.00     0.169 HD
HETATM   16  O   UNL     1      -3.030   2.885 -32.750  1.00  0.00    -0.271 OA
BRANCH  14  17
HETATM   17  C   UNL     1      -4.734   0.654 -32.225  1.00  0.00     0.094 C 
HETATM   18  S   UNL     1      -3.554  -0.553 -32.441  1.00  0.00    -0.075 SA
HETATM   19  C   UNL     1      -4.624  -1.498 -33.352  1.00  0.00    -0.008 C 
HETATM   20  C   UNL     1      -5.828  -0.857 -33.589  1.00  0.00    -0.026 C 
HETATM   21  C   UNL     1      -4.259  -2.869 -33.834  1.00  0.00     0.047 C 
HETATM   22  C   UNL     1      -6.881  -1.479 -34.472  1.00  0.00     0.041 C 
HETATM   23  C   UNL     1      -5.882   0.455 -32.966  1.00  0.00     0.080 C 
HETATM   24  C   UNL     1      -6.638  -2.979 -34.701  1.00  0.00     0.005 C 
HETATM   25  C   UNL     1      -5.165  -3.287 -34.998  1.00  0.00     0.005 C 
BRANCH  23  26
HETATM   26  C   UNL     1      -6.960   1.432 -33.148  1.00  0.00     0.296 C 
HETATM   27  O   UNL     1      -7.172   2.006 -34.209  1.00  0.00    -0.259 OA
BRANCH  26  28
HETATM   28  O   UNL     1      -7.610   1.720 -31.980  1.00  0.00    -0.322 OA
HETATM   29  C   UNL     1      -8.689   0.834 -31.680  1.00  0.00     0.213 C 
ENDBRANCH  26  28
ENDBRANCH  23  26
ENDBRANCH  14  17
ENDBRANCH  12  13
ENDBRANCH   2  12
BRANCH   1  30
HETATM   30  C   UNL     1      -2.804   6.576 -31.647  1.00  0.00     0.006 A 
HETATM   31  C   UNL     1      -1.908   6.657 -32.734  1.00  0.00     0.077 A 
HETATM   32  C   UNL     1      -0.531   6.747 -32.503  1.00  0.00     0.037 A 
HETATM   33  C   UNL     1      -0.027   6.749 -31.203  1.00  0.00     0.003 A 
HETATM   34  C   UNL     1      -0.895   6.675 -30.122  1.00  0.00     0.001 A 
HETATM   35  C   UNL     1      -2.269   6.591 -30.340  1.00  0.00     0.012 A 
BRANCH  31  36
HETATM   36  O   UNL     1      -2.452   6.711 -33.991  1.00  0.00    -0.351 OA
BRANCH  36  37
HETATM   37  C   UNL     1      -2.376   5.515 -34.777  1.00  0.00     0.171 C 
HETATM   38  C   UNL     1      -3.775   5.200 -35.278  1.00  0.00     0.034 C 
ENDBRANCH  36  37
ENDBRANCH  31  36
ENDBRANCH   1  30
BRANCH   6  39
HETATM   39  O   UNL     1      -6.920   7.637 -32.479  1.00  0.00    -0.389 OA
HETATM   40  H   UNL     1      -7.077   8.602 -32.436  1.00  0.00     0.210 HD
ENDBRANCH   6  39
TORSDOF 9
ENDMDL
MODEL 4
REMARK VINA RESULT:      -8.6      2.546      5.647
REMARK  9 active torsions:
REMARK  status: ('A' for Active; 'I' for Inactive)
REMARK    1  A    between atoms: C_2  and  O_3 
REMARK    2  A    between atoms: O_3  and  C_4 
REMARK    3  A    between atoms: C_5  and  C_6 
REMARK    4  A    between atoms: N_7  and  C_9 
REMARK    5  A    between atoms: C_9  and  C_10 
REMARK       I    between atoms: C_10  and  N_11 
REMARK    6  A    between atoms: N_11  and  C_12 
REMARK    7  A    between atoms: C_20  and  C_21 
REMARK    8  A    between atoms: C_21  and  O_22 
REMARK    9  A    between atoms: C_28  and  O_29 
ROOT
HETATM    1  C   UNL     1      -5.989   0.369 -33.088  1.00  0.00     0.231 C 
HETATM    2  N   UNL     1      -5.381   1.030 -31.836  1.00  0.00    -0.054 N 
HETATM    3  H   UNL     1      -5.377   2.015 -32.135  1.00  0.00     0.281 HD
HETATM    4  C   UNL     1      -3.938   0.688 -31.603  1.00  0.00     0.239 C 
HETATM    5  C   UNL     1      -3.728  -0.813 -31.581  1.00  0.00     0.066 C 
HETATM    6  C   UNL     1      -4.178  -1.427 -32.904  1.00  0.00     0.065 C 
HETATM    7  C   UNL     1      -5.686  -1.154 -33.121  1.00  0.00     0.055 C 
HETATM    8  C   UNL     1      -3.886  -2.937 -32.943  1.00  0.00     0.038 C 
HETATM    9  C   UNL     1      -4.342  -3.565 -34.259  1.00  0.00     0.003 C 
HETATM   10  C   UNL     1      -5.810  -3.275 -34.538  1.00  0.00     0.001 C 
HETATM   11  C   UNL     1      -6.133  -1.784 -34.462  1.00  0.00     0.010 C 
ENDROOT
BRANCH   2  12
HETATM   12  C   UNL     1      -6.244   1.053 -30.552  1.00  0.00     0.338 C 
BRANCH  12  13
HETATM   13  C   UNL     1      -6.551   2.512 -30.155  1.00  0.00     0.248 C 
HETATM   14  N   UNL     1      -5.532   3.040 -29.358  1.00  0.00    -0.319 N 
HETATM   15  H   UNL     1      -4.784   2.427 -29.061  1.00  0.00     0.169 HD
HETATM   16  O   UNL     1      -7.486   3.138 -30.642  1.00  0.00    -0.271 OA
BRANCH  14  17
HETATM   17  C   UNL     1      -5.102   4.326 -29.611  1.00  0.00     0.094 C 
HETATM   18  S   UNL     1      -3.999   4.351 -30.908  1.00  0.00    -0.075 SA
HETATM   19  C   UNL     1      -4.051   6.042 -30.977  1.00  0.00    -0.008 C 
HETATM   20  C   UNL     1      -4.806   6.592 -29.955  1.00  0.00    -0.026 C 
HETATM   21  C   UNL     1      -3.334   6.815 -32.042  1.00  0.00     0.047 C 
HETATM   22  C   UNL     1      -4.894   8.086 -29.768  1.00  0.00     0.041 C 
HETATM   23  C   UNL     1      -5.393   5.575 -29.098  1.00  0.00     0.080 C 
HETATM   24  C   UNL     1      -4.427   8.857 -31.014  1.00  0.00     0.005 C 
HETATM   25  C   UNL     1      -3.140   8.272 -31.607  1.00  0.00     0.005 C 
BRANCH  23  26
HETATM   26  C   UNL     1      -6.126   5.838 -27.856  1.00  0.00     0.296 C 
HETATM   27  O   UNL     1      -5.601   6.315 -26.857  1.00  0.00    -0.259 OA
BRANCH  26  28
HETATM   28  O   UNL     1      -7.412   5.376 -27.898  1.00  0.00    -0.322 OA
HETATM   29  C   UNL     1      -8.276   6.136 -28.744  1.00  0.00     0.213 C 
ENDBRANCH  26  28
ENDBRANCH  23  26
ENDBRANCH  14  17
ENDBRANCH  12  13
ENDBRANCH   2  12
BRANCH   1  30
HETATM   30  C   UNL     1      -7.406   0.863 -33.364  1.00  0.00     0.006 A 
HETATM   31  C   UNL     1      -7.719   2.098 -33.969  1.00  0.00     0.077 A 
HETATM   32  C   UNL     1      -9.055   2.450 -34.196  1.00  0.00     0.037 A 
HETATM   33  C   UNL     1     -10.089   1.593 -33.822  1.00  0.00     0.003 A 
HETATM   34  C   UNL     1      -9.798   0.372 -33.228  1.00  0.00     0.001 A 
HETATM   35  C   UNL     1      -8.472   0.008 -33.003  1.00  0.00     0.012 A 
BRANCH  31  36
HETATM   36  O   UNL     1      -6.669   2.880 -34.374  1.00  0.00    -0.351 OA
BRANCH  36  37
HETATM   37  C   UNL     1      -6.580   4.188 -33.795  1.00  0.00     0.171 C 
HETATM   38  C   UNL     1      -5.314   4.843 -34.320  1.00  0.00     0.034 C 
ENDBRANCH  36  37
ENDBRANCH  31  36
ENDBRANCH   1  30
BRANCH   6  39
HETATM   39  O   UNL     1      -3.437  -0.771 -33.940  1.00  0.00    -0.389 OA
HETATM   40  H   UNL     1      -3.857  -0.952 -34.804  1.00  0.00     0.210 HD
ENDBRANCH   6  39
TORSDOF 9
ENDMDL
MODEL 5
REMARK VINA RESULT:      -8.5      1.625      2.404
REMARK  9 active torsions:
REMARK  status: ('A' for Active; 'I' for Inactive)
REMARK    1  A    between atoms: C_2  and  O_3 
REMARK    2  A    between atoms: O_3  and  C_4 
REMARK    3  A    between atoms: C_5  and  C_6 
REMARK    4  A    between atoms: N_7  and  C_9 
REMARK    5  A    between atoms: C_9  and  C_10 
REMARK       I    between atoms: C_10  and  N_11 
REMARK    6  A    between atoms: N_11  and  C_12 
REMARK    7  A    between atoms: C_20  and  C_21 
REMARK    8  A    between atoms: C_21  and  O_22 
REMARK    9  A    between atoms: C_28  and  O_29 
ROOT
HETATM    1  C   UNL     1      -8.539   1.961 -32.793  1.00  0.00     0.231 C 
HETATM    2  N   UNL     1      -7.672   3.218 -32.589  1.00  0.00    -0.054 N 
HETATM    3  H   UNL     1      -6.986   2.858 -31.911  1.00  0.00     0.281 HD
HETATM    4  C   UNL     1      -8.375   4.335 -31.874  1.00  0.00     0.239 C 
HETATM    5  C   UNL     1      -9.685   4.683 -32.554  1.00  0.00     0.066 C 
HETATM    6  C   UNL     1     -10.599   3.460 -32.589  1.00  0.00     0.065 C 
HETATM    7  C   UNL     1      -9.924   2.324 -33.394  1.00  0.00     0.055 C 
HETATM    8  C   UNL     1     -11.972   3.811 -33.188  1.00  0.00     0.038 C 
HETATM    9  C   UNL     1     -12.893   2.593 -33.237  1.00  0.00     0.003 C 
HETATM   10  C   UNL     1     -12.244   1.432 -33.977  1.00  0.00     0.001 C 
HETATM   11  C   UNL     1     -10.860   1.093 -33.427  1.00  0.00     0.010 C 
ENDROOT
BRANCH   2  12
HETATM   12  C   UNL     1      -6.792   3.677 -33.775  1.00  0.00     0.338 C 
BRANCH  12  13
HETATM   13  C   UNL     1      -5.302   3.597 -33.382  1.00  0.00     0.248 C 
HETATM   14  N   UNL     1      -4.659   4.817 -33.605  1.00  0.00    -0.319 N 
HETATM   15  H   UNL     1      -5.174   5.560 -34.058  1.00  0.00     0.169 HD
HETATM   16  O   UNL     1      -4.834   2.629 -32.794  1.00  0.00    -0.271 OA
BRANCH  14  17
HETATM   17  C   UNL     1      -3.783   5.281 -32.644  1.00  0.00     0.094 C 
HETATM   18  S   UNL     1      -2.170   5.079 -33.149  1.00  0.00    -0.075 SA
HETATM   19  C   UNL     1      -1.603   6.019 -31.859  1.00  0.00    -0.008 C 
HETATM   20  C   UNL     1      -2.613   6.388 -30.987  1.00  0.00    -0.026 C 
HETATM   21  C   UNL     1      -0.155   6.377 -31.715  1.00  0.00     0.047 C 
HETATM   22  C   UNL     1      -2.308   7.136 -29.714  1.00  0.00     0.041 C 
HETATM   23  C   UNL     1      -3.914   5.903 -31.418  1.00  0.00     0.080 C 
HETATM   24  C   UNL     1      -0.902   7.758 -29.726  1.00  0.00     0.005 C 
HETATM   25  C   UNL     1       0.154   6.789 -30.271  1.00  0.00     0.005 C 
BRANCH  23  26
HETATM   26  C   UNL     1      -5.154   6.009 -30.642  1.00  0.00     0.296 C 
HETATM   27  O   UNL     1      -5.835   7.025 -30.604  1.00  0.00    -0.259 OA
BRANCH  26  28
HETATM   28  O   UNL     1      -5.389   4.901 -29.876  1.00  0.00    -0.322 OA
HETATM   29  C   UNL     1      -6.261   5.132 -28.770  1.00  0.00     0.213 C 
ENDBRANCH  26  28
ENDBRANCH  23  26
ENDBRANCH  14  17
ENDBRANCH  12  13
ENDBRANCH   2  12
BRANCH   1  30
HETATM   30  C   UNL     1      -7.738   0.805 -33.387  1.00  0.00     0.006 A 
HETATM   31  C   UNL     1      -7.029  -0.150 -32.629  1.00  0.00     0.077 A 
HETATM   32  C   UNL     1      -6.339  -1.185 -33.272  1.00  0.00     0.037 A 
HETATM   33  C   UNL     1      -6.337  -1.280 -34.663  1.00  0.00     0.003 A 
HETATM   34  C   UNL     1      -7.032  -0.351 -35.423  1.00  0.00     0.001 A 
HETATM   35  C   UNL     1      -7.728   0.681 -34.795  1.00  0.00     0.012 A 
BRANCH  31  36
HETATM   36  O   UNL     1      -7.109  -0.051 -31.265  1.00  0.00    -0.351 OA
BRANCH  36  37
HETATM   37  C   UNL     1      -5.874   0.125 -30.558  1.00  0.00     0.171 C 
HETATM   38  C   UNL     1      -5.977   1.411 -29.757  1.00  0.00     0.034 C 
ENDBRANCH  36  37
ENDBRANCH  31  36
ENDBRANCH   1  30
BRANCH   6  39
HETATM   39  O   UNL     1     -10.767   3.028 -31.233  1.00  0.00    -0.389 OA
HETATM   40  H   UNL     1     -10.628   3.785 -30.631  1.00  0.00     0.210 HD
ENDBRANCH   6  39
TORSDOF 9
ENDMDL
MODEL 6
REMARK VINA RESULT:      -8.4      2.194      4.952
REMARK  9 active torsions:
REMARK  status: ('A' for Active; 'I' for Inactive)
REMARK    1  A    between atoms: C_2  and  O_3 
REMARK    2  A    between atoms: O_3  and  C_4 
REMARK    3  A    between atoms: C_5  and  C_6 
REMARK    4  A    between atoms: N_7  and  C_9 
REMARK    5  A    between atoms: C_9  and  C_10 
REMARK       I    between atoms: C_10  and  N_11 
REMARK    6  A    between atoms: N_11  and  C_12 
REMARK    7  A    between atoms: C_20  and  C_21 
REMARK    8  A    between atoms: C_21  and  O_22 
REMARK    9  A    between atoms: C_28  and  O_29 
ROOT
HETATM    1  C   UNL     1      -6.260   0.445 -32.940  1.00  0.00     0.231 C 
HETATM    2  N   UNL     1      -5.581   1.092 -31.718  1.00  0.00    -0.054 N 
HETATM    3  H   UNL     1      -5.637   2.086 -31.984  1.00  0.00     0.281 HD
HETATM    4  C   UNL     1      -4.112   0.801 -31.610  1.00  0.00     0.239 C 
HETATM    5  C   UNL     1      -3.844  -0.691 -31.655  1.00  0.00     0.066 C 
HETATM    6  C   UNL     1      -4.375  -1.282 -32.958  1.00  0.00     0.065 C 
HETATM    7  C   UNL     1      -5.905  -1.063 -33.047  1.00  0.00     0.055 C 
HETATM    8  C   UNL     1      -4.031  -2.777 -33.070  1.00  0.00     0.038 C 
HETATM    9  C   UNL     1      -4.566  -3.382 -34.367  1.00  0.00     0.003 C 
HETATM   10  C   UNL     1      -6.061  -3.143 -34.520  1.00  0.00     0.001 C 
HETATM   11  C   UNL     1      -6.433  -1.669 -34.369  1.00  0.00     0.010 C 
ENDROOT
BRANCH   2  12
HETATM   12  C   UNL     1      -6.339   1.042 -30.371  1.00  0.00     0.338 C 
BRANCH  12  13
HETATM   13  C   UNL     1      -6.674   2.474 -29.906  1.00  0.00     0.248 C 
HETATM   14  N   UNL     1      -5.537   3.121 -29.414  1.00  0.00    -0.319 N 
HETATM   15  H   UNL     1      -4.679   2.592 -29.329  1.00  0.00     0.169 HD
HETATM   16  O   UNL     1      -7.764   2.993 -30.123  1.00  0.00    -0.271 OA
BRANCH  14  17
HETATM   17  C   UNL     1      -5.323   4.435 -29.774  1.00  0.00     0.094 C 
HETATM   18  S   UNL     1      -6.291   5.482 -28.843  1.00  0.00    -0.075 SA
HETATM   19  C   UNL     1      -5.462   6.838 -29.427  1.00  0.00    -0.008 C 
HETATM   20  C   UNL     1      -4.537   6.515 -30.405  1.00  0.00    -0.026 C 
HETATM   21  C   UNL     1      -5.742   8.219 -28.917  1.00  0.00     0.047 C 
HETATM   22  C   UNL     1      -3.768   7.587 -31.135  1.00  0.00     0.041 C 
HETATM   23  C   UNL     1      -4.486   5.085 -30.660  1.00  0.00     0.080 C 
HETATM   24  C   UNL     1      -3.826   8.942 -30.410  1.00  0.00     0.005 C 
HETATM   25  C   UNL     1      -5.239   9.271 -29.913  1.00  0.00     0.005 C 
BRANCH  23  26
HETATM   26  C   UNL     1      -3.713   4.445 -31.729  1.00  0.00     0.296 C 
HETATM   27  O   UNL     1      -4.223   3.995 -32.747  1.00  0.00    -0.259 OA
BRANCH  26  28
HETATM   28  O   UNL     1      -2.393   4.295 -31.404  1.00  0.00    -0.322 OA
HETATM   29  C   UNL     1      -1.492   4.880 -32.344  1.00  0.00     0.213 C 
ENDBRANCH  26  28
ENDBRANCH  23  26
ENDBRANCH  14  17
ENDBRANCH  12  13
ENDBRANCH   2  12
BRANCH   1  30
HETATM   30  C   UNL     1      -7.713   0.890 -33.088  1.00  0.00     0.006 A 
HETATM   31  C   UNL     1      -8.119   2.206 -33.396  1.00  0.00     0.077 A 
HETATM   32  C   UNL     1      -9.479   2.508 -33.528  1.00  0.00     0.037 A 
HETATM   33  C   UNL     1     -10.447   1.520 -33.350  1.00  0.00     0.003 A 
HETATM   34  C   UNL     1     -10.064   0.219 -33.051  1.00  0.00     0.001 A 
HETATM   35  C   UNL     1      -8.713  -0.095 -32.922  1.00  0.00     0.012 A 
BRANCH  31  36
HETATM   36  O   UNL     1      -7.131   3.129 -33.619  1.00  0.00    -0.351 OA
BRANCH  36  37
HETATM   37  C   UNL     1      -7.555   4.454 -33.967  1.00  0.00     0.171 C 
HETATM   38  C   UNL     1      -7.422   5.324 -32.729  1.00  0.00     0.034 C 
ENDBRANCH  36  37
ENDBRANCH  31  36
ENDBRANCH   1  30
BRANCH   6  39
HETATM   39  O   UNL     1      -3.744  -0.566 -34.027  1.00  0.00    -0.389 OA
HETATM   40  H   UNL     1      -2.857  -0.943 -34.191  1.00  0.00     0.210 HD
ENDBRANCH   6  39
TORSDOF 9
ENDMDL
MODEL 7
REMARK VINA RESULT:      -8.3      3.208      9.218
REMARK  9 active torsions:
REMARK  status: ('A' for Active; 'I' for Inactive)
REMARK    1  A    between atoms: C_2  and  O_3 
REMARK    2  A    between atoms: O_3  and  C_4 
REMARK    3  A    between atoms: C_5  and  C_6 
REMARK    4  A    between atoms: N_7  and  C_9 
REMARK    5  A    between atoms: C_9  and  C_10 
REMARK       I    between atoms: C_10  and  N_11 
REMARK    6  A    between atoms: N_11  and  C_12 
REMARK    7  A    between atoms: C_20  and  C_21 
REMARK    8  A    between atoms: C_21  and  O_22 
REMARK    9  A    between atoms: C_28  and  O_29 
ROOT
HETATM    1  C   UNL     1      -2.046   7.903 -28.673  1.00  0.00     0.231 C 
HETATM    2  N   UNL     1      -1.420   6.636 -29.289  1.00  0.00    -0.054 N 
HETATM    3  H   UNL     1      -2.183   5.963 -29.133  1.00  0.00     0.281 HD
HETATM    4  C   UNL     1      -0.256   6.091 -28.513  1.00  0.00     0.239 C 
HETATM    5  C   UNL     1       0.795   7.158 -28.280  1.00  0.00     0.066 C 
HETATM    6  C   UNL     1       0.192   8.332 -27.513  1.00  0.00     0.065 C 
HETATM    7  C   UNL     1      -0.958   8.960 -28.337  1.00  0.00     0.055 C 
HETATM    8  C   UNL     1       1.262   9.386 -27.181  1.00  0.00     0.038 C 
HETATM    9  C   UNL     1       0.668  10.572 -26.421  1.00  0.00     0.003 C 
HETATM   10  C   UNL     1      -0.504  11.187 -27.174  1.00  0.00     0.001 C 
HETATM   11  C   UNL     1      -1.560  10.150 -27.554  1.00  0.00     0.010 C 
ENDROOT
BRANCH   2  12
HETATM   12  C   UNL     1      -1.230   6.609 -30.823  1.00  0.00     0.338 C 
BRANCH  12  13
HETATM   13  C   UNL     1      -1.499   5.187 -31.357  1.00  0.00     0.248 C 
HETATM   14  N   UNL     1      -2.701   4.681 -30.853  1.00  0.00    -0.319 N 
HETATM   15  H   UNL     1      -3.200   5.222 -30.161  1.00  0.00     0.169 HD
HETATM   16  O   UNL     1      -0.815   4.680 -32.239  1.00  0.00    -0.271 OA
BRANCH  14  17
HETATM   17  C   UNL     1      -3.541   4.008 -31.716  1.00  0.00     0.094 C 
HETATM   18  S   UNL     1      -3.416   2.325 -31.492  1.00  0.00    -0.075 SA
HETATM   19  C   UNL     1      -4.763   2.049 -32.481  1.00  0.00    -0.008 C 
HETATM   20  C   UNL     1      -5.236   3.209 -33.070  1.00  0.00    -0.026 C 
HETATM   21  C   UNL     1      -5.338   0.678 -32.673  1.00  0.00     0.047 C 
HETATM   22  C   UNL     1      -6.362   3.170 -34.072  1.00  0.00     0.041 C 
HETATM   23  C   UNL     1      -4.476   4.379 -32.662  1.00  0.00     0.080 C 
HETATM   24  C   UNL     1      -7.134   1.842 -34.030  1.00  0.00     0.005 C 
HETATM   25  C   UNL     1      -6.197   0.631 -33.942  1.00  0.00     0.005 C 
BRANCH  23  26
HETATM   26  C   UNL     1      -4.640   5.727 -33.216  1.00  0.00     0.296 C 
HETATM   27  O   UNL     1      -5.695   6.346 -33.168  1.00  0.00    -0.259 OA
BRANCH  26  28
HETATM   28  O   UNL     1      -3.533   6.153 -33.897  1.00  0.00    -0.322 OA
HETATM   29  C   UNL     1      -3.254   5.405 -35.080  1.00  0.00     0.213 C 
ENDBRANCH  26  28
ENDBRANCH  23  26
ENDBRANCH  14  17
ENDBRANCH  12  13
ENDBRANCH   2  12
BRANCH   1  30
HETATM   30  C   UNL     1      -3.311   8.331 -29.411  1.00  0.00     0.006 A 
HETATM   31  C   UNL     1      -4.493   7.563 -29.483  1.00  0.00     0.077 A 
HETATM   32  C   UNL     1      -5.609   8.056 -30.171  1.00  0.00     0.037 A 
HETATM   33  C   UNL     1      -5.565   9.300 -30.798  1.00  0.00     0.003 A 
HETATM   34  C   UNL     1      -4.411  10.069 -30.733  1.00  0.00     0.001 A 
HETATM   35  C   UNL     1      -3.296   9.593 -30.047  1.00  0.00     0.012 A 
BRANCH  31  36
HETATM   36  O   UNL     1      -4.510   6.374 -28.802  1.00  0.00    -0.351 OA
BRANCH  36  37
HETATM   37  C   UNL     1      -5.796   5.863 -28.430  1.00  0.00     0.171 C 
HETATM   38  C   UNL     1      -6.058   4.617 -29.258  1.00  0.00     0.034 C 
ENDBRANCH  36  37
ENDBRANCH  31  36
ENDBRANCH   1  30
BRANCH   6  39
HETATM   39  O   UNL     1      -0.348   7.801 -26.297  1.00  0.00    -0.389 OA
HETATM   40  H   UNL     1      -0.421   8.516 -25.634  1.00  0.00     0.210 HD
ENDBRANCH   6  39
TORSDOF 9
ENDMDL
MODEL 8
REMARK VINA RESULT:      -8.1      2.567      7.663
REMARK  9 active torsions:
REMARK  status: ('A' for Active; 'I' for Inactive)
REMARK    1  A    between atoms: C_2  and  O_3 
REMARK    2  A    between atoms: O_3  and  C_4 
REMARK    3  A    between atoms: C_5  and  C_6 
REMARK    4  A    between atoms: N_7  and  C_9 
REMARK    5  A    between atoms: C_9  and  C_10 
REMARK       I    between atoms: C_10  and  N_11 
REMARK    6  A    between atoms: N_11  and  C_12 
REMARK    7  A    between atoms: C_20  and  C_21 
REMARK    8  A    between atoms: C_21  and  O_22 
REMARK    9  A    between atoms: C_28  and  O_29 
ROOT
HETATM    1  C   UNL     1      -5.874   5.566 -32.495  1.00  0.00     0.231 C 
HETATM    2  N   UNL     1      -5.782   4.041 -32.695  1.00  0.00    -0.054 N 
HETATM    3  H   UNL     1      -4.932   3.986 -33.274  1.00  0.00     0.281 HD
HETATM    4  C   UNL     1      -6.873   3.471 -33.553  1.00  0.00     0.239 C 
HETATM    5  C   UNL     1      -8.242   3.869 -33.036  1.00  0.00     0.066 C 
HETATM    6  C   UNL     1      -8.372   5.390 -33.010  1.00  0.00     0.065 C 
HETATM    7  C   UNL     1      -7.305   5.991 -32.064  1.00  0.00     0.055 C 
HETATM    8  C   UNL     1      -9.786   5.819 -32.580  1.00  0.00     0.038 C 
HETATM    9  C   UNL     1      -9.925   7.340 -32.541  1.00  0.00     0.003 C 
HETATM   10  C   UNL     1      -8.859   7.976 -31.661  1.00  0.00     0.001 C 
HETATM   11  C   UNL     1      -7.448   7.531 -32.042  1.00  0.00     0.010 C 
ENDROOT
BRANCH   2  12
HETATM   12  C   UNL     1      -5.429   3.181 -31.460  1.00  0.00     0.338 C 
BRANCH  12  13
HETATM   13  C   UNL     1      -4.451   2.059 -31.867  1.00  0.00     0.248 C 
HETATM   14  N   UNL     1      -4.873   0.822 -31.371  1.00  0.00    -0.319 N 
HETATM   15  H   UNL     1      -5.675   0.796 -30.756  1.00  0.00     0.169 HD
HETATM   16  O   UNL     1      -3.539   2.245 -32.665  1.00  0.00    -0.271 OA
BRANCH  14  17
HETATM   17  C   UNL     1      -4.798  -0.277 -32.201  1.00  0.00     0.094 C 
HETATM   18  S   UNL     1      -3.455  -1.245 -31.803  1.00  0.00    -0.075 SA
HETATM   19  C   UNL     1      -3.992  -2.486 -32.824  1.00  0.00    -0.008 C 
HETATM   20  C   UNL     1      -5.115  -2.127 -33.549  1.00  0.00    -0.026 C 
HETATM   21  C   UNL     1      -3.288  -3.806 -32.906  1.00  0.00     0.047 C 
HETATM   22  C   UNL     1      -5.692  -3.046 -34.596  1.00  0.00     0.041 C 
HETATM   23  C   UNL     1      -5.572  -0.786 -33.225  1.00  0.00     0.080 C 
HETATM   24  C   UNL     1      -5.171  -4.486 -34.459  1.00  0.00     0.005 C 
HETATM   25  C   UNL     1      -3.660  -4.532 -34.204  1.00  0.00     0.005 C 
BRANCH  23  26
HETATM   26  C   UNL     1      -6.647  -0.070 -33.919  1.00  0.00     0.296 C 
HETATM   27  O   UNL     1      -6.572   0.278 -35.091  1.00  0.00    -0.259 OA
BRANCH  26  28
HETATM   28  O   UNL     1      -7.674   0.273 -33.083  1.00  0.00    -0.322 OA
HETATM   29  C   UNL     1      -8.961   0.246 -33.700  1.00  0.00     0.213 C 
ENDBRANCH  26  28
ENDBRANCH  23  26
ENDBRANCH  14  17
ENDBRANCH  12  13
ENDBRANCH   2  12
BRANCH   1  30
HETATM   30  C   UNL     1      -4.665   6.118 -31.744  1.00  0.00     0.006 A 
HETATM   31  C   UNL     1      -3.461   6.525 -32.356  1.00  0.00     0.077 A 
HETATM   32  C   UNL     1      -2.416   7.036 -31.577  1.00  0.00     0.037 A 
HETATM   33  C   UNL     1      -2.547   7.142 -30.193  1.00  0.00     0.003 A 
HETATM   34  C   UNL     1      -3.727   6.750 -29.576  1.00  0.00     0.001 A 
HETATM   35  C   UNL     1      -4.776   6.244 -30.341  1.00  0.00     0.012 A 
BRANCH  31  36
HETATM   36  O   UNL     1      -3.400   6.459 -33.723  1.00  0.00    -0.351 OA
BRANCH  36  37
HETATM   37  C   UNL     1      -2.093   6.450 -34.310  1.00  0.00     0.171 C 
HETATM   38  C   UNL     1      -1.826   5.048 -34.829  1.00  0.00     0.034 C 
ENDBRANCH  36  37
ENDBRANCH  31  36
ENDBRANCH   1  30
BRANCH   6  39
HETATM   39  O   UNL     1      -8.119   5.851 -34.343  1.00  0.00    -0.389 OA
HETATM   40  H   UNL     1      -8.558   5.255 -34.982  1.00  0.00     0.210 HD
ENDBRANCH   6  39
TORSDOF 9
ENDMDL
MODEL 9
REMARK VINA RESULT:      -8.1      1.284      2.298
REMARK  9 active torsions:
REMARK  status: ('A' for Active; 'I' for Inactive)
REMARK    1  A    between atoms: C_2  and  O_3 
REMARK    2  A    between atoms: O_3  and  C_4 
REMARK    3  A    between atoms: C_5  and  C_6 
REMARK    4  A    between atoms: N_7  and  C_9 
REMARK    5  A    between atoms: C_9  and  C_10 
REMARK       I    between atoms: C_10  and  N_11 
REMARK    6  A    between atoms: N_11  and  C_12 
REMARK    7  A    between atoms: C_20  and  C_21 
REMARK    8  A    between atoms: C_21  and  O_22 
REMARK    9  A    between atoms: C_28  and  O_29 
ROOT
HETATM    1  C   UNL     1      -7.830   2.316 -32.323  1.00  0.00     0.231 C 
HETATM    2  N   UNL     1      -7.317   3.582 -33.034  1.00  0.00    -0.054 N 
HETATM    3  H   UNL     1      -6.857   4.059 -32.245  1.00  0.00     0.281 HD
HETATM    4  C   UNL     1      -8.403   4.519 -33.475  1.00  0.00     0.239 C 
HETATM    5  C   UNL     1      -9.435   3.800 -34.323  1.00  0.00     0.066 C 
HETATM    6  C   UNL     1     -10.057   2.651 -33.533  1.00  0.00     0.065 C 
HETATM    7  C   UNL     1      -8.961   1.632 -33.139  1.00  0.00     0.055 C 
HETATM    8  C   UNL     1     -11.176   1.966 -34.337  1.00  0.00     0.038 C 
HETATM    9  C   UNL     1     -11.800   0.809 -33.559  1.00  0.00     0.003 C 
HETATM   10  C   UNL     1     -10.746  -0.193 -33.107  1.00  0.00     0.001 C 
HETATM   11  C   UNL     1      -9.602   0.471 -32.343  1.00  0.00     0.010 C 
ENDROOT
BRANCH   2  12
HETATM   12  C   UNL     1      -6.172   3.409 -34.060  1.00  0.00     0.338 C 
BRANCH  12  13
HETATM   13  C   UNL     1      -4.887   4.074 -33.525  1.00  0.00     0.248 C 
HETATM   14  N   UNL     1      -4.840   5.426 -33.876  1.00  0.00    -0.319 N 
HETATM   15  H   UNL     1      -5.559   5.794 -34.484  1.00  0.00     0.169 HD
HETATM   16  O   UNL     1      -4.126   3.500 -32.754  1.00  0.00    -0.271 OA
BRANCH  14  17
HETATM   17  C   UNL     1      -4.427   6.336 -32.924  1.00  0.00     0.094 C 
HETATM   18  S   UNL     1      -5.727   6.800 -31.927  1.00  0.00    -0.075 SA
HETATM   19  C   UNL     1      -4.680   7.590 -30.856  1.00  0.00    -0.008 C 
HETATM   20  C   UNL     1      -3.371   7.604 -31.305  1.00  0.00    -0.026 C 
HETATM   21  C   UNL     1      -5.168   8.201 -29.577  1.00  0.00     0.047 C 
HETATM   22  C   UNL     1      -2.297   8.350 -30.554  1.00  0.00     0.041 C 
HETATM   23  C   UNL     1      -3.219   6.904 -32.570  1.00  0.00     0.080 C 
HETATM   24  C   UNL     1      -2.725   8.700 -29.120  1.00  0.00     0.005 C 
HETATM   25  C   UNL     1      -4.161   9.236 -29.060  1.00  0.00     0.005 C 
BRANCH  23  26
HETATM   26  C   UNL     1      -1.990   6.862 -33.369  1.00  0.00     0.296 C 
HETATM   27  O   UNL     1      -1.543   7.836 -33.961  1.00  0.00    -0.259 OA
BRANCH  26  28
HETATM   28  O   UNL     1      -1.480   5.598 -33.481  1.00  0.00    -0.322 OA
HETATM   29  C   UNL     1      -0.873   5.108 -32.285  1.00  0.00     0.213 C 
ENDBRANCH  26  28
ENDBRANCH  23  26
ENDBRANCH  14  17
ENDBRANCH  12  13
ENDBRANCH   2  12
BRANCH   1  30
HETATM   30  C   UNL     1      -6.688   1.472 -31.763  1.00  0.00     0.006 A 
HETATM   31  C   UNL     1      -6.019   0.456 -32.479  1.00  0.00     0.077 A 
HETATM   32  C   UNL     1      -4.969  -0.249 -31.880  1.00  0.00     0.037 A 
HETATM   33  C   UNL     1      -4.576   0.036 -30.573  1.00  0.00     0.003 A 
HETATM   34  C   UNL     1      -5.221   1.034 -29.856  1.00  0.00     0.001 A 
HETATM   35  C   UNL     1      -6.264   1.747 -30.444  1.00  0.00     0.012 A 
BRANCH  31  36
HETATM   36  O   UNL     1      -6.400   0.252 -33.780  1.00  0.00    -0.351 OA
BRANCH  36  37
HETATM   37  C   UNL     1      -5.994  -0.982 -34.384  1.00  0.00     0.171 C 
HETATM   38  C   UNL     1      -7.144  -1.966 -34.247  1.00  0.00     0.034 C 
ENDBRANCH  36  37
ENDBRANCH  31  36
ENDBRANCH   1  30
BRANCH   6  39
HETATM   39  O   UNL     1     -10.608   3.220 -32.338  1.00  0.00    -0.389 OA
HETATM   40  H   UNL     1     -11.042   2.517 -31.814  1.00  0.00     0.210 HD
ENDBRANCH   6  39
TORSDOF 9
ENDMDL
MODEL 10
REMARK VINA RESULT:      -8.0      2.132      8.381
REMARK  9 active torsions:
REMARK  status: ('A' for Active; 'I' for Inactive)
REMARK    1  A    between atoms: C_2  and  O_3 
REMARK    2  A    between atoms: O_3  and  C_4 
REMARK    3  A    between atoms: C_5  and  C_6 
REMARK    4  A    between atoms: N_7  and  C_9 
REMARK    5  A    between atoms: C_9  and  C_10 
REMARK       I    between atoms: C_10  and  N_11 
REMARK    6  A    between atoms: N_11  and  C_12 
REMARK    7  A    between atoms: C_20  and  C_21 
REMARK    8  A    between atoms: C_21  and  O_22 
REMARK    9  A    between atoms: C_28  and  O_29 
ROOT
HETATM    1  C   UNL     1      -3.825   4.933 -30.940  1.00  0.00     0.231 C 
HETATM    2  N   UNL     1      -4.004   4.136 -32.247  1.00  0.00    -0.054 N 
HETATM    3  H   UNL     1      -4.432   3.276 -31.877  1.00  0.00     0.281 HD
HETATM    4  C   UNL     1      -2.714   3.691 -32.872  1.00  0.00     0.239 C 
HETATM    5  C   UNL     1      -1.770   4.861 -33.074  1.00  0.00     0.066 C 
HETATM    6  C   UNL     1      -1.470   5.530 -31.735  1.00  0.00     0.065 C 
HETATM    7  C   UNL     1      -2.781   6.069 -31.114  1.00  0.00     0.055 C 
HETATM    8  C   UNL     1      -0.439   6.661 -31.899  1.00  0.00     0.038 C 
HETATM    9  C   UNL     1      -0.137   7.345 -30.567  1.00  0.00     0.003 C 
HETATM   10  C   UNL     1      -1.409   7.844 -29.895  1.00  0.00     0.001 C 
HETATM   11  C   UNL     1      -2.465   6.749 -29.760  1.00  0.00     0.010 C 
ENDROOT
BRANCH   2  12
HETATM   12  C   UNL     1      -5.056   4.651 -33.257  1.00  0.00     0.338 C 
BRANCH  12  13
HETATM   13  C   UNL     1      -6.023   3.510 -33.631  1.00  0.00     0.248 C 
HETATM   14  N   UNL     1      -7.071   3.418 -32.710  1.00  0.00    -0.319 N 
HETATM   15  H   UNL     1      -7.047   4.009 -31.891  1.00  0.00     0.169 HD
HETATM   16  O   UNL     1      -5.942   2.907 -34.696  1.00  0.00    -0.271 OA
BRANCH  14  17
HETATM   17  C   UNL     1      -8.349   3.219 -33.190  1.00  0.00     0.094 C 
HETATM   18  S   UNL     1      -9.026   4.682 -33.736  1.00  0.00    -0.075 SA
HETATM   19  C   UNL     1     -10.333   3.867 -34.439  1.00  0.00    -0.008 C 
HETATM   20  C   UNL     1     -10.321   2.510 -34.165  1.00  0.00    -0.026 C 
HETATM   21  C   UNL     1     -11.369   4.582 -35.252  1.00  0.00     0.047 C 
HETATM   22  C   UNL     1     -11.453   1.617 -34.606  1.00  0.00     0.041 C 
HETATM   23  C   UNL     1      -9.168   2.121 -33.371  1.00  0.00     0.080 C 
HETATM   24  C   UNL     1     -12.333   2.277 -35.680  1.00  0.00     0.005 C 
HETATM   25  C   UNL     1     -12.648   3.741 -35.348  1.00  0.00     0.005 C 
BRANCH  23  26
HETATM   26  C   UNL     1      -8.945   0.787 -32.803  1.00  0.00     0.296 C 
HETATM   27  O   UNL     1      -9.254   0.487 -31.657  1.00  0.00    -0.259 OA
BRANCH  26  28
HETATM   28  O   UNL     1      -8.245  -0.031 -33.647  1.00  0.00    -0.322 OA
HETATM   29  C   UNL     1      -7.002  -0.490 -33.114  1.00  0.00     0.213 C 
ENDBRANCH  26  28
ENDBRANCH  23  26
ENDBRANCH  14  17
ENDBRANCH  12  13
ENDBRANCH   2  12
BRANCH   1  30
HETATM   30  C   UNL     1      -5.162   5.233 -30.267  1.00  0.00     0.006 A 
HETATM   31  C   UNL     1      -6.005   4.258 -29.694  1.00  0.00     0.077 A 
HETATM   32  C   UNL     1      -7.205   4.640 -29.082  1.00  0.00     0.037 A 
HETATM   33  C   UNL     1      -7.584   5.981 -29.037  1.00  0.00     0.003 A 
HETATM   34  C   UNL     1      -6.764   6.953 -29.592  1.00  0.00     0.001 A 
HETATM   35  C   UNL     1      -5.564   6.586 -30.199  1.00  0.00     0.012 A 
BRANCH  31  36
HETATM   36  O   UNL     1      -5.564   2.961 -29.710  1.00  0.00    -0.351 OA
BRANCH  36  37
HETATM   37  C   UNL     1      -6.561   1.943 -29.860  1.00  0.00     0.171 C 
HETATM   38  C   UNL     1      -5.879   0.596 -29.688  1.00  0.00     0.034 C 
ENDBRANCH  36  37
ENDBRANCH  31  36
ENDBRANCH   1  30
BRANCH   6  39
HETATM   39  O   UNL     1      -0.934   4.518 -30.875  1.00  0.00    -0.389 OA
HETATM   40  H   UNL     1      -1.163   4.725 -29.947  1.00  0.00     0.210 HD
ENDBRANCH   6  39
TORSDOF 9
ENDMDL
