MODEL 1
REMARK VINA RESULT:      -8.6      0.000      0.000
REMARK  3 active torsions:
REMARK  status: ('A' for Active; 'I' for Inactive)
REMARK    1  A    between atoms: O_2  and  C_3 
REMARK    2  A    between atoms: C_9  and  C_10 
REMARK       I    between atoms: C_10  and  N_11 
REMARK    3  A    between atoms: N_11  and  C_12 
ROOT
HETATM    1  C   UNL     1      -5.640  -2.987 -34.577  1.00  0.00     0.068 A 
HETATM    2  C   UNL     1      -4.552  -2.466 -33.874  1.00  0.00     0.044 A 
HETATM    3  C   UNL     1      -4.528  -1.119 -33.488  1.00  0.00    -0.043 A 
HETATM    4  C   UNL     1      -5.603  -0.275 -33.850  1.00  0.00    -0.001 A 
HETATM    5  C   UNL     1      -5.532   1.098 -33.380  1.00  0.00     0.069 A 
HETATM    6  C   UNL     1      -4.619   1.555 -32.455  1.00  0.00     0.007 A 
HETATM    7  C   UNL     1      -4.943   2.915 -32.233  1.00  0.00     0.153 A 
HETATM    8  N   UNL     1      -5.989   3.290 -33.008  1.00  0.00    -0.168 NA
HETATM    9  N   UNL     1      -6.308   2.171 -33.696  1.00  0.00    -0.276 N 
HETATM   10  H   UNL     1      -7.075   2.214 -34.357  1.00  0.00     0.189 HD
HETATM   11  C   UNL     1      -3.609   0.651 -31.842  1.00  0.00     0.048 C 
HETATM   12  C   UNL     1      -3.311  -0.554 -32.764  1.00  0.00     0.044 C 
HETATM   13  C   UNL     1      -6.678  -0.792 -34.575  1.00  0.00     0.017 A 
HETATM   14  C   UNL     1      -6.695  -2.146 -34.935  1.00  0.00     0.037 A 
ENDROOT
BRANCH   7  15
HETATM   15  C   UNL     1      -4.315   3.845 -31.271  1.00  0.00     0.277 C 
HETATM   16  N   UNL     1      -3.074   4.266 -31.707  1.00  0.00    -0.319 N 
HETATM   17  H   UNL     1      -2.861   3.941 -32.648  1.00  0.00     0.169 HD
HETATM   18  O   UNL     1      -4.905   4.213 -30.264  1.00  0.00    -0.266 OA
BRANCH  16  19
HETATM   19  C   UNL     1      -2.199   5.185 -31.099  1.00  0.00     0.074 A 
HETATM   20  C   UNL     1      -2.491   6.530 -30.832  1.00  0.00     0.144 A 
HETATM   21  F   UNL     1      -3.710   7.044 -31.038  1.00  0.00    -0.204 F 
HETATM   22  C   UNL     1      -1.542   7.377 -30.261  1.00  0.00     0.068 A 
HETATM   23  C   UNL     1      -0.286   6.882 -29.937  1.00  0.00     0.037 A 
HETATM   24 CL   UNL     1       0.894   7.924 -29.243  1.00  0.00    -0.084 Cl
HETATM   25  C   UNL     1       0.020   5.542 -30.162  1.00  0.00     0.026 A 
HETATM   26  C   UNL     1      -0.938   4.695 -30.731  1.00  0.00     0.034 A 
ENDBRANCH  16  19
ENDBRANCH   7  15
BRANCH   1  27
HETATM   27  O   UNL     1      -5.546  -4.321 -34.865  1.00  0.00    -0.356 OA
HETATM   28  C   UNL     1      -4.557  -5.059 -34.159  1.00  0.00     0.210 C 
ENDBRANCH   1  27
TORSDOF 3
ENDMDL
MODEL 2
REMARK VINA RESULT:      -8.5      1.936      2.693
REMARK  3 active torsions:
REMARK  status: ('A' for Active; 'I' for Inactive)
REMARK    1  A    between atoms: O_2  and  C_3 
REMARK    2  A    between atoms: C_9  and  C_10 
REMARK       I    between atoms: C_10  and  N_11 
REMARK    3  A    between atoms: N_11  and  C_12 
ROOT
HETATM    1  C   UNL     1      -4.836  -4.064 -34.191  1.00  0.00     0.068 A 
HETATM    2  C   UNL     1      -5.628  -2.920 -34.304  1.00  0.00     0.044 A 
HETATM    3  C   UNL     1      -5.285  -1.742 -33.628  1.00  0.00    -0.043 A 
HETATM    4  C   UNL     1      -4.143  -1.729 -32.793  1.00  0.00    -0.001 A 
HETATM    5  C   UNL     1      -3.822  -0.462 -32.157  1.00  0.00     0.069 A 
HETATM    6  C   UNL     1      -4.417   0.738 -32.477  1.00  0.00     0.007 A 
HETATM    7  C   UNL     1      -3.770   1.713 -31.680  1.00  0.00     0.153 A 
HETATM    8  N   UNL     1      -2.837   1.138 -30.884  1.00  0.00    -0.168 NA
HETATM    9  N   UNL     1      -2.908  -0.177 -31.190  1.00  0.00    -0.276 N 
HETATM   10  H   UNL     1      -2.293  -0.820 -30.704  1.00  0.00     0.189 HD
HETATM   11  C   UNL     1      -5.461   0.836 -33.532  1.00  0.00     0.048 C 
HETATM   12  C   UNL     1      -6.187  -0.516 -33.722  1.00  0.00     0.044 C 
HETATM   13  C   UNL     1      -3.367  -2.882 -32.662  1.00  0.00     0.017 A 
HETATM   14  C   UNL     1      -3.713  -4.045 -33.361  1.00  0.00     0.037 A 
ENDROOT
BRANCH   7  15
HETATM   15  C   UNL     1      -3.983   3.176 -31.696  1.00  0.00     0.277 C 
HETATM   16  N   UNL     1      -2.832   3.860 -31.354  1.00  0.00    -0.319 N 
HETATM   17  H   UNL     1      -2.029   3.244 -31.250  1.00  0.00     0.169 HD
HETATM   18  O   UNL     1      -5.050   3.660 -32.047  1.00  0.00    -0.266 OA
BRANCH  16  19
HETATM   19  C   UNL     1      -2.623   5.250 -31.309  1.00  0.00     0.074 A 
HETATM   20  C   UNL     1      -1.618   5.945 -31.997  1.00  0.00     0.144 A 
HETATM   21  F   UNL     1      -0.811   5.335 -32.874  1.00  0.00    -0.204 F 
HETATM   22  C   UNL     1      -1.464   7.323 -31.857  1.00  0.00     0.068 A 
HETATM   23  C   UNL     1      -2.329   8.031 -31.032  1.00  0.00     0.037 A 
HETATM   24 CL   UNL     1      -2.138   9.730 -30.846  1.00  0.00    -0.084 Cl
HETATM   25  C   UNL     1      -3.357   7.371 -30.363  1.00  0.00     0.026 A 
HETATM   26  C   UNL     1      -3.509   5.988 -30.510  1.00  0.00     0.034 A 
ENDBRANCH  16  19
ENDBRANCH   7  15
BRANCH   1  27
HETATM   27  O   UNL     1      -5.271  -5.133 -34.925  1.00  0.00    -0.356 OA
HETATM   28  C   UNL     1      -6.428  -4.930 -35.727  1.00  0.00     0.210 C 
ENDBRANCH   1  27
TORSDOF 3
ENDMDL
MODEL 3
REMARK VINA RESULT:      -8.4      5.178      6.905
REMARK  3 active torsions:
REMARK  status: ('A' for Active; 'I' for Inactive)
REMARK    1  A    between atoms: O_2  and  C_3 
REMARK    2  A    between atoms: C_9  and  C_10 
REMARK       I    between atoms: C_10  and  N_11 
REMARK    3  A    between atoms: N_11  and  C_12 
ROOT
HETATM    1  C   UNL     1      -4.254  -2.967 -33.811  1.00  0.00     0.068 A 
HETATM    2  C   UNL     1      -5.354  -2.478 -34.518  1.00  0.00     0.044 A 
HETATM    3  C   UNL     1      -5.892  -1.218 -34.225  1.00  0.00    -0.043 A 
HETATM    4  C   UNL     1      -5.332  -0.453 -33.175  1.00  0.00    -0.001 A 
HETATM    5  C   UNL     1      -5.911   0.861 -32.954  1.00  0.00     0.069 A 
HETATM    6  C   UNL     1      -6.797   1.472 -33.814  1.00  0.00     0.007 A 
HETATM    7  C   UNL     1      -7.050   2.751 -33.261  1.00  0.00     0.153 A 
HETATM    8  N   UNL     1      -6.375   2.912 -32.098  1.00  0.00    -0.168 NA
HETATM    9  N   UNL     1      -5.710   1.745 -31.939  1.00  0.00    -0.276 N 
HETATM   10  H   UNL     1      -5.129   1.630 -31.116  1.00  0.00     0.189 HD
HETATM   11  C   UNL     1      -7.239   0.819 -35.075  1.00  0.00     0.048 C 
HETATM   12  C   UNL     1      -7.124  -0.720 -34.972  1.00  0.00     0.044 C 
HETATM   13  C   UNL     1      -4.248  -0.954 -32.452  1.00  0.00     0.017 A 
HETATM   14  C   UNL     1      -3.710  -2.208 -32.773  1.00  0.00     0.037 A 
ENDROOT
BRANCH   7  15
HETATM   15  C   UNL     1      -7.876   3.834 -33.837  1.00  0.00     0.277 C 
HETATM   16  N   UNL     1      -9.223   3.535 -33.771  1.00  0.00    -0.319 N 
HETATM   17  H   UNL     1      -9.407   2.677 -33.255  1.00  0.00     0.169 HD
HETATM   18  O   UNL     1      -7.371   4.873 -34.241  1.00  0.00    -0.266 OA
BRANCH  16  19
HETATM   19  C   UNL     1     -10.315   4.331 -34.164  1.00  0.00     0.074 A 
HETATM   20  C   UNL     1     -10.675   5.557 -33.590  1.00  0.00     0.144 A 
HETATM   21  F   UNL     1      -9.920   6.151 -32.658  1.00  0.00    -0.204 F 
HETATM   22  C   UNL     1     -11.802   6.256 -34.022  1.00  0.00     0.068 A 
HETATM   23  C   UNL     1     -12.579   5.739 -35.051  1.00  0.00     0.037 A 
HETATM   24 CL   UNL     1     -13.976   6.589 -35.581  1.00  0.00    -0.084 Cl
HETATM   25  C   UNL     1     -12.225   4.538 -35.661  1.00  0.00     0.026 A 
HETATM   26  C   UNL     1     -11.090   3.843 -35.226  1.00  0.00     0.034 A 
ENDBRANCH  16  19
ENDBRANCH   7  15
BRANCH   1  27
HETATM   27  O   UNL     1      -3.814  -4.196 -34.219  1.00  0.00    -0.356 OA
HETATM   28  C   UNL     1      -4.801  -5.208 -34.378  1.00  0.00     0.210 C 
ENDBRANCH   1  27
TORSDOF 3
ENDMDL
MODEL 4
REMARK VINA RESULT:      -8.3      4.123     10.087
REMARK  3 active torsions:
REMARK  status: ('A' for Active; 'I' for Inactive)
REMARK    1  A    between atoms: O_2  and  C_3 
REMARK    2  A    between atoms: C_9  and  C_10 
REMARK       I    between atoms: C_10  and  N_11 
REMARK    3  A    between atoms: N_11  and  C_12 
ROOT
HETATM    1  C   UNL     1       0.065   9.718 -27.108  1.00  0.00     0.068 A 
HETATM    2  C   UNL     1      -1.119   9.509 -27.817  1.00  0.00     0.044 A 
HETATM    3  C   UNL     1      -1.215   8.479 -28.762  1.00  0.00    -0.043 A 
HETATM    4  C   UNL     1      -0.084   7.670 -29.024  1.00  0.00    -0.001 A 
HETATM    5  C   UNL     1      -0.267   6.595 -29.983  1.00  0.00     0.069 A 
HETATM    6  C   UNL     1      -1.490   6.196 -30.476  1.00  0.00     0.007 A 
HETATM    7  C   UNL     1      -1.224   5.088 -31.317  1.00  0.00     0.153 A 
HETATM    8  N   UNL     1       0.105   4.833 -31.365  1.00  0.00    -0.168 NA
HETATM    9  N   UNL     1       0.651   5.771 -30.559  1.00  0.00    -0.276 N 
HETATM   10  H   UNL     1       1.658   5.781 -30.442  1.00  0.00     0.189 HD
HETATM   11  C   UNL     1      -2.756   6.849 -30.048  1.00  0.00     0.048 C 
HETATM   12  C   UNL     1      -2.498   8.295 -29.564  1.00  0.00     0.044 C 
HETATM   13  C   UNL     1       1.107   7.898 -28.332  1.00  0.00     0.017 A 
HETATM   14  C   UNL     1       1.179   8.919 -27.375  1.00  0.00     0.037 A 
ENDROOT
BRANCH   7  15
HETATM   15  C   UNL     1      -2.204   4.243 -32.031  1.00  0.00     0.277 C 
HETATM   16  N   UNL     1      -2.830   3.357 -31.174  1.00  0.00    -0.319 N 
HETATM   17  H   UNL     1      -2.577   3.513 -30.201  1.00  0.00     0.169 HD
HETATM   18  O   UNL     1      -2.438   4.405 -33.220  1.00  0.00    -0.266 OA
BRANCH  16  19
HETATM   19  C   UNL     1      -3.851   2.435 -31.464  1.00  0.00     0.074 A 
HETATM   20  C   UNL     1      -3.734   1.040 -31.385  1.00  0.00     0.144 A 
HETATM   21  F   UNL     1      -2.634   0.449 -30.902  1.00  0.00    -0.204 F 
HETATM   22  C   UNL     1      -4.793   0.203 -31.734  1.00  0.00     0.068 A 
HETATM   23  C   UNL     1      -5.996   0.756 -32.156  1.00  0.00     0.037 A 
HETATM   24 CL   UNL     1      -7.303  -0.270 -32.598  1.00  0.00    -0.084 Cl
HETATM   25  C   UNL     1      -6.150   2.139 -32.212  1.00  0.00     0.026 A 
HETATM   26  C   UNL     1      -5.084   2.974 -31.857  1.00  0.00     0.034 A 
ENDBRANCH  16  19
ENDBRANCH   7  15
BRANCH   1  27
HETATM   27  O   UNL     1       0.012  10.737 -26.197  1.00  0.00    -0.356 OA
HETATM   28  C   UNL     1       1.156  11.579 -26.112  1.00  0.00     0.210 C 
ENDBRANCH   1  27
TORSDOF 3
ENDMDL
MODEL 5
REMARK VINA RESULT:      -8.0      8.293     10.502
REMARK  3 active torsions:
REMARK  status: ('A' for Active; 'I' for Inactive)
REMARK    1  A    between atoms: O_2  and  C_3 
REMARK    2  A    between atoms: C_9  and  C_10 
REMARK       I    between atoms: C_10  and  N_11 
REMARK    3  A    between atoms: N_11  and  C_12 
ROOT
HETATM    1  C   UNL     1     -17.348   4.329 -31.780  1.00  0.00     0.068 A 
HETATM    2  C   UNL     1     -16.043   4.797 -31.610  1.00  0.00     0.044 A 
HETATM    3  C   UNL     1     -14.946   4.000 -31.961  1.00  0.00    -0.043 A 
HETATM    4  C   UNL     1     -15.168   2.694 -32.458  1.00  0.00    -0.001 A 
HETATM    5  C   UNL     1     -13.987   1.940 -32.843  1.00  0.00     0.069 A 
HETATM    6  C   UNL     1     -12.724   2.480 -32.951  1.00  0.00     0.007 A 
HETATM    7  C   UNL     1     -11.894   1.429 -33.412  1.00  0.00     0.153 A 
HETATM    8  N   UNL     1     -12.606   0.285 -33.555  1.00  0.00    -0.168 NA
HETATM    9  N   UNL     1     -13.861   0.630 -33.188  1.00  0.00    -0.276 N 
HETATM   10  H   UNL     1     -14.582  -0.083 -33.209  1.00  0.00     0.189 HD
HETATM   11  C   UNL     1     -12.464   3.920 -32.681  1.00  0.00     0.048 C 
HETATM   12  C   UNL     1     -13.528   4.506 -31.724  1.00  0.00     0.044 C 
HETATM   13  C   UNL     1     -16.473   2.219 -32.603  1.00  0.00     0.017 A 
HETATM   14  C   UNL     1     -17.559   3.037 -32.266  1.00  0.00     0.037 A 
ENDROOT
BRANCH   7  15
HETATM   15  C   UNL     1     -10.461   1.503 -33.766  1.00  0.00     0.277 C 
HETATM   16  N   UNL     1      -9.742   0.476 -33.185  1.00  0.00    -0.319 N 
HETATM   17  H   UNL     1     -10.338  -0.194 -32.705  1.00  0.00     0.169 HD
HETATM   18  O   UNL     1     -10.039   2.351 -34.540  1.00  0.00    -0.266 OA
BRANCH  16  19
HETATM   19  C   UNL     1      -8.374   0.178 -33.327  1.00  0.00     0.074 A 
HETATM   20  C   UNL     1      -7.736  -0.163 -34.528  1.00  0.00     0.144 A 
HETATM   21  F   UNL     1      -8.375  -0.125 -35.703  1.00  0.00    -0.204 F 
HETATM   22  C   UNL     1      -6.379  -0.482 -34.562  1.00  0.00     0.068 A 
HETATM   23  C   UNL     1      -5.636  -0.450 -33.388  1.00  0.00     0.037 A 
HETATM   24 CL   UNL     1      -3.965  -0.853 -33.421  1.00  0.00    -0.084 Cl
HETATM   25  C   UNL     1      -6.238  -0.083 -32.187  1.00  0.00     0.026 A 
HETATM   26  C   UNL     1      -7.599   0.241 -32.160  1.00  0.00     0.034 A 
ENDBRANCH  16  19
ENDBRANCH   7  15
BRANCH   1  27
HETATM   27  O   UNL     1     -18.324   5.219 -31.423  1.00  0.00    -0.356 OA
HETATM   28  C   UNL     1     -18.722   5.219 -30.058  1.00  0.00     0.210 C 
ENDBRANCH   1  27
TORSDOF 3
ENDMDL
MODEL 6
REMARK VINA RESULT:      -8.0      5.680      9.501
REMARK  3 active torsions:
REMARK  status: ('A' for Active; 'I' for Inactive)
REMARK    1  A    between atoms: O_2  and  C_3 
REMARK    2  A    between atoms: C_9  and  C_10 
REMARK       I    between atoms: C_10  and  N_11 
REMARK    3  A    between atoms: N_11  and  C_12 
ROOT
HETATM    1  C   UNL     1      -2.317   5.956 -32.782  1.00  0.00     0.068 A 
HETATM    2  C   UNL     1      -3.661   6.324 -32.882  1.00  0.00     0.044 A 
HETATM    3  C   UNL     1      -4.668   5.351 -32.918  1.00  0.00    -0.043 A 
HETATM    4  C   UNL     1      -4.312   3.983 -32.892  1.00  0.00    -0.001 A 
HETATM    5  C   UNL     1      -5.409   3.030 -32.888  1.00  0.00     0.069 A 
HETATM    6  C   UNL     1      -6.730   3.370 -32.700  1.00  0.00     0.007 A 
HETATM    7  C   UNL     1      -7.446   2.148 -32.701  1.00  0.00     0.153 A 
HETATM    8  N   UNL     1      -6.609   1.103 -32.909  1.00  0.00    -0.168 NA
HETATM    9  N   UNL     1      -5.391   1.676 -33.032  1.00  0.00    -0.276 N 
HETATM   10  H   UNL     1      -4.591   1.077 -33.203  1.00  0.00     0.189 HD
HETATM   11  C   UNL     1      -7.150   4.779 -32.472  1.00  0.00     0.048 C 
HETATM   12  C   UNL     1      -6.126   5.767 -33.077  1.00  0.00     0.044 C 
HETATM   13  C   UNL     1      -2.967   3.617 -32.817  1.00  0.00     0.017 A 
HETATM   14  C   UNL     1      -1.973   4.603 -32.761  1.00  0.00     0.037 A 
ENDROOT
BRANCH   7  15
HETATM   15  C   UNL     1      -8.891   1.951 -32.459  1.00  0.00     0.277 C 
HETATM   16  N   UNL     1      -9.563   1.639 -33.625  1.00  0.00    -0.319 N 
HETATM   17  H   UNL     1      -8.934   1.506 -34.413  1.00  0.00     0.169 HD
HETATM   18  O   UNL     1      -9.360   2.001 -31.330  1.00  0.00    -0.266 OA
BRANCH  16  19
HETATM   19  C   UNL     1     -10.925   1.330 -33.792  1.00  0.00     0.074 A 
HETATM   20  C   UNL     1     -11.548   0.146 -33.375  1.00  0.00     0.144 A 
HETATM   21  F   UNL     1     -10.900  -0.779 -32.657  1.00  0.00    -0.204 F 
HETATM   22  C   UNL     1     -12.900  -0.088 -33.622  1.00  0.00     0.068 A 
HETATM   23  C   UNL     1     -13.654   0.874 -34.283  1.00  0.00     0.037 A 
HETATM   24 CL   UNL     1     -15.319   0.588 -34.602  1.00  0.00    -0.084 Cl
HETATM   25  C   UNL     1     -13.068   2.074 -34.680  1.00  0.00     0.026 A 
HETATM   26  C   UNL     1     -11.711   2.304 -34.425  1.00  0.00     0.034 A 
ENDBRANCH  16  19
ENDBRANCH   7  15
BRANCH   1  27
HETATM   27  O   UNL     1      -1.442   7.006 -32.728  1.00  0.00    -0.356 OA
HETATM   28  C   UNL     1      -1.888   8.176 -32.054  1.00  0.00     0.210 C 
ENDBRANCH   1  27
TORSDOF 3
ENDMDL
MODEL 7
REMARK VINA RESULT:      -7.7      2.223      2.895
REMARK  3 active torsions:
REMARK  status: ('A' for Active; 'I' for Inactive)
REMARK    1  A    between atoms: O_2  and  C_3 
REMARK    2  A    between atoms: C_9  and  C_10 
REMARK       I    between atoms: C_10  and  N_11 
REMARK    3  A    between atoms: N_11  and  C_12 
ROOT
HETATM    1  C   UNL     1      -5.855  -2.541 -34.581  1.00  0.00     0.068 A 
HETATM    2  C   UNL     1      -6.582  -1.352 -34.496  1.00  0.00     0.044 A 
HETATM    3  C   UNL     1      -6.063  -0.243 -33.814  1.00  0.00    -0.043 A 
HETATM    4  C   UNL     1      -4.805  -0.348 -33.177  1.00  0.00    -0.001 A 
HETATM    5  C   UNL     1      -4.308   0.853 -32.526  1.00  0.00     0.069 A 
HETATM    6  C   UNL     1      -4.871   2.102 -32.672  1.00  0.00     0.007 A 
HETATM    7  C   UNL     1      -4.045   2.984 -31.934  1.00  0.00     0.153 A 
HETATM    8  N   UNL     1      -3.036   2.307 -31.335  1.00  0.00    -0.168 NA
HETATM    9  N   UNL     1      -3.237   1.022 -31.705  1.00  0.00    -0.276 N 
HETATM   10  H   UNL     1      -2.593   0.316 -31.364  1.00  0.00     0.189 HD
HETATM   11  C   UNL     1      -6.060   2.327 -33.536  1.00  0.00     0.048 C 
HETATM   12  C   UNL     1      -6.890   1.031 -33.687  1.00  0.00     0.044 C 
HETATM   13  C   UNL     1      -4.091  -1.546 -33.243  1.00  0.00     0.017 A 
HETATM   14  C   UNL     1      -4.616  -2.638 -33.945  1.00  0.00     0.037 A 
ENDROOT
BRANCH   7  15
HETATM   15  C   UNL     1      -4.166   4.454 -31.827  1.00  0.00     0.277 C 
HETATM   16  N   UNL     1      -4.146   4.870 -30.509  1.00  0.00    -0.319 N 
HETATM   17  H   UNL     1      -3.955   4.108 -29.863  1.00  0.00     0.169 HD
HETATM   18  O   UNL     1      -4.204   5.163 -32.823  1.00  0.00    -0.266 OA
BRANCH  16  19
HETATM   19  C   UNL     1      -4.184   6.184 -30.008  1.00  0.00     0.074 A 
HETATM   20  C   UNL     1      -5.327   6.840 -29.532  1.00  0.00     0.144 A 
HETATM   21  F   UNL     1      -6.502   6.212 -29.405  1.00  0.00    -0.204 F 
HETATM   22  C   UNL     1      -5.273   8.162 -29.092  1.00  0.00     0.068 A 
HETATM   23  C   UNL     1      -4.063   8.844 -29.110  1.00  0.00     0.037 A 
HETATM   24 CL   UNL     1      -3.991  10.478 -28.580  1.00  0.00    -0.084 Cl
HETATM   25  C   UNL     1      -2.905   8.205 -29.548  1.00  0.00     0.026 A 
HETATM   26  C   UNL     1      -2.965   6.877 -29.985  1.00  0.00     0.034 A 
ENDBRANCH  16  19
ENDBRANCH   7  15
BRANCH   1  27
HETATM   27  O   UNL     1      -6.467  -3.532 -35.299  1.00  0.00    -0.356 OA
HETATM   28  C   UNL     1      -5.955  -4.849 -35.134  1.00  0.00     0.210 C 
ENDBRANCH   1  27
TORSDOF 3
ENDMDL
MODEL 8
REMARK VINA RESULT:      -7.7      6.175      7.774
REMARK  3 active torsions:
REMARK  status: ('A' for Active; 'I' for Inactive)
REMARK    1  A    between atoms: O_2  and  C_3 
REMARK    2  A    between atoms: C_9  and  C_10 
REMARK       I    between atoms: C_10  and  N_11 
REMARK    3  A    between atoms: N_11  and  C_12 
ROOT
HETATM    1  C   UNL     1      -4.321  -1.672 -32.567  1.00  0.00     0.068 A 
HETATM    2  C   UNL     1      -5.180  -1.577 -33.664  1.00  0.00     0.044 A 
HETATM    3  C   UNL     1      -6.341  -0.795 -33.598  1.00  0.00    -0.043 A 
HETATM    4  C   UNL     1      -6.660  -0.127 -32.393  1.00  0.00    -0.001 A 
HETATM    5  C   UNL     1      -7.854   0.700 -32.410  1.00  0.00     0.069 A 
HETATM    6  C   UNL     1      -8.551   1.031 -33.551  1.00  0.00     0.007 A 
HETATM    7  C   UNL     1      -9.591   1.896 -33.130  1.00  0.00     0.153 A 
HETATM    8  N   UNL     1      -9.555   2.068 -31.787  1.00  0.00    -0.168 NA
HETATM    9  N   UNL     1      -8.503   1.320 -31.386  1.00  0.00    -0.276 N 
HETATM   10  H   UNL     1      -8.281   1.289 -30.397  1.00  0.00     0.189 HD
HETATM   11  C   UNL     1      -8.121   0.560 -34.895  1.00  0.00     0.048 C 
HETATM   12  C   UNL     1      -7.294  -0.742 -34.787  1.00  0.00     0.044 C 
HETATM   13  C   UNL     1      -5.812  -0.243 -31.290  1.00  0.00     0.017 A 
HETATM   14  C   UNL     1      -4.645  -1.013 -31.379  1.00  0.00     0.037 A 
ENDROOT
BRANCH   7  15
HETATM   15  C   UNL     1     -10.578   2.597 -33.978  1.00  0.00     0.277 C 
HETATM   16  N   UNL     1     -10.521   3.966 -33.797  1.00  0.00    -0.319 N 
HETATM   17  H   UNL     1      -9.752   4.247 -33.194  1.00  0.00     0.169 HD
HETATM   18  O   UNL     1     -11.281   1.988 -34.773  1.00  0.00    -0.266 OA
BRANCH  16  19
HETATM   19  C   UNL     1     -11.259   4.966 -34.457  1.00  0.00     0.074 A 
HETATM   20  C   UNL     1     -12.656   5.014 -34.555  1.00  0.00     0.144 A 
HETATM   21  F   UNL     1     -13.441   4.142 -33.911  1.00  0.00    -0.204 F 
HETATM   22  C   UNL     1     -13.298   6.027 -35.268  1.00  0.00     0.068 A 
HETATM   23  C   UNL     1     -12.543   7.017 -35.885  1.00  0.00     0.037 A 
HETATM   24 CL   UNL     1     -13.327   8.262 -36.775  1.00  0.00    -0.084 Cl
HETATM   25  C   UNL     1     -11.155   7.011 -35.776  1.00  0.00     0.026 A 
HETATM   26  C   UNL     1     -10.517   5.994 -35.055  1.00  0.00     0.034 A 
ENDBRANCH  16  19
ENDBRANCH   7  15
BRANCH   1  27
HETATM   27  O   UNL     1      -3.212  -2.444 -32.777  1.00  0.00    -0.356 OA
HETATM   28  C   UNL     1      -2.923  -3.429 -31.792  1.00  0.00     0.210 C 
ENDBRANCH   1  27
TORSDOF 3
ENDMDL
MODEL 9
REMARK VINA RESULT:      -7.7      5.815      7.520
REMARK  3 active torsions:
REMARK  status: ('A' for Active; 'I' for Inactive)
REMARK    1  A    between atoms: O_2  and  C_3 
REMARK    2  A    between atoms: C_9  and  C_10 
REMARK       I    between atoms: C_10  and  N_11 
REMARK    3  A    between atoms: N_11  and  C_12 
ROOT
HETATM    1  C   UNL     1      -4.120  -2.945 -33.645  1.00  0.00     0.068 A 
HETATM    2  C   UNL     1      -5.310  -2.620 -34.299  1.00  0.00     0.044 A 
HETATM    3  C   UNL     1      -6.101  -1.551 -33.857  1.00  0.00    -0.043 A 
HETATM    4  C   UNL     1      -5.704  -0.822 -32.712  1.00  0.00    -0.001 A 
HETATM    5  C   UNL     1      -6.547   0.300 -32.336  1.00  0.00     0.069 A 
HETATM    6  C   UNL     1      -7.557   0.809 -33.123  1.00  0.00     0.007 A 
HETATM    7  C   UNL     1      -8.070   1.924 -32.418  1.00  0.00     0.153 A 
HETATM    8  N   UNL     1      -7.428   2.079 -31.235  1.00  0.00    -0.168 NA
HETATM    9  N   UNL     1      -6.526   1.072 -31.215  1.00  0.00    -0.276 N 
HETATM   10  H   UNL     1      -5.922   0.981 -30.406  1.00  0.00     0.189 HD
HETATM   11  C   UNL     1      -7.867   0.239 -34.462  1.00  0.00     0.048 C 
HETATM   12  C   UNL     1      -7.422  -1.240 -34.551  1.00  0.00     0.044 C 
HETATM   13  C   UNL     1      -4.526  -1.165 -32.044  1.00  0.00     0.017 A 
HETATM   14  C   UNL     1      -3.737  -2.224 -32.513  1.00  0.00     0.037 A 
ENDROOT
BRANCH   7  15
HETATM   15  C   UNL     1      -9.117   2.868 -32.864  1.00  0.00     0.277 C 
HETATM   16  N   UNL     1     -10.319   2.631 -32.224  1.00  0.00    -0.319 N 
HETATM   17  H   UNL     1     -10.241   1.922 -31.499  1.00  0.00     0.169 HD
HETATM   18  O   UNL     1      -8.867   3.770 -33.651  1.00  0.00    -0.266 OA
BRANCH  16  19
HETATM   19  C   UNL     1     -11.525   3.346 -32.341  1.00  0.00     0.074 A 
HETATM   20  C   UNL     1     -12.358   3.359 -33.468  1.00  0.00     0.144 A 
HETATM   21  F   UNL     1     -12.124   2.576 -34.528  1.00  0.00    -0.204 F 
HETATM   22  C   UNL     1     -13.517   4.134 -33.504  1.00  0.00     0.068 A 
HETATM   23  C   UNL     1     -13.866   4.900 -32.400  1.00  0.00     0.037 A 
HETATM   24 CL   UNL     1     -15.287   5.866 -32.441  1.00  0.00    -0.084 Cl
HETATM   25  C   UNL     1     -13.074   4.880 -31.254  1.00  0.00     0.026 A 
HETATM   26  C   UNL     1     -11.914   4.097 -31.222  1.00  0.00     0.034 A 
ENDBRANCH  16  19
ENDBRANCH   7  15
BRANCH   1  27
HETATM   27  O   UNL     1      -3.433  -3.991 -34.198  1.00  0.00    -0.356 OA
HETATM   28  C   UNL     1      -4.072  -5.261 -34.172  1.00  0.00     0.210 C 
ENDBRANCH   1  27
TORSDOF 3
ENDMDL
MODEL 10
REMARK VINA RESULT:      -7.6      6.645      9.653
REMARK  3 active torsions:
REMARK  status: ('A' for Active; 'I' for Inactive)
REMARK    1  A    between atoms: O_2  and  C_3 
REMARK    2  A    between atoms: C_9  and  C_10 
REMARK       I    between atoms: C_10  and  N_11 
REMARK    3  A    between atoms: N_11  and  C_12 
ROOT
HETATM    1  C   UNL     1      -3.249   3.361 -32.337  1.00  0.00     0.068 A 
HETATM    2  C   UNL     1      -4.244   4.218 -32.810  1.00  0.00     0.044 A 
HETATM    3  C   UNL     1      -5.500   3.720 -33.183  1.00  0.00    -0.043 A 
HETATM    4  C   UNL     1      -5.742   2.328 -33.113  1.00  0.00    -0.001 A 
HETATM    5  C   UNL     1      -7.079   1.886 -33.473  1.00  0.00     0.069 A 
HETATM    6  C   UNL     1      -8.149   2.732 -33.666  1.00  0.00     0.007 A 
HETATM    7  C   UNL     1      -9.259   1.895 -33.930  1.00  0.00     0.153 A 
HETATM    8  N   UNL     1      -8.886   0.592 -33.930  1.00  0.00    -0.168 NA
HETATM    9  N   UNL     1      -7.561   0.628 -33.665  1.00  0.00    -0.276 N 
HETATM   10  H   UNL     1      -7.054  -0.248 -33.620  1.00  0.00     0.189 HD
HETATM   11  C   UNL     1      -8.018   4.206 -33.509  1.00  0.00     0.048 C 
HETATM   12  C   UNL     1      -6.559   4.662 -33.744  1.00  0.00     0.044 C 
HETATM   13  C   UNL     1      -4.737   1.470 -32.664  1.00  0.00     0.017 A 
HETATM   14  C   UNL     1      -3.494   1.988 -32.275  1.00  0.00     0.037 A 
ENDROOT
BRANCH   7  15
HETATM   15  C   UNL     1     -10.666   2.301 -34.131  1.00  0.00     0.277 C 
HETATM   16  N   UNL     1     -11.512   1.653 -33.251  1.00  0.00    -0.319 N 
HETATM   17  H   UNL     1     -11.008   1.095 -32.566  1.00  0.00     0.169 HD
HETATM   18  O   UNL     1     -10.970   3.161 -34.946  1.00  0.00    -0.266 OA
BRANCH  16  19
HETATM   19  C   UNL     1     -12.901   1.812 -33.098  1.00  0.00     0.074 A 
HETATM   20  C   UNL     1     -13.883   1.015 -33.704  1.00  0.00     0.144 A 
HETATM   21  F   UNL     1     -13.569  -0.073 -34.417  1.00  0.00    -0.204 F 
HETATM   22  C   UNL     1     -15.241   1.277 -33.525  1.00  0.00     0.068 A 
HETATM   23  C   UNL     1     -15.635   2.338 -32.720  1.00  0.00     0.037 A 
HETATM   24 CL   UNL     1     -17.308   2.673 -32.503  1.00  0.00    -0.084 Cl
HETATM   25  C   UNL     1     -14.682   3.126 -32.080  1.00  0.00     0.026 A 
HETATM   26  C   UNL     1     -13.320   2.856 -32.260  1.00  0.00     0.034 A 
ENDBRANCH  16  19
ENDBRANCH   7  15
BRANCH   1  27
HETATM   27  O   UNL     1      -2.083   3.983 -31.982  1.00  0.00    -0.356 OA
HETATM   28  C   UNL     1      -2.189   5.323 -31.519  1.00  0.00     0.210 C 
ENDBRANCH   1  27
TORSDOF 3
ENDMDL
