MODEL 1
REMARK VINA RESULT:      -8.8      0.000      0.000
REMARK  5 active torsions:
REMARK  status: ('A' for Active; 'I' for Inactive)
REMARK    1  A    between atoms: C_7  and  C_8 
REMARK       I    between atoms: C_8  and  N_9 
REMARK    2  A    between atoms: N_9  and  C_10 
REMARK    3  A    between atoms: C_10  and  C_11 
REMARK    4  A    between atoms: C_11  and  O_12 
REMARK    5  A    between atoms: C_11  and  C_13 
ROOT
HETATM    1  C   UNL     1      -6.569   0.027 -34.181  1.00  0.00     0.254 C 
HETATM    2  N   UNL     1      -7.363   0.378 -33.113  1.00  0.00    -0.354 N 
HETATM    3  O   UNL     1      -6.744   0.507 -35.298  1.00  0.00    -0.268 OA
HETATM    4  H   UNL     1      -7.298  -0.151 -32.257  1.00  0.00     0.162 HD
ENDROOT
BRANCH   2   5
HETATM    5  C   UNL     1      -8.407   1.385 -33.227  1.00  0.00     0.159 C 
BRANCH   5   6
HETATM    6  C   UNL     1      -9.718   0.965 -32.529  1.00  0.00     0.175 C 
BRANCH   6   7
HETATM    7  O   UNL     1      -9.775   1.552 -31.223  1.00  0.00    -0.389 OA
HETATM    8  H   UNL     1      -9.410   0.882 -30.620  1.00  0.00     0.210 HD
ENDBRANCH   6   7
BRANCH   6   9
HETATM    9  C   UNL     1     -10.949   1.380 -33.289  1.00  0.00     0.049 A 
HETATM   10  C   UNL     1     -11.970   0.460 -33.536  1.00  0.00     0.128 A 
HETATM   11  F   UNL     1     -11.856  -0.803 -33.099  1.00  0.00    -0.205 F 
HETATM   12  C   UNL     1     -13.124   0.812 -34.239  1.00  0.00     0.043 A 
HETATM   13  C   UNL     1     -13.277   2.112 -34.714  1.00  0.00     0.006 A 
HETATM   14  C   UNL     1     -12.275   3.048 -34.479  1.00  0.00     0.043 A 
HETATM   15  C   UNL     1     -11.128   2.680 -33.772  1.00  0.00     0.128 A 
HETATM   16  F   UNL     1     -10.184   3.611 -33.575  1.00  0.00    -0.205 F 
ENDBRANCH   6   9
ENDBRANCH   5   6
ENDBRANCH   2   5
BRANCH   1  17
HETATM   17  C   UNL     1      -5.547  -0.987 -33.901  1.00  0.00     0.066 A 
HETATM   18  C   UNL     1      -4.304  -0.815 -33.291  1.00  0.00     0.022 A 
HETATM   19  C   UNL     1      -3.587   0.384 -32.778  1.00  0.00     0.069 C 
HETATM   20  N   UNL     1      -3.692  -2.046 -33.242  1.00  0.00    -0.358 N 
HETATM   21  H   UNL     1      -2.775  -2.225 -32.855  1.00  0.00     0.166 HD
HETATM   22  C   UNL     1      -4.468  -3.006 -33.841  1.00  0.00     0.043 A 
HETATM   23  C   UNL     1      -5.635  -2.376 -34.270  1.00  0.00     0.008 A 
HETATM   24  C   UNL     1      -4.219  -4.369 -34.040  1.00  0.00     0.030 A 
HETATM   25  C   UNL     1      -6.605  -3.160 -34.932  1.00  0.00     0.015 A 
HETATM   26  C   UNL     1      -6.375  -4.524 -35.141  1.00  0.00     0.001 A 
HETATM   27  C   UNL     1      -5.196  -5.118 -34.700  1.00  0.00     0.002 A 
ENDBRANCH   1  17
TORSDOF 5
ENDMDL
MODEL 2
REMARK VINA RESULT:      -8.8      0.222      1.696
REMARK  5 active torsions:
REMARK  status: ('A' for Active; 'I' for Inactive)
REMARK    1  A    between atoms: C_7  and  C_8 
REMARK       I    between atoms: C_8  and  N_9 
REMARK    2  A    between atoms: N_9  and  C_10 
REMARK    3  A    between atoms: C_10  and  C_11 
REMARK    4  A    between atoms: C_11  and  O_12 
REMARK    5  A    between atoms: C_11  and  C_13 
ROOT
HETATM    1  C   UNL     1      -6.652   0.104 -34.248  1.00  0.00     0.254 C 
HETATM    2  N   UNL     1      -7.334   0.627 -33.174  1.00  0.00    -0.354 N 
HETATM    3  O   UNL     1      -6.935   0.413 -35.403  1.00  0.00    -0.268 OA
HETATM    4  H   UNL     1      -7.187   0.232 -32.258  1.00  0.00     0.162 HD
ENDROOT
BRANCH   2   5
HETATM    5  C   UNL     1      -8.380   1.626 -33.337  1.00  0.00     0.159 C 
BRANCH   5   6
HETATM    6  C   UNL     1      -9.687   1.244 -32.610  1.00  0.00     0.175 C 
BRANCH   6   7
HETATM    7  O   UNL     1      -9.782   1.974 -31.381  1.00  0.00    -0.389 OA
HETATM    8  H   UNL     1     -10.504   1.553 -30.883  1.00  0.00     0.210 HD
ENDBRANCH   6   7
BRANCH   6   9
HETATM    9  C   UNL     1     -10.919   1.528 -33.426  1.00  0.00     0.049 A 
HETATM   10  C   UNL     1     -11.101   2.781 -34.016  1.00  0.00     0.128 A 
HETATM   11  F   UNL     1     -10.179   3.740 -33.853  1.00  0.00    -0.205 F 
HETATM   12  C   UNL     1     -12.233   3.078 -34.777  1.00  0.00     0.043 A 
HETATM   13  C   UNL     1     -13.216   2.110 -34.965  1.00  0.00     0.006 A 
HETATM   14  C   UNL     1     -13.056   0.853 -34.390  1.00  0.00     0.043 A 
HETATM   15  C   UNL     1     -11.917   0.572 -33.634  1.00  0.00     0.128 A 
HETATM   16  F   UNL     1     -11.807  -0.649 -33.091  1.00  0.00    -0.205 F 
ENDBRANCH   6   9
ENDBRANCH   5   6
ENDBRANCH   2   5
BRANCH   1  17
HETATM   17  C   UNL     1      -5.612  -0.876 -33.919  1.00  0.00     0.066 A 
HETATM   18  C   UNL     1      -4.394  -0.660 -33.272  1.00  0.00     0.022 A 
HETATM   19  C   UNL     1      -3.728   0.567 -32.757  1.00  0.00     0.069 C 
HETATM   20  N   UNL     1      -3.750  -1.872 -33.183  1.00  0.00    -0.358 N 
HETATM   21  H   UNL     1      -2.842  -2.019 -32.764  1.00  0.00     0.166 HD
HETATM   22  C   UNL     1      -4.479  -2.862 -33.791  1.00  0.00     0.043 A 
HETATM   23  C   UNL     1      -5.648  -2.273 -34.267  1.00  0.00     0.008 A 
HETATM   24  C   UNL     1      -4.186  -4.221 -33.958  1.00  0.00     0.030 A 
HETATM   25  C   UNL     1      -6.575  -3.094 -34.946  1.00  0.00     0.015 A 
HETATM   26  C   UNL     1      -6.299  -4.454 -35.125  1.00  0.00     0.001 A 
HETATM   27  C   UNL     1      -5.120  -5.008 -34.637  1.00  0.00     0.002 A 
ENDBRANCH   1  17
TORSDOF 5
ENDMDL
MODEL 3
REMARK VINA RESULT:      -8.6      3.984      6.527
REMARK  5 active torsions:
REMARK  status: ('A' for Active; 'I' for Inactive)
REMARK    1  A    between atoms: C_7  and  C_8 
REMARK       I    between atoms: C_8  and  N_9 
REMARK    2  A    between atoms: N_9  and  C_10 
REMARK    3  A    between atoms: C_10  and  C_11 
REMARK    4  A    between atoms: C_11  and  O_12 
REMARK    5  A    between atoms: C_11  and  C_13 
ROOT
HETATM    1  C   UNL     1      -4.884   0.455 -31.961  1.00  0.00     0.254 C 
HETATM    2  N   UNL     1      -3.825   1.309 -32.163  1.00  0.00    -0.354 N 
HETATM    3  O   UNL     1      -5.601   0.543 -30.968  1.00  0.00    -0.268 OA
HETATM    4  H   UNL     1      -3.164   1.109 -32.899  1.00  0.00     0.162 HD
ENDROOT
BRANCH   2   5
HETATM    5  C   UNL     1      -3.533   2.405 -31.252  1.00  0.00     0.159 C 
BRANCH   5   6
HETATM    6  C   UNL     1      -4.120   3.750 -31.729  1.00  0.00     0.175 C 
BRANCH   6   7
HETATM    7  O   UNL     1      -4.248   4.640 -30.613  1.00  0.00    -0.389 OA
HETATM    8  H   UNL     1      -4.957   5.261 -30.855  1.00  0.00     0.210 HD
ENDBRANCH   6   7
BRANCH   6   9
HETATM    9  C   UNL     1      -3.275   4.422 -32.777  1.00  0.00     0.049 A 
HETATM   10  C   UNL     1      -3.816   4.734 -34.027  1.00  0.00     0.128 A 
HETATM   11  F   UNL     1      -5.093   4.431 -34.300  1.00  0.00    -0.205 F 
HETATM   12  C   UNL     1      -3.059   5.357 -35.021  1.00  0.00     0.043 A 
HETATM   13  C   UNL     1      -1.727   5.683 -34.778  1.00  0.00     0.006 A 
HETATM   14  C   UNL     1      -1.166   5.384 -33.540  1.00  0.00     0.043 A 
HETATM   15  C   UNL     1      -1.938   4.764 -32.555  1.00  0.00     0.128 A 
HETATM   16  F   UNL     1      -1.355   4.487 -31.380  1.00  0.00    -0.205 F 
ENDBRANCH   6   9
ENDBRANCH   5   6
ENDBRANCH   2   5
BRANCH   1  17
HETATM   17  C   UNL     1      -5.059  -0.584 -32.980  1.00  0.00     0.066 A 
HETATM   18  C   UNL     1      -5.889  -0.565 -34.102  1.00  0.00     0.022 A 
HETATM   19  C   UNL     1      -6.870   0.430 -34.615  1.00  0.00     0.069 C 
HETATM   20  N   UNL     1      -5.720  -1.758 -34.765  1.00  0.00    -0.358 N 
HETATM   21  H   UNL     1      -6.199  -2.025 -35.614  1.00  0.00     0.166 HD
HETATM   22  C   UNL     1      -4.848  -2.575 -34.092  1.00  0.00     0.043 A 
HETATM   23  C   UNL     1      -4.419  -1.875 -32.967  1.00  0.00     0.008 A 
HETATM   24  C   UNL     1      -4.420  -3.875 -34.392  1.00  0.00     0.030 A 
HETATM   25  C   UNL     1      -3.508  -2.513 -32.097  1.00  0.00     0.015 A 
HETATM   26  C   UNL     1      -3.069  -3.811 -32.378  1.00  0.00     0.001 A 
HETATM   27  C   UNL     1      -3.521  -4.481 -33.511  1.00  0.00     0.002 A 
ENDBRANCH   1  17
TORSDOF 5
ENDMDL
MODEL 4
REMARK VINA RESULT:      -8.5      3.991      6.557
REMARK  5 active torsions:
REMARK  status: ('A' for Active; 'I' for Inactive)
REMARK    1  A    between atoms: C_7  and  C_8 
REMARK       I    between atoms: C_8  and  N_9 
REMARK    2  A    between atoms: N_9  and  C_10 
REMARK    3  A    between atoms: C_10  and  C_11 
REMARK    4  A    between atoms: C_11  and  O_12 
REMARK    5  A    between atoms: C_11  and  C_13 
ROOT
HETATM    1  C   UNL     1      -5.542   0.823 -31.333  1.00  0.00     0.254 C 
HETATM    2  N   UNL     1      -5.109   2.046 -31.790  1.00  0.00    -0.354 N 
HETATM    3  O   UNL     1      -5.240   0.410 -30.217  1.00  0.00    -0.268 OA
HETATM    4  H   UNL     1      -5.237   2.282 -32.763  1.00  0.00     0.162 HD
ENDROOT
BRANCH   2   5
HETATM    5  C   UNL     1      -4.328   2.949 -30.957  1.00  0.00     0.159 C 
BRANCH   5   6
HETATM    6  C   UNL     1      -4.442   4.421 -31.405  1.00  0.00     0.175 C 
BRANCH   6   7
HETATM    7  O   UNL     1      -3.993   5.279 -30.349  1.00  0.00    -0.389 OA
HETATM    8  H   UNL     1      -4.718   5.294 -29.700  1.00  0.00     0.210 HD
ENDBRANCH   6   7
BRANCH   6   9
HETATM    9  C   UNL     1      -3.634   4.725 -32.638  1.00  0.00     0.049 A 
HETATM   10  C   UNL     1      -2.238   4.687 -32.594  1.00  0.00     0.128 A 
HETATM   11  F   UNL     1      -1.611   4.382 -31.448  1.00  0.00    -0.205 F 
HETATM   12  C   UNL     1      -1.459   4.965 -33.718  1.00  0.00     0.043 A 
HETATM   13  C   UNL     1      -2.072   5.291 -34.925  1.00  0.00     0.006 A 
HETATM   14  C   UNL     1      -3.462   5.333 -34.995  1.00  0.00     0.043 A 
HETATM   15  C   UNL     1      -4.226   5.049 -33.861  1.00  0.00     0.128 A 
HETATM   16  F   UNL     1      -5.561   5.110 -33.971  1.00  0.00    -0.205 F 
ENDBRANCH   6   9
ENDBRANCH   5   6
ENDBRANCH   2   5
BRANCH   1  17
HETATM   17  C   UNL     1      -6.336   0.040 -32.284  1.00  0.00     0.066 A 
HETATM   18  C   UNL     1      -7.703   0.129 -32.549  1.00  0.00     0.022 A 
HETATM   19  C   UNL     1      -8.792   0.962 -31.970  1.00  0.00     0.069 C 
HETATM   20  N   UNL     1      -8.001  -0.803 -33.515  1.00  0.00    -0.358 N 
HETATM   21  H   UNL     1      -8.921  -0.967 -33.902  1.00  0.00     0.166 HD
HETATM   22  C   UNL     1      -6.890  -1.531 -33.856  1.00  0.00     0.043 A 
HETATM   23  C   UNL     1      -5.830  -1.034 -33.101  1.00  0.00     0.008 A 
HETATM   24  C   UNL     1      -6.750  -2.589 -34.763  1.00  0.00     0.030 A 
HETATM   25  C   UNL     1      -4.560  -1.629 -33.267  1.00  0.00     0.015 A 
HETATM   26  C   UNL     1      -4.401  -2.688 -34.168  1.00  0.00     0.001 A 
HETATM   27  C   UNL     1      -5.483  -3.160 -34.905  1.00  0.00     0.002 A 
ENDBRANCH   1  17
TORSDOF 5
ENDMDL
MODEL 5
REMARK VINA RESULT:      -8.1      4.342      6.539
REMARK  5 active torsions:
REMARK  status: ('A' for Active; 'I' for Inactive)
REMARK    1  A    between atoms: C_7  and  C_8 
REMARK       I    between atoms: C_8  and  N_9 
REMARK    2  A    between atoms: N_9  and  C_10 
REMARK    3  A    between atoms: C_10  and  C_11 
REMARK    4  A    between atoms: C_11  and  O_12 
REMARK    5  A    between atoms: C_11  and  C_13 
ROOT
HETATM    1  C   UNL     1      -5.709   1.138 -32.732  1.00  0.00     0.254 C 
HETATM    2  N   UNL     1      -5.351   2.248 -33.462  1.00  0.00    -0.354 N 
HETATM    3  O   UNL     1      -5.988   1.216 -31.539  1.00  0.00    -0.268 OA
HETATM    4  H   UNL     1      -4.973   2.126 -34.390  1.00  0.00     0.162 HD
ENDROOT
BRANCH   2   5
HETATM    5  C   UNL     1      -5.348   3.583 -32.884  1.00  0.00     0.159 C 
BRANCH   5   6
HETATM    6  C   UNL     1      -5.161   4.690 -33.943  1.00  0.00     0.175 C 
BRANCH   6   7
HETATM    7  O   UNL     1      -6.391   5.407 -34.109  1.00  0.00    -0.389 OA
HETATM    8  H   UNL     1      -6.383   6.100 -33.425  1.00  0.00     0.210 HD
ENDBRANCH   6   7
BRANCH   6   9
HETATM    9  C   UNL     1      -4.084   5.676 -33.581  1.00  0.00     0.049 A 
HETATM   10  C   UNL     1      -4.198   6.453 -32.425  1.00  0.00     0.128 A 
HETATM   11  F   UNL     1      -5.273   6.326 -31.635  1.00  0.00    -0.205 F 
HETATM   12  C   UNL     1      -3.217   7.377 -32.061  1.00  0.00     0.043 A 
HETATM   13  C   UNL     1      -2.088   7.542 -32.859  1.00  0.00     0.006 A 
HETATM   14  C   UNL     1      -1.950   6.778 -34.014  1.00  0.00     0.043 A 
HETATM   15  C   UNL     1      -2.939   5.856 -34.362  1.00  0.00     0.128 A 
HETATM   16  F   UNL     1      -2.770   5.147 -35.487  1.00  0.00    -0.205 F 
ENDBRANCH   6   9
ENDBRANCH   5   6
ENDBRANCH   2   5
BRANCH   1  17
HETATM   17  C   UNL     1      -5.683  -0.133 -33.463  1.00  0.00     0.066 A 
HETATM   18  C   UNL     1      -6.471  -0.524 -34.546  1.00  0.00     0.022 A 
HETATM   19  C   UNL     1      -7.583   0.140 -35.278  1.00  0.00     0.069 C 
HETATM   20  N   UNL     1      -6.090  -1.798 -34.897  1.00  0.00    -0.358 N 
HETATM   21  H   UNL     1      -6.494  -2.339 -35.650  1.00  0.00     0.166 HD
HETATM   22  C   UNL     1      -5.118  -2.272 -34.054  1.00  0.00     0.043 A 
HETATM   23  C   UNL     1      -4.842  -1.258 -33.139  1.00  0.00     0.008 A 
HETATM   24  C   UNL     1      -4.476  -3.517 -34.029  1.00  0.00     0.030 A 
HETATM   25  C   UNL     1      -3.867  -1.505 -32.149  1.00  0.00     0.015 A 
HETATM   26  C   UNL     1      -3.216  -2.743 -32.107  1.00  0.00     0.001 A 
HETATM   27  C   UNL     1      -3.518  -3.734 -33.036  1.00  0.00     0.002 A 
ENDBRANCH   1  17
TORSDOF 5
ENDMDL
MODEL 6
REMARK VINA RESULT:      -8.0      3.364      4.423
REMARK  5 active torsions:
REMARK  status: ('A' for Active; 'I' for Inactive)
REMARK    1  A    between atoms: C_7  and  C_8 
REMARK       I    between atoms: C_8  and  N_9 
REMARK    2  A    between atoms: N_9  and  C_10 
REMARK    3  A    between atoms: C_10  and  C_11 
REMARK    4  A    between atoms: C_11  and  O_12 
REMARK    5  A    between atoms: C_11  and  C_13 
ROOT
HETATM    1  C   UNL     1      -5.072   0.356 -32.419  1.00  0.00     0.254 C 
HETATM    2  N   UNL     1      -5.889   0.331 -31.312  1.00  0.00    -0.354 N 
HETATM    3  O   UNL     1      -4.332   1.307 -32.651  1.00  0.00    -0.268 OA
HETATM    4  H   UNL     1      -6.597  -0.384 -31.239  1.00  0.00     0.162 HD
ENDROOT
BRANCH   2   5
HETATM    5  C   UNL     1      -5.874   1.394 -30.319  1.00  0.00     0.159 C 
BRANCH   5   6
HETATM    6  C   UNL     1      -7.040   2.389 -30.494  1.00  0.00     0.175 C 
BRANCH   6   7
HETATM    7  O   UNL     1      -7.365   2.974 -29.226  1.00  0.00    -0.389 OA
HETATM    8  H   UNL     1      -7.530   2.225 -28.628  1.00  0.00     0.210 HD
ENDBRANCH   6   7
BRANCH   6   9
HETATM    9  C   UNL     1      -6.727   3.499 -31.461  1.00  0.00     0.049 A 
HETATM   10  C   UNL     1      -7.325   3.524 -32.723  1.00  0.00     0.128 A 
HETATM   11  F   UNL     1      -8.179   2.555 -33.081  1.00  0.00    -0.205 F 
HETATM   12  C   UNL     1      -7.055   4.538 -33.644  1.00  0.00     0.043 A 
HETATM   13  C   UNL     1      -6.168   5.559 -33.312  1.00  0.00     0.006 A 
HETATM   14  C   UNL     1      -5.562   5.558 -32.059  1.00  0.00     0.043 A 
HETATM   15  C   UNL     1      -5.846   4.538 -31.149  1.00  0.00     0.128 A 
HETATM   16  F   UNL     1      -5.233   4.570 -29.957  1.00  0.00    -0.205 F 
ENDBRANCH   6   9
ENDBRANCH   5   6
ENDBRANCH   2   5
BRANCH   1  17
HETATM   17  C   UNL     1      -5.189  -0.799 -33.315  1.00  0.00     0.066 A 
HETATM   18  C   UNL     1      -6.008  -0.946 -34.435  1.00  0.00     0.022 A 
HETATM   19  C   UNL     1      -7.028  -0.063 -35.063  1.00  0.00     0.069 C 
HETATM   20  N   UNL     1      -5.776  -2.197 -34.958  1.00  0.00    -0.358 N 
HETATM   21  H   UNL     1      -6.234  -2.580 -35.774  1.00  0.00     0.166 HD
HETATM   22  C   UNL     1      -4.874  -2.891 -34.194  1.00  0.00     0.043 A 
HETATM   23  C   UNL     1      -4.489  -2.048 -33.153  1.00  0.00     0.008 A 
HETATM   24  C   UNL     1      -4.382  -4.194 -34.342  1.00  0.00     0.030 A 
HETATM   25  C   UNL     1      -3.558  -2.540 -32.212  1.00  0.00     0.015 A 
HETATM   26  C   UNL     1      -3.056  -3.839 -32.342  1.00  0.00     0.001 A 
HETATM   27  C   UNL     1      -3.465  -4.654 -33.395  1.00  0.00     0.002 A 
ENDBRANCH   1  17
TORSDOF 5
ENDMDL
MODEL 7
REMARK VINA RESULT:      -8.0      3.040      4.519
REMARK  5 active torsions:
REMARK  status: ('A' for Active; 'I' for Inactive)
REMARK    1  A    between atoms: C_7  and  C_8 
REMARK       I    between atoms: C_8  and  N_9 
REMARK    2  A    between atoms: N_9  and  C_10 
REMARK    3  A    between atoms: C_10  and  C_11 
REMARK    4  A    between atoms: C_11  and  O_12 
REMARK    5  A    between atoms: C_11  and  C_13 
ROOT
HETATM    1  C   UNL     1      -6.580   0.320 -33.222  1.00  0.00     0.254 C 
HETATM    2  N   UNL     1      -6.484   1.317 -34.166  1.00  0.00    -0.354 N 
HETATM    3  O   UNL     1      -7.439   0.346 -32.345  1.00  0.00    -0.268 OA
HETATM    4  H   UNL     1      -5.675   1.350 -34.767  1.00  0.00     0.162 HD
ENDROOT
BRANCH   2   5
HETATM    5  C   UNL     1      -7.432   2.420 -34.222  1.00  0.00     0.159 C 
BRANCH   5   6
HETATM    6  C   UNL     1      -6.791   3.775 -33.853  1.00  0.00     0.175 C 
BRANCH   6   7
HETATM    7  O   UNL     1      -7.703   4.836 -34.165  1.00  0.00    -0.389 OA
HETATM    8  H   UNL     1      -8.426   4.420 -34.665  1.00  0.00     0.210 HD
ENDBRANCH   6   7
BRANCH   6   9
HETATM    9  C   UNL     1      -6.426   3.877 -32.397  1.00  0.00     0.049 A 
HETATM   10  C   UNL     1      -5.090   4.022 -32.014  1.00  0.00     0.128 A 
HETATM   11  F   UNL     1      -4.126   4.066 -32.944  1.00  0.00    -0.205 F 
HETATM   12  C   UNL     1      -4.717   4.117 -30.672  1.00  0.00     0.043 A 
HETATM   13  C   UNL     1      -5.688   4.070 -29.676  1.00  0.00     0.006 A 
HETATM   14  C   UNL     1      -7.026   3.929 -30.033  1.00  0.00     0.043 A 
HETATM   15  C   UNL     1      -7.383   3.837 -31.380  1.00  0.00     0.128 A 
HETATM   16  F   UNL     1      -8.682   3.693 -31.678  1.00  0.00    -0.205 F 
ENDBRANCH   6   9
ENDBRANCH   5   6
ENDBRANCH   2   5
BRANCH   1  17
HETATM   17  C   UNL     1      -5.564  -0.732 -33.311  1.00  0.00     0.066 A 
HETATM   18  C   UNL     1      -4.226  -0.678 -32.918  1.00  0.00     0.022 A 
HETATM   19  C   UNL     1      -3.385   0.407 -32.345  1.00  0.00     0.069 C 
HETATM   20  N   UNL     1      -3.662  -1.902 -33.194  1.00  0.00    -0.358 N 
HETATM   21  H   UNL     1      -2.698  -2.152 -33.016  1.00  0.00     0.166 HD
HETATM   22  C   UNL     1      -4.568  -2.736 -33.798  1.00  0.00     0.043 A 
HETATM   23  C   UNL     1      -5.768  -2.035 -33.893  1.00  0.00     0.008 A 
HETATM   24  C   UNL     1      -4.409  -4.045 -34.271  1.00  0.00     0.030 A 
HETATM   25  C   UNL     1      -6.869  -2.684 -34.492  1.00  0.00     0.015 A 
HETATM   26  C   UNL     1      -6.731  -3.991 -34.971  1.00  0.00     0.001 A 
HETATM   27  C   UNL     1      -5.516  -4.661 -34.861  1.00  0.00     0.002 A 
ENDBRANCH   1  17
TORSDOF 5
ENDMDL
MODEL 8
REMARK VINA RESULT:      -7.9      4.763      8.242
REMARK  5 active torsions:
REMARK  status: ('A' for Active; 'I' for Inactive)
REMARK    1  A    between atoms: C_7  and  C_8 
REMARK       I    between atoms: C_8  and  N_9 
REMARK    2  A    between atoms: N_9  and  C_10 
REMARK    3  A    between atoms: C_10  and  C_11 
REMARK    4  A    between atoms: C_11  and  O_12 
REMARK    5  A    between atoms: C_11  and  C_13 
ROOT
HETATM    1  C   UNL     1      -4.362   2.076 -32.444  1.00  0.00     0.254 C 
HETATM    2  N   UNL     1      -3.318   1.181 -32.397  1.00  0.00    -0.354 N 
HETATM    3  O   UNL     1      -5.362   1.863 -33.124  1.00  0.00    -0.268 OA
HETATM    4  H   UNL     1      -2.451   1.459 -31.962  1.00  0.00     0.162 HD
ENDROOT
BRANCH   2   5
HETATM    5  C   UNL     1      -3.366  -0.096 -33.091  1.00  0.00     0.159 C 
BRANCH   5   6
HETATM    6  C   UNL     1      -3.894  -1.240 -32.200  1.00  0.00     0.175 C 
BRANCH   6   7
HETATM    7  O   UNL     1      -5.141  -0.851 -31.611  1.00  0.00    -0.389 OA
HETATM    8  H   UNL     1      -5.677  -1.663 -31.576  1.00  0.00     0.210 HD
ENDBRANCH   6   7
BRANCH   6   9
HETATM    9  C   UNL     1      -4.106  -2.525 -32.955  1.00  0.00     0.049 A 
HETATM   10  C   UNL     1      -4.988  -2.569 -34.037  1.00  0.00     0.128 A 
HETATM   11  F   UNL     1      -5.654  -1.466 -34.406  1.00  0.00    -0.205 F 
HETATM   12  C   UNL     1      -5.209  -3.745 -34.757  1.00  0.00     0.043 A 
HETATM   13  C   UNL     1      -4.541  -4.913 -34.401  1.00  0.00     0.006 A 
HETATM   14  C   UNL     1      -3.655  -4.893 -33.328  1.00  0.00     0.043 A 
HETATM   15  C   UNL     1      -3.443  -3.708 -32.620  1.00  0.00     0.128 A 
HETATM   16  F   UNL     1      -2.588  -3.736 -31.588  1.00  0.00    -0.205 F 
ENDBRANCH   6   9
ENDBRANCH   5   6
ENDBRANCH   2   5
BRANCH   1  17
HETATM   17  C   UNL     1      -4.171   3.309 -31.673  1.00  0.00     0.066 A 
HETATM   18  C   UNL     1      -4.949   3.803 -30.625  1.00  0.00     0.022 A 
HETATM   19  C   UNL     1      -6.198   3.317 -29.979  1.00  0.00     0.069 C 
HETATM   20  N   UNL     1      -4.385   4.988 -30.212  1.00  0.00    -0.358 N 
HETATM   21  H   UNL     1      -4.740   5.572 -29.467  1.00  0.00     0.166 HD
HETATM   22  C   UNL     1      -3.299   5.311 -30.984  1.00  0.00     0.043 A 
HETATM   23  C   UNL     1      -3.139   4.285 -31.913  1.00  0.00     0.008 A 
HETATM   24  C   UNL     1      -2.460   6.432 -30.932  1.00  0.00     0.030 A 
HETATM   25  C   UNL     1      -2.077   4.388 -32.838  1.00  0.00     0.015 A 
HETATM   26  C   UNL     1      -1.229   5.500 -32.803  1.00  0.00     0.001 A 
HETATM   27  C   UNL     1      -1.420   6.508 -31.862  1.00  0.00     0.002 A 
ENDBRANCH   1  17
TORSDOF 5
ENDMDL
MODEL 9
REMARK VINA RESULT:      -7.9      2.126      2.893
REMARK  5 active torsions:
REMARK  status: ('A' for Active; 'I' for Inactive)
REMARK    1  A    between atoms: C_7  and  C_8 
REMARK       I    between atoms: C_8  and  N_9 
REMARK    2  A    between atoms: N_9  and  C_10 
REMARK    3  A    between atoms: C_10  and  C_11 
REMARK    4  A    between atoms: C_11  and  O_12 
REMARK    5  A    between atoms: C_11  and  C_13 
ROOT
HETATM    1  C   UNL     1      -5.581   0.184 -32.474  1.00  0.00     0.254 C 
HETATM    2  N   UNL     1      -5.808   1.391 -33.093  1.00  0.00    -0.354 N 
HETATM    3  O   UNL     1      -5.409   0.105 -31.261  1.00  0.00    -0.268 OA
HETATM    4  H   UNL     1      -5.784   1.441 -34.100  1.00  0.00     0.162 HD
ENDROOT
BRANCH   2   5
HETATM    5  C   UNL     1      -5.926   2.632 -32.342  1.00  0.00     0.159 C 
BRANCH   5   6
HETATM    6  C   UNL     1      -7.306   2.795 -31.672  1.00  0.00     0.175 C 
BRANCH   6   7
HETATM    7  O   UNL     1      -7.513   4.172 -31.331  1.00  0.00    -0.389 OA
HETATM    8  H   UNL     1      -8.473   4.315 -31.398  1.00  0.00     0.210 HD
ENDBRANCH   6   7
BRANCH   6   9
HETATM    9  C   UNL     1      -8.443   2.349 -32.551  1.00  0.00     0.049 A 
HETATM   10  C   UNL     1      -9.130   1.165 -32.269  1.00  0.00     0.128 A 
HETATM   11  F   UNL     1      -8.774   0.417 -31.214  1.00  0.00    -0.205 F 
HETATM   12  C   UNL     1     -10.188   0.721 -33.064  1.00  0.00     0.043 A 
HETATM   13  C   UNL     1     -10.584   1.467 -34.172  1.00  0.00     0.006 A 
HETATM   14  C   UNL     1      -9.917   2.651 -34.472  1.00  0.00     0.043 A 
HETATM   15  C   UNL     1      -8.863   3.082 -33.664  1.00  0.00     0.128 A 
HETATM   16  F   UNL     1      -8.243   4.224 -33.994  1.00  0.00    -0.205 F 
ENDBRANCH   6   9
ENDBRANCH   5   6
ENDBRANCH   2   5
BRANCH   1  17
HETATM   17  C   UNL     1      -5.511  -0.978 -33.365  1.00  0.00     0.066 A 
HETATM   18  C   UNL     1      -6.257  -1.231 -34.517  1.00  0.00     0.022 A 
HETATM   19  C   UNL     1      -7.355  -0.488 -35.193  1.00  0.00     0.069 C 
HETATM   20  N   UNL     1      -5.844  -2.443 -35.022  1.00  0.00    -0.358 N 
HETATM   21  H   UNL     1      -6.215  -2.883 -35.853  1.00  0.00     0.166 HD
HETATM   22  C   UNL     1      -4.893  -3.013 -34.215  1.00  0.00     0.043 A 
HETATM   23  C   UNL     1      -4.664  -2.127 -33.166  1.00  0.00     0.008 A 
HETATM   24  C   UNL     1      -4.233  -4.243 -34.335  1.00  0.00     0.030 A 
HETATM   25  C   UNL     1      -3.717  -2.493 -32.184  1.00  0.00     0.015 A 
HETATM   26  C   UNL     1      -3.048  -3.717 -32.284  1.00  0.00     0.001 A 
HETATM   27  C   UNL     1      -3.304  -4.579 -33.346  1.00  0.00     0.002 A 
ENDBRANCH   1  17
TORSDOF 5
ENDMDL
MODEL 10
REMARK VINA RESULT:      -7.8      3.627      4.707
REMARK  5 active torsions:
REMARK  status: ('A' for Active; 'I' for Inactive)
REMARK    1  A    between atoms: C_7  and  C_8 
REMARK       I    between atoms: C_8  and  N_9 
REMARK    2  A    between atoms: N_9  and  C_10 
REMARK    3  A    between atoms: C_10  and  C_11 
REMARK    4  A    between atoms: C_11  and  O_12 
REMARK    5  A    between atoms: C_11  and  C_13 
ROOT
HETATM    1  C   UNL     1      -4.210   0.188 -31.958  1.00  0.00     0.254 C 
HETATM    2  N   UNL     1      -3.817   1.417 -32.435  1.00  0.00    -0.354 N 
HETATM    3  O   UNL     1      -4.107  -0.104 -30.770  1.00  0.00    -0.268 OA
HETATM    4  H   UNL     1      -3.763   1.564 -33.431  1.00  0.00     0.162 HD
ENDROOT
BRANCH   2   5
HETATM    5  C   UNL     1      -3.323   2.464 -31.553  1.00  0.00     0.159 C 
BRANCH   5   6
HETATM    6  C   UNL     1      -4.459   3.300 -30.928  1.00  0.00     0.175 C 
BRANCH   6   7
HETATM    7  O   UNL     1      -3.913   4.493 -30.350  1.00  0.00    -0.389 OA
HETATM    8  H   UNL     1      -4.611   5.166 -30.433  1.00  0.00     0.210 HD
ENDBRANCH   6   7
BRANCH   6   9
HETATM    9  C   UNL     1      -5.515   3.697 -31.923  1.00  0.00     0.049 A 
HETATM   10  C   UNL     1      -6.834   3.266 -31.762  1.00  0.00     0.128 A 
HETATM   11  F   UNL     1      -7.164   2.491 -30.719  1.00  0.00    -0.205 F 
HETATM   12  C   UNL     1      -7.838   3.614 -32.668  1.00  0.00     0.043 A 
HETATM   13  C   UNL     1      -7.534   4.413 -33.767  1.00  0.00     0.006 A 
HETATM   14  C   UNL     1      -6.228   4.857 -33.948  1.00  0.00     0.043 A 
HETATM   15  C   UNL     1      -5.237   4.502 -33.031  1.00  0.00     0.128 A 
HETATM   16  F   UNL     1      -3.990   4.945 -33.249  1.00  0.00    -0.205 F 
ENDBRANCH   6   9
ENDBRANCH   5   6
ENDBRANCH   2   5
BRANCH   1  17
HETATM   17  C   UNL     1      -4.705  -0.752 -32.969  1.00  0.00     0.066 A 
HETATM   18  C   UNL     1      -5.671  -0.535 -33.952  1.00  0.00     0.022 A 
HETATM   19  C   UNL     1      -6.529   0.635 -34.284  1.00  0.00     0.069 C 
HETATM   20  N   UNL     1      -5.805  -1.702 -34.668  1.00  0.00    -0.358 N 
HETATM   21  H   UNL     1      -6.440  -1.839 -35.443  1.00  0.00     0.166 HD
HETATM   22  C   UNL     1      -4.999  -2.688 -34.157  1.00  0.00     0.043 A 
HETATM   23  C   UNL     1      -4.300  -2.130 -33.089  1.00  0.00     0.008 A 
HETATM   24  C   UNL     1      -4.848  -4.022 -34.555  1.00  0.00     0.030 A 
HETATM   25  C   UNL     1      -3.397  -2.956 -32.385  1.00  0.00     0.015 A 
HETATM   26  C   UNL     1      -3.233  -4.291 -32.766  1.00  0.00     0.001 A 
HETATM   27  C   UNL     1      -3.950  -4.816 -33.837  1.00  0.00     0.002 A 
ENDBRANCH   1  17
TORSDOF 5
ENDMDL
