MODEL 1
REMARK VINA RESULT:      -8.5      0.000      0.000
REMARK  4 active torsions:
REMARK  status: ('A' for Active; 'I' for Inactive)
REMARK    1  A    between atoms: C_3  and  C_4 
REMARK    2  A    between atoms: C_5  and  C_6 
REMARK       I    between atoms: C_6  and  N_7 
REMARK    3  A    between atoms: N_7  and  C_8 
REMARK    4  A    between atoms: C_15  and  C_16 
REMARK       I    between atoms: C_16  and  N_17 
ROOT
HETATM    1  C   UNL     1      -4.174   3.598 -32.500  1.00  0.00     0.035 A 
HETATM    2  C   UNL     1      -2.956   4.154 -32.084  1.00  0.00     0.046 A 
HETATM    3  C   UNL     1      -2.378   5.206 -32.830  1.00  0.00     0.030 A 
HETATM    4  C   UNL     1      -3.047   5.677 -33.953  1.00  0.00     0.063 A 
HETATM    5  N   UNL     1      -2.259   6.676 -34.453  1.00  0.00    -0.277 N 
HETATM    6  H   UNL     1      -2.439   7.248 -35.271  1.00  0.00     0.189 HD
HETATM    7  N   UNL     1      -1.125   6.886 -33.767  1.00  0.00    -0.168 NA
HETATM    8  C   UNL     1      -1.182   5.983 -32.761  1.00  0.00     0.156 A 
HETATM    9  C   UNL     1      -4.266   5.155 -34.391  1.00  0.00     0.034 A 
HETATM   10  C   UNL     1      -4.808   4.101 -33.645  1.00  0.00     0.032 A 
ENDROOT
BRANCH   1  11
HETATM   11  N   UNL     1      -4.805   2.515 -31.851  1.00  0.00    -0.327 N 
HETATM   12  C   UNL     1      -5.935   2.551 -31.063  1.00  0.00     0.227 C 
HETATM   13  O   UNL     1      -6.645   3.520 -30.838  1.00  0.00    -0.273 OA
HETATM   14  H   UNL     1      -4.374   1.613 -31.979  1.00  0.00     0.169 HD
BRANCH  12  15
HETATM   15  C   UNL     1      -6.275   1.270 -30.381  1.00  0.00     0.087 A 
HETATM   16  C   UNL     1      -7.004   0.131 -31.076  1.00  0.00     0.034 A 
HETATM   17  C   UNL     1      -5.577  -0.041 -30.595  1.00  0.00     0.025 A 
BRANCH  16  18
HETATM   18  C   UNL     1      -7.284   0.061 -32.568  1.00  0.00    -0.031 A 
HETATM   19  C   UNL     1      -6.387  -0.583 -33.441  1.00  0.00     0.009 A 
HETATM   20  C   UNL     1      -6.610  -0.644 -34.821  1.00  0.00     0.001 A 
HETATM   21  C   UNL     1      -7.732  -0.041 -35.375  1.00  0.00     0.002 A 
HETATM   22  C   UNL     1      -8.624   0.634 -34.549  1.00  0.00     0.024 A 
HETATM   23  C   UNL     1      -8.399   0.691 -33.168  1.00  0.00     0.040 A 
HETATM   24 CL   UNL     1      -9.531   1.601 -32.224  1.00  0.00    -0.084 Cl
ENDBRANCH  16  18
ENDBRANCH  12  15
ENDBRANCH   1  11
BRANCH   8  25
HETATM   25  C   UNL     1      -0.098   5.876 -31.774  1.00  0.00     0.270 C 
HETATM   26  N   UNL     1       0.370   7.082 -31.327  1.00  0.00    -0.365 N 
HETATM   27  H   UNL     1      -0.038   7.931 -31.704  1.00  0.00     0.159 HD
HETATM   28  H   UNL     1       1.130   7.109 -30.666  1.00  0.00     0.159 HD
HETATM   29  O   UNL     1       0.379   4.822 -31.368  1.00  0.00    -0.266 OA
ENDBRANCH   8  25
TORSDOF 4
ENDMDL
MODEL 2
REMARK VINA RESULT:      -8.4      2.146      2.489
REMARK  4 active torsions:
REMARK  status: ('A' for Active; 'I' for Inactive)
REMARK    1  A    between atoms: C_3  and  C_4 
REMARK    2  A    between atoms: C_5  and  C_6 
REMARK       I    between atoms: C_6  and  N_7 
REMARK    3  A    between atoms: N_7  and  C_8 
REMARK    4  A    between atoms: C_15  and  C_16 
REMARK       I    between atoms: C_16  and  N_17 
ROOT
HETATM    1  C   UNL     1      -3.772   4.147 -31.749  1.00  0.00     0.035 A 
HETATM    2  C   UNL     1      -3.770   5.503 -31.393  1.00  0.00     0.046 A 
HETATM    3  C   UNL     1      -2.938   6.406 -32.092  1.00  0.00     0.030 A 
HETATM    4  C   UNL     1      -2.153   5.926 -33.133  1.00  0.00     0.063 A 
HETATM    5  N   UNL     1      -1.475   7.013 -33.608  1.00  0.00    -0.277 N 
HETATM    6  H   UNL     1      -0.810   7.035 -34.374  1.00  0.00     0.189 HD
HETATM    7  N   UNL     1      -1.731   8.157 -32.956  1.00  0.00    -0.168 NA
HETATM    8  C   UNL     1      -2.633   7.799 -32.014  1.00  0.00     0.156 A 
HETATM    9  C   UNL     1      -2.139   4.585 -33.523  1.00  0.00     0.034 A 
HETATM   10  C   UNL     1      -2.958   3.707 -32.803  1.00  0.00     0.032 A 
ENDROOT
BRANCH   1  11
HETATM   11  N   UNL     1      -4.531   3.162 -31.081  1.00  0.00    -0.327 N 
HETATM   12  C   UNL     1      -5.772   2.675 -31.432  1.00  0.00     0.227 C 
HETATM   13  O   UNL     1      -6.417   2.956 -32.431  1.00  0.00    -0.273 OA
HETATM   14  H   UNL     1      -4.113   2.773 -30.251  1.00  0.00     0.169 HD
BRANCH  12  15
HETATM   15  C   UNL     1      -6.395   1.750 -30.444  1.00  0.00     0.087 A 
HETATM   16  C   UNL     1      -6.643   0.277 -30.731  1.00  0.00     0.034 A 
HETATM   17  C   UNL     1      -5.665   0.702 -29.654  1.00  0.00     0.025 A 
BRANCH  16  18
HETATM   18  C   UNL     1      -6.114  -0.473 -31.942  1.00  0.00    -0.031 A 
HETATM   19  C   UNL     1      -4.779  -0.919 -31.988  1.00  0.00     0.009 A 
HETATM   20  C   UNL     1      -4.260  -1.593 -33.098  1.00  0.00     0.001 A 
HETATM   21  C   UNL     1      -5.058  -1.824 -34.212  1.00  0.00     0.002 A 
HETATM   22  C   UNL     1      -6.373  -1.369 -34.218  1.00  0.00     0.024 A 
HETATM   23  C   UNL     1      -6.889  -0.696 -33.104  1.00  0.00     0.040 A 
HETATM   24 CL   UNL     1      -8.517  -0.115 -33.222  1.00  0.00    -0.084 Cl
ENDBRANCH  16  18
ENDBRANCH  12  15
ENDBRANCH   1  11
BRANCH   8  25
HETATM   25  C   UNL     1      -3.167   8.782 -31.061  1.00  0.00     0.270 C 
HETATM   26  N   UNL     1      -2.644   8.679 -29.801  1.00  0.00    -0.365 N 
HETATM   27  H   UNL     1      -1.962   7.951 -29.616  1.00  0.00     0.159 HD
HETATM   28  H   UNL     1      -2.967   9.296 -29.073  1.00  0.00     0.159 HD
HETATM   29  O   UNL     1      -4.012   9.629 -31.328  1.00  0.00    -0.266 OA
ENDBRANCH   8  25
TORSDOF 4
ENDMDL
MODEL 3
REMARK VINA RESULT:      -8.2      3.191      8.117
REMARK  4 active torsions:
REMARK  status: ('A' for Active; 'I' for Inactive)
REMARK    1  A    between atoms: C_3  and  C_4 
REMARK    2  A    between atoms: C_5  and  C_6 
REMARK       I    between atoms: C_6  and  N_7 
REMARK    3  A    between atoms: N_7  and  C_8 
REMARK    4  A    between atoms: C_15  and  C_16 
REMARK       I    between atoms: C_16  and  N_17 
ROOT
HETATM    1  C   UNL     1      -4.669   3.442 -32.664  1.00  0.00     0.035 A 
HETATM    2  C   UNL     1      -5.710   2.817 -33.366  1.00  0.00     0.046 A 
HETATM    3  C   UNL     1      -6.617   1.984 -32.673  1.00  0.00     0.030 A 
HETATM    4  C   UNL     1      -6.464   1.822 -31.302  1.00  0.00     0.063 A 
HETATM    5  N   UNL     1      -7.472   0.981 -30.922  1.00  0.00    -0.277 N 
HETATM    6  H   UNL     1      -7.671   0.645 -29.986  1.00  0.00     0.189 HD
HETATM    7  N   UNL     1      -8.258   0.563 -31.926  1.00  0.00    -0.168 NA
HETATM    8  C   UNL     1      -7.741   1.173 -33.018  1.00  0.00     0.156 A 
HETATM    9  C   UNL     1      -5.448   2.437 -30.569  1.00  0.00     0.034 A 
HETATM   10  C   UNL     1      -4.551   3.242 -31.281  1.00  0.00     0.032 A 
ENDROOT
BRANCH   1  11
HETATM   11  N   UNL     1      -3.687   4.251 -33.273  1.00  0.00    -0.327 N 
HETATM   12  C   UNL     1      -3.682   5.625 -33.389  1.00  0.00     0.227 C 
HETATM   13  O   UNL     1      -4.498   6.405 -32.921  1.00  0.00    -0.273 OA
HETATM   14  H   UNL     1      -2.899   3.764 -33.670  1.00  0.00     0.169 HD
BRANCH  12  15
HETATM   15  C   UNL     1      -2.585   6.189 -34.225  1.00  0.00     0.087 A 
HETATM   16  C   UNL     1      -1.281   6.706 -33.640  1.00  0.00     0.034 A 
HETATM   17  C   UNL     1      -1.295   5.495 -34.550  1.00  0.00     0.025 A 
BRANCH  16  18
HETATM   18  C   UNL     1      -0.846   6.527 -32.195  1.00  0.00    -0.031 A 
HETATM   19  C   UNL     1      -0.153   5.371 -31.788  1.00  0.00     0.009 A 
HETATM   20  C   UNL     1       0.241   5.171 -30.461  1.00  0.00     0.001 A 
HETATM   21  C   UNL     1      -0.067   6.116 -29.490  1.00  0.00     0.002 A 
HETATM   22  C   UNL     1      -0.781   7.255 -29.847  1.00  0.00     0.024 A 
HETATM   23  C   UNL     1      -1.171   7.453 -31.177  1.00  0.00     0.040 A 
HETATM   24 CL   UNL     1      -2.105   8.871 -31.519  1.00  0.00    -0.084 Cl
ENDBRANCH  16  18
ENDBRANCH  12  15
ENDBRANCH   1  11
BRANCH   8  25
HETATM   25  C   UNL     1      -8.319   0.960 -34.352  1.00  0.00     0.270 C 
HETATM   26  N   UNL     1      -9.498   1.622 -34.561  1.00  0.00    -0.365 N 
HETATM   27  H   UNL     1      -9.883   2.179 -33.806  1.00  0.00     0.159 HD
HETATM   28  H   UNL     1      -9.981   1.518 -35.439  1.00  0.00     0.159 HD
HETATM   29  O   UNL     1      -7.826   0.254 -35.225  1.00  0.00    -0.266 OA
ENDBRANCH   8  25
TORSDOF 4
ENDMDL
MODEL 4
REMARK VINA RESULT:      -8.2      5.091      8.814
REMARK  4 active torsions:
REMARK  status: ('A' for Active; 'I' for Inactive)
REMARK    1  A    between atoms: C_3  and  C_4 
REMARK    2  A    between atoms: C_5  and  C_6 
REMARK       I    between atoms: C_6  and  N_7 
REMARK    3  A    between atoms: N_7  and  C_8 
REMARK    4  A    between atoms: C_15  and  C_16 
REMARK       I    between atoms: C_16  and  N_17 
ROOT
HETATM    1  C   UNL     1      -9.988   1.869 -34.204  1.00  0.00     0.035 A 
HETATM    2  C   UNL     1     -11.266   1.295 -34.270  1.00  0.00     0.046 A 
HETATM    3  C   UNL     1     -12.376   2.005 -33.760  1.00  0.00     0.030 A 
HETATM    4  C   UNL     1     -12.173   3.269 -33.220  1.00  0.00     0.063 A 
HETATM    5  N   UNL     1     -13.408   3.697 -32.821  1.00  0.00    -0.277 N 
HETATM    6  H   UNL     1     -13.639   4.582 -32.384  1.00  0.00     0.189 HD
HETATM    7  N   UNL     1     -14.397   2.815 -33.033  1.00  0.00    -0.168 NA
HETATM    8  C   UNL     1     -13.776   1.763 -33.612  1.00  0.00     0.156 A 
HETATM    9  C   UNL     1     -10.917   3.876 -33.148  1.00  0.00     0.034 A 
HETATM   10  C   UNL     1      -9.831   3.144 -33.643  1.00  0.00     0.032 A 
ENDROOT
BRANCH   1  11
HETATM   11  N   UNL     1      -8.814   1.220 -34.642  1.00  0.00    -0.327 N 
HETATM   12  C   UNL     1      -8.294   0.026 -34.189  1.00  0.00     0.227 C 
HETATM   13  O   UNL     1      -8.794  -0.731 -33.370  1.00  0.00    -0.273 OA
HETATM   14  H   UNL     1      -8.298   1.689 -35.370  1.00  0.00     0.169 HD
BRANCH  12  15
HETATM   15  C   UNL     1      -6.952  -0.329 -34.732  1.00  0.00     0.087 A 
HETATM   16  C   UNL     1      -5.652   0.092 -34.066  1.00  0.00     0.034 A 
HETATM   17  C   UNL     1      -6.033  -1.371 -34.164  1.00  0.00     0.025 A 
BRANCH  16  18
HETATM   18  C   UNL     1      -5.548   0.727 -32.689  1.00  0.00    -0.031 A 
HETATM   19  C   UNL     1      -5.416  -0.069 -31.535  1.00  0.00     0.009 A 
HETATM   20  C   UNL     1      -5.338   0.488 -30.254  1.00  0.00     0.001 A 
HETATM   21  C   UNL     1      -5.413   1.865 -30.086  1.00  0.00     0.002 A 
HETATM   22  C   UNL     1      -5.578   2.683 -31.198  1.00  0.00     0.024 A 
HETATM   23  C   UNL     1      -5.652   2.122 -32.479  1.00  0.00     0.040 A 
HETATM   24 CL   UNL     1      -5.915   3.211 -33.800  1.00  0.00    -0.084 Cl
ENDBRANCH  16  18
ENDBRANCH  12  15
ENDBRANCH   1  11
BRANCH   8  25
HETATM   25  C   UNL     1     -14.523   0.556 -33.995  1.00  0.00     0.270 C 
HETATM   26  N   UNL     1     -14.070  -0.591 -33.402  1.00  0.00    -0.365 N 
HETATM   27  H   UNL     1     -13.273  -0.533 -32.778  1.00  0.00     0.159 HD
HETATM   28  H   UNL     1     -14.505  -1.473 -33.622  1.00  0.00     0.159 HD
HETATM   29  O   UNL     1     -15.466   0.534 -34.777  1.00  0.00    -0.266 OA
ENDBRANCH   8  25
TORSDOF 4
ENDMDL
MODEL 5
REMARK VINA RESULT:      -8.0      4.959      6.453
REMARK  4 active torsions:
REMARK  status: ('A' for Active; 'I' for Inactive)
REMARK    1  A    between atoms: C_3  and  C_4 
REMARK    2  A    between atoms: C_5  and  C_6 
REMARK       I    between atoms: C_6  and  N_7 
REMARK    3  A    between atoms: N_7  and  C_8 
REMARK    4  A    between atoms: C_15  and  C_16 
REMARK       I    between atoms: C_16  and  N_17 
ROOT
HETATM    1  C   UNL     1      -7.070   0.251 -33.261  1.00  0.00     0.035 A 
HETATM    2  C   UNL     1      -5.873  -0.256 -32.737  1.00  0.00     0.046 A 
HETATM    3  C   UNL     1      -5.273  -1.386 -33.337  1.00  0.00     0.030 A 
HETATM    4  C   UNL     1      -5.878  -1.956 -34.449  1.00  0.00     0.063 A 
HETATM    5  N   UNL     1      -5.079  -3.008 -34.800  1.00  0.00    -0.277 N 
HETATM    6  H   UNL     1      -5.214  -3.650 -35.573  1.00  0.00     0.189 HD
HETATM    7  N   UNL     1      -4.015  -3.188 -34.002  1.00  0.00    -0.168 NA
HETATM    8  C   UNL     1      -4.121  -2.194 -33.090  1.00  0.00     0.156 A 
HETATM    9  C   UNL     1      -7.063  -1.471 -35.006  1.00  0.00     0.034 A 
HETATM   10  C   UNL     1      -7.649  -0.362 -34.382  1.00  0.00     0.032 A 
ENDROOT
BRANCH   1  11
HETATM   11  N   UNL     1      -7.770   1.343 -32.704  1.00  0.00    -0.327 N 
HETATM   12  C   UNL     1      -7.662   2.673 -33.048  1.00  0.00     0.227 C 
HETATM   13  O   UNL     1      -6.990   3.148 -33.951  1.00  0.00    -0.273 OA
HETATM   14  H   UNL     1      -8.422   1.119 -31.970  1.00  0.00     0.169 HD
BRANCH  12  15
HETATM   15  C   UNL     1      -8.414   3.618 -32.174  1.00  0.00     0.087 A 
HETATM   16  C   UNL     1      -9.853   4.028 -32.444  1.00  0.00     0.034 A 
HETATM   17  C   UNL     1      -9.493   3.234 -31.204  1.00  0.00     0.025 A 
BRANCH  16  18
HETATM   18  C   UNL     1     -10.758   3.387 -33.483  1.00  0.00    -0.031 A 
HETATM   19  C   UNL     1     -11.368   2.141 -33.239  1.00  0.00     0.009 A 
HETATM   20  C   UNL     1     -12.189   1.519 -34.185  1.00  0.00     0.001 A 
HETATM   21  C   UNL     1     -12.409   2.116 -35.420  1.00  0.00     0.002 A 
HETATM   22  C   UNL     1     -11.797   3.331 -35.712  1.00  0.00     0.024 A 
HETATM   23  C   UNL     1     -10.978   3.951 -34.761  1.00  0.00     0.040 A 
HETATM   24 CL   UNL     1     -10.212   5.432 -35.231  1.00  0.00    -0.084 Cl
ENDBRANCH  16  18
ENDBRANCH  12  15
ENDBRANCH   1  11
BRANCH   8  25
HETATM   25  C   UNL     1      -3.137  -2.049 -32.008  1.00  0.00     0.270 C 
HETATM   26  N   UNL     1      -2.717  -3.236 -31.473  1.00  0.00    -0.365 N 
HETATM   27  H   UNL     1      -3.110  -4.098 -31.836  1.00  0.00     0.159 HD
HETATM   28  H   UNL     1      -2.060  -3.236 -30.709  1.00  0.00     0.159 HD
HETATM   29  O   UNL     1      -2.711  -0.979 -31.587  1.00  0.00    -0.266 OA
ENDBRANCH   8  25
TORSDOF 4
ENDMDL
MODEL 6
REMARK VINA RESULT:      -8.0      3.592      6.797
REMARK  4 active torsions:
REMARK  status: ('A' for Active; 'I' for Inactive)
REMARK    1  A    between atoms: C_3  and  C_4 
REMARK    2  A    between atoms: C_5  and  C_6 
REMARK       I    between atoms: C_6  and  N_7 
REMARK    3  A    between atoms: N_7  and  C_8 
REMARK    4  A    between atoms: C_15  and  C_16 
REMARK       I    between atoms: C_16  and  N_17 
ROOT
HETATM    1  C   UNL     1      -6.261   0.491 -33.940  1.00  0.00     0.035 A 
HETATM    2  C   UNL     1      -5.201  -0.149 -33.281  1.00  0.00     0.046 A 
HETATM    3  C   UNL     1      -4.922  -1.505 -33.563  1.00  0.00     0.030 A 
HETATM    4  C   UNL     1      -5.698  -2.167 -34.506  1.00  0.00     0.063 A 
HETATM    5  N   UNL     1      -5.196  -3.437 -34.563  1.00  0.00    -0.277 N 
HETATM    6  H   UNL     1      -5.518  -4.199 -35.150  1.00  0.00     0.189 HD
HETATM    7  N   UNL     1      -4.173  -3.669 -33.725  1.00  0.00    -0.168 NA
HETATM    8  C   UNL     1      -3.992  -2.484 -33.098  1.00  0.00     0.156 A 
HETATM    9  C   UNL     1      -6.753  -1.559 -35.190  1.00  0.00     0.034 A 
HETATM   10  C   UNL     1      -7.022  -0.221 -34.879  1.00  0.00     0.032 A 
ENDROOT
BRANCH   1  11
HETATM   11  N   UNL     1      -6.648   1.825 -33.692  1.00  0.00    -0.327 N 
HETATM   12  C   UNL     1      -7.281   2.323 -32.574  1.00  0.00     0.227 C 
HETATM   13  O   UNL     1      -7.564   1.711 -31.554  1.00  0.00    -0.273 OA
HETATM   14  H   UNL     1      -6.435   2.488 -34.421  1.00  0.00     0.169 HD
BRANCH  12  15
HETATM   15  C   UNL     1      -7.706   3.749 -32.665  1.00  0.00     0.087 A 
HETATM   16  C   UNL     1      -6.726   4.909 -32.601  1.00  0.00     0.034 A 
HETATM   17  C   UNL     1      -7.521   4.636 -33.861  1.00  0.00     0.025 A 
BRANCH  16  18
HETATM   18  C   UNL     1      -5.213   4.772 -32.649  1.00  0.00    -0.031 A 
HETATM   19  C   UNL     1      -4.503   5.023 -33.839  1.00  0.00     0.009 A 
HETATM   20  C   UNL     1      -3.113   4.884 -33.916  1.00  0.00     0.001 A 
HETATM   21  C   UNL     1      -2.389   4.468 -32.806  1.00  0.00     0.002 A 
HETATM   22  C   UNL     1      -3.058   4.177 -31.622  1.00  0.00     0.024 A 
HETATM   23  C   UNL     1      -4.449   4.320 -31.548  1.00  0.00     0.040 A 
HETATM   24 CL   UNL     1      -5.204   3.882 -30.051  1.00  0.00    -0.084 Cl
ENDBRANCH  16  18
ENDBRANCH  12  15
ENDBRANCH   1  11
BRANCH   8  25
HETATM   25  C   UNL     1      -2.955  -2.320 -32.069  1.00  0.00     0.270 C 
HETATM   26  N   UNL     1      -2.653  -3.471 -31.394  1.00  0.00    -0.365 N 
HETATM   27  H   UNL     1      -3.157  -4.319 -31.630  1.00  0.00     0.159 HD
HETATM   28  H   UNL     1      -1.970  -3.452 -30.653  1.00  0.00     0.159 HD
HETATM   29  O   UNL     1      -2.393  -1.264 -31.803  1.00  0.00    -0.266 OA
ENDBRANCH   8  25
TORSDOF 4
ENDMDL
MODEL 7
REMARK VINA RESULT:      -7.7      4.413      6.894
REMARK  4 active torsions:
REMARK  status: ('A' for Active; 'I' for Inactive)
REMARK    1  A    between atoms: C_3  and  C_4 
REMARK    2  A    between atoms: C_5  and  C_6 
REMARK       I    between atoms: C_6  and  N_7 
REMARK    3  A    between atoms: N_7  and  C_8 
REMARK    4  A    between atoms: C_15  and  C_16 
REMARK       I    between atoms: C_16  and  N_17 
ROOT
HETATM    1  C   UNL     1      -8.540   1.136 -34.356  1.00  0.00     0.035 A 
HETATM    2  C   UNL     1      -7.906   1.554 -33.177  1.00  0.00     0.046 A 
HETATM    3  C   UNL     1      -6.660   0.992 -32.819  1.00  0.00     0.030 A 
HETATM    4  C   UNL     1      -6.083   0.049 -33.660  1.00  0.00     0.063 A 
HETATM    5  N   UNL     1      -4.905  -0.300 -33.062  1.00  0.00    -0.277 N 
HETATM    6  H   UNL     1      -4.218  -0.966 -33.400  1.00  0.00     0.189 HD
HETATM    7  N   UNL     1      -4.671   0.316 -31.893  1.00  0.00    -0.168 NA
HETATM    8  C   UNL     1      -5.747   1.117 -31.727  1.00  0.00     0.156 A 
HETATM    9  C   UNL     1      -6.679  -0.381 -34.847  1.00  0.00     0.034 A 
HETATM   10  C   UNL     1      -7.922   0.176 -35.170  1.00  0.00     0.032 A 
ENDROOT
BRANCH   1  11
HETATM   11  N   UNL     1      -9.805   1.602 -34.773  1.00  0.00    -0.327 N 
HETATM   12  C   UNL     1     -11.041   1.207 -34.307  1.00  0.00     0.227 C 
HETATM   13  O   UNL     1     -11.269   0.429 -33.393  1.00  0.00    -0.273 OA
HETATM   14  H   UNL     1      -9.800   2.303 -35.496  1.00  0.00     0.169 HD
BRANCH  12  15
HETATM   15  C   UNL     1     -12.207   1.762 -35.052  1.00  0.00     0.087 A 
HETATM   16  C   UNL     1     -13.128   2.825 -34.474  1.00  0.00     0.034 A 
HETATM   17  C   UNL     1     -12.267   3.121 -35.685  1.00  0.00     0.025 A 
BRANCH  16  18
HETATM   18  C   UNL     1     -12.867   3.594 -33.189  1.00  0.00    -0.031 A 
HETATM   19  C   UNL     1     -11.792   4.499 -33.095  1.00  0.00     0.009 A 
HETATM   20  C   UNL     1     -11.517   5.205 -31.920  1.00  0.00     0.001 A 
HETATM   21  C   UNL     1     -12.300   5.010 -30.788  1.00  0.00     0.002 A 
HETATM   22  C   UNL     1     -13.350   4.099 -30.831  1.00  0.00     0.024 A 
HETATM   23  C   UNL     1     -13.624   3.397 -32.011  1.00  0.00     0.040 A 
HETATM   24 CL   UNL     1     -14.914   2.242 -31.957  1.00  0.00    -0.084 Cl
ENDBRANCH  16  18
ENDBRANCH  12  15
ENDBRANCH   1  11
BRANCH   8  25
HETATM   25  C   UNL     1      -5.886   1.966 -30.535  1.00  0.00     0.270 C 
HETATM   26  N   UNL     1      -6.469   1.338 -29.468  1.00  0.00    -0.365 N 
HETATM   27  H   UNL     1      -6.766   0.375 -29.575  1.00  0.00     0.159 HD
HETATM   28  H   UNL     1      -6.627   1.848 -28.613  1.00  0.00     0.159 HD
HETATM   29  O   UNL     1      -5.533   3.138 -30.464  1.00  0.00    -0.266 OA
ENDBRANCH   8  25
TORSDOF 4
ENDMDL
MODEL 8
REMARK VINA RESULT:      -7.5      4.618      7.998
REMARK  4 active torsions:
REMARK  status: ('A' for Active; 'I' for Inactive)
REMARK    1  A    between atoms: C_3  and  C_4 
REMARK    2  A    between atoms: C_5  and  C_6 
REMARK       I    between atoms: C_6  and  N_7 
REMARK    3  A    between atoms: N_7  and  C_8 
REMARK    4  A    between atoms: C_15  and  C_16 
REMARK       I    between atoms: C_16  and  N_17 
ROOT
HETATM    1  C   UNL     1      -1.382   6.756 -32.208  1.00  0.00     0.035 A 
HETATM    2  C   UNL     1      -2.757   6.529 -32.052  1.00  0.00     0.046 A 
HETATM    3  C   UNL     1      -3.505   6.012 -33.133  1.00  0.00     0.030 A 
HETATM    4  C   UNL     1      -2.850   5.721 -34.323  1.00  0.00     0.063 A 
HETATM    5  N   UNL     1      -3.816   5.243 -35.162  1.00  0.00    -0.277 N 
HETATM    6  H   UNL     1      -3.697   4.927 -36.119  1.00  0.00     0.189 HD
HETATM    7  N   UNL     1      -5.049   5.214 -34.632  1.00  0.00    -0.168 NA
HETATM    8  C   UNL     1      -4.874   5.688 -33.378  1.00  0.00     0.156 A 
HETATM    9  C   UNL     1      -1.481   5.923 -34.510  1.00  0.00     0.034 A 
HETATM   10  C   UNL     1      -0.765   6.455 -33.430  1.00  0.00     0.032 A 
ENDROOT
BRANCH   1  11
HETATM   11  N   UNL     1      -0.560   7.315 -31.205  1.00  0.00    -0.327 N 
HETATM   12  C   UNL     1      -0.002   6.671 -30.121  1.00  0.00     0.227 C 
HETATM   13  O   UNL     1      -0.056   5.477 -29.866  1.00  0.00    -0.273 OA
HETATM   14  H   UNL     1      -0.363   8.299 -31.295  1.00  0.00     0.169 HD
BRANCH  12  15
HETATM   15  C   UNL     1       0.691   7.557 -29.143  1.00  0.00     0.087 A 
HETATM   16  C   UNL     1      -0.045   8.327 -28.058  1.00  0.00     0.034 A 
HETATM   17  C   UNL     1       0.939   7.232 -27.699  1.00  0.00     0.025 A 
BRANCH  16  18
HETATM   18  C   UNL     1      -1.510   8.137 -27.700  1.00  0.00    -0.031 A 
HETATM   19  C   UNL     1      -1.899   7.193 -26.731  1.00  0.00     0.009 A 
HETATM   20  C   UNL     1      -3.241   6.983 -26.397  1.00  0.00     0.001 A 
HETATM   21  C   UNL     1      -4.242   7.700 -27.042  1.00  0.00     0.002 A 
HETATM   22  C   UNL     1      -3.899   8.617 -28.029  1.00  0.00     0.024 A 
HETATM   23  C   UNL     1      -2.555   8.826 -28.359  1.00  0.00     0.040 A 
HETATM   24 CL   UNL     1      -2.224   9.945 -29.639  1.00  0.00    -0.084 Cl
ENDBRANCH  16  18
ENDBRANCH  12  15
ENDBRANCH   1  11
BRANCH   8  25
HETATM   25  C   UNL     1      -6.009   5.832 -32.456  1.00  0.00     0.270 C 
HETATM   26  N   UNL     1      -6.810   6.910 -32.722  1.00  0.00    -0.365 N 
HETATM   27  H   UNL     1      -6.566   7.517 -33.496  1.00  0.00     0.159 HD
HETATM   28  H   UNL     1      -7.601   7.103 -32.128  1.00  0.00     0.159 HD
HETATM   29  O   UNL     1      -6.248   5.083 -31.515  1.00  0.00    -0.266 OA
ENDBRANCH   8  25
TORSDOF 4
ENDMDL
MODEL 9
REMARK VINA RESULT:      -7.4      3.346      4.883
REMARK  4 active torsions:
REMARK  status: ('A' for Active; 'I' for Inactive)
REMARK    1  A    between atoms: C_3  and  C_4 
REMARK    2  A    between atoms: C_5  and  C_6 
REMARK       I    between atoms: C_6  and  N_7 
REMARK    3  A    between atoms: N_7  and  C_8 
REMARK    4  A    between atoms: C_15  and  C_16 
REMARK       I    between atoms: C_16  and  N_17 
ROOT
HETATM    1  C   UNL     1      -6.675   1.848 -33.860  1.00  0.00     0.035 A 
HETATM    2  C   UNL     1      -5.571   2.458 -33.247  1.00  0.00     0.046 A 
HETATM    3  C   UNL     1      -5.734   3.700 -32.594  1.00  0.00     0.030 A 
HETATM    4  C   UNL     1      -6.997   4.279 -32.560  1.00  0.00     0.063 A 
HETATM    5  N   UNL     1      -6.842   5.449 -31.871  1.00  0.00    -0.277 N 
HETATM    6  H   UNL     1      -7.559   6.131 -31.650  1.00  0.00     0.189 HD
HETATM    7  N   UNL     1      -5.585   5.696 -31.469  1.00  0.00    -0.168 NA
HETATM    8  C   UNL     1      -4.887   4.624 -31.910  1.00  0.00     0.156 A 
HETATM    9  C   UNL     1      -8.120   3.696 -33.149  1.00  0.00     0.034 A 
HETATM   10  C   UNL     1      -7.928   2.474 -33.806  1.00  0.00     0.032 A 
ENDROOT
BRANCH   1  11
HETATM   11  N   UNL     1      -6.603   0.634 -34.577  1.00  0.00    -0.327 N 
HETATM   12  C   UNL     1      -7.077  -0.600 -34.188  1.00  0.00     0.227 C 
HETATM   13  O   UNL     1      -7.712  -0.860 -33.177  1.00  0.00    -0.273 OA
HETATM   14  H   UNL     1      -6.151   0.680 -35.476  1.00  0.00     0.169 HD
BRANCH  12  15
HETATM   15  C   UNL     1      -6.714  -1.732 -35.087  1.00  0.00     0.087 A 
HETATM   16  C   UNL     1      -5.422  -2.522 -34.943  1.00  0.00     0.034 A 
HETATM   17  C   UNL     1      -6.765  -3.186 -34.717  1.00  0.00     0.025 A 
BRANCH  16  18
HETATM   18  C   UNL     1      -4.460  -2.407 -33.772  1.00  0.00    -0.031 A 
HETATM   19  C   UNL     1      -4.042  -1.147 -33.302  1.00  0.00     0.009 A 
HETATM   20  C   UNL     1      -3.142  -1.013 -32.240  1.00  0.00     0.001 A 
HETATM   21  C   UNL     1      -2.612  -2.141 -31.626  1.00  0.00     0.002 A 
HETATM   22  C   UNL     1      -2.975  -3.403 -32.084  1.00  0.00     0.024 A 
HETATM   23  C   UNL     1      -3.878  -3.534 -33.146  1.00  0.00     0.040 A 
HETATM   24 CL   UNL     1      -4.228  -5.142 -33.686  1.00  0.00    -0.084 Cl
ENDBRANCH  16  18
ENDBRANCH  12  15
ENDBRANCH   1  11
BRANCH   8  25
HETATM   25  C   UNL     1      -3.439   4.515 -31.681  1.00  0.00     0.270 C 
HETATM   26  N   UNL     1      -2.994   5.208 -30.588  1.00  0.00    -0.365 N 
HETATM   27  H   UNL     1      -3.664   5.738 -30.043  1.00  0.00     0.159 HD
HETATM   28  H   UNL     1      -2.011   5.211 -30.365  1.00  0.00     0.159 HD
HETATM   29  O   UNL     1      -2.664   3.880 -32.387  1.00  0.00    -0.266 OA
ENDBRANCH   8  25
TORSDOF 4
ENDMDL
MODEL 10
REMARK VINA RESULT:      -7.4      4.012      6.706
REMARK  4 active torsions:
REMARK  status: ('A' for Active; 'I' for Inactive)
REMARK    1  A    between atoms: C_3  and  C_4 
REMARK    2  A    between atoms: C_5  and  C_6 
REMARK       I    between atoms: C_6  and  N_7 
REMARK    3  A    between atoms: N_7  and  C_8 
REMARK    4  A    between atoms: C_15  and  C_16 
REMARK       I    between atoms: C_16  and  N_17 
ROOT
HETATM    1  C   UNL     1      -0.911   7.038 -29.925  1.00  0.00     0.035 A 
HETATM    2  C   UNL     1      -1.956   7.169 -28.999  1.00  0.00     0.046 A 
HETATM    3  C   UNL     1      -1.672   7.590 -27.681  1.00  0.00     0.030 A 
HETATM    4  C   UNL     1      -0.358   7.885 -27.341  1.00  0.00     0.063 A 
HETATM    5  N   UNL     1      -0.398   8.261 -26.027  1.00  0.00    -0.277 N 
HETATM    6  H   UNL     1       0.382   8.550 -25.447  1.00  0.00     0.189 HD
HETATM    7  N   UNL     1      -1.620   8.218 -25.473  1.00  0.00    -0.168 NA
HETATM    8  C   UNL     1      -2.419   7.803 -26.483  1.00  0.00     0.156 A 
HETATM    9  C   UNL     1       0.706   7.779 -28.239  1.00  0.00     0.034 A 
HETATM   10  C   UNL     1       0.401   7.341 -29.533  1.00  0.00     0.032 A 
ENDROOT
BRANCH   1  11
HETATM   11  N   UNL     1      -1.087   6.579 -31.248  1.00  0.00    -0.327 N 
HETATM   12  C   UNL     1      -1.086   5.274 -31.691  1.00  0.00     0.227 C 
HETATM   13  O   UNL     1      -1.002   4.264 -31.008  1.00  0.00    -0.273 OA
HETATM   14  H   UNL     1      -1.229   7.292 -31.946  1.00  0.00     0.169 HD
BRANCH  12  15
HETATM   15  C   UNL     1      -1.139   5.106 -33.171  1.00  0.00     0.087 A 
HETATM   16  C   UNL     1      -2.415   4.753 -33.919  1.00  0.00     0.034 A 
HETATM   17  C   UNL     1      -1.733   6.088 -34.137  1.00  0.00     0.025 A 
BRANCH  16  18
HETATM   18  C   UNL     1      -3.805   4.735 -33.305  1.00  0.00    -0.031 A 
HETATM   19  C   UNL     1      -4.625   5.879 -33.341  1.00  0.00     0.009 A 
HETATM   20  C   UNL     1      -5.899   5.897 -32.766  1.00  0.00     0.001 A 
HETATM   21  C   UNL     1      -6.387   4.771 -32.114  1.00  0.00     0.002 A 
HETATM   22  C   UNL     1      -5.594   3.632 -32.027  1.00  0.00     0.024 A 
HETATM   23  C   UNL     1      -4.319   3.618 -32.606  1.00  0.00     0.040 A 
HETATM   24 CL   UNL     1      -3.379   2.178 -32.400  1.00  0.00    -0.084 Cl
ENDBRANCH  16  18
ENDBRANCH  12  15
ENDBRANCH   1  11
BRANCH   8  25
HETATM   25  C   UNL     1      -3.862   7.608 -26.278  1.00  0.00     0.270 C 
HETATM   26  N   UNL     1      -4.260   6.300 -26.326  1.00  0.00    -0.365 N 
HETATM   27  H   UNL     1      -3.562   5.586 -26.508  1.00  0.00     0.159 HD
HETATM   28  H   UNL     1      -5.235   6.070 -26.220  1.00  0.00     0.159 HD
HETATM   29  O   UNL     1      -4.671   8.509 -26.087  1.00  0.00    -0.266 OA
ENDBRANCH   8  25
TORSDOF 4
ENDMDL
