MODEL 1
REMARK VINA RESULT:      -9.5      0.000      0.000
REMARK  5 active torsions:
REMARK  status: ('A' for Active; 'I' for Inactive)
REMARK    1  A    between atoms: C_5  and  C_6 
REMARK    2  A    between atoms: C_11  and  C_12 
REMARK       I    between atoms: C_12  and  N_13 
REMARK    3  A    between atoms: N_13  and  C_14 
REMARK    4  A    between atoms: C_16  and  O_17 
REMARK    5  A    between atoms: C_23  and  C_24 
ROOT
HETATM    1  C   UNL     1      -7.406   0.536 -33.726  1.00  0.00     0.118 C 
HETATM    2  N   UNL     1      -6.697   1.709 -34.227  1.00  0.00    -0.366 N 
HETATM    3  C   UNL     1      -6.063   2.569 -33.403  1.00  0.00     0.123 A 
HETATM    4  N   UNL     1      -6.195   2.499 -32.045  1.00  0.00    -0.240 N 
HETATM    5  N   UNL     1      -5.547   3.479 -31.384  1.00  0.00    -0.165 NA
HETATM    6  C   UNL     1      -4.893   4.142 -32.366  1.00  0.00     0.148 A 
HETATM    7  C   UNL     1      -5.210   3.611 -33.646  1.00  0.00     0.089 A 
HETATM    8  C   UNL     1      -6.977   1.495 -31.350  1.00  0.00     0.221 C 
HETATM    9  C   UNL     1      -7.958   0.800 -32.313  1.00  0.00     0.066 C 
HETATM   10  H   UNL     1      -6.464   1.676 -35.219  1.00  0.00     0.161 HD
ENDROOT
BRANCH   6  11
HETATM   11  C   UNL     1      -3.976   5.262 -32.086  1.00  0.00     0.276 C 
HETATM   12  N   UNL     1      -2.951   4.891 -31.238  1.00  0.00    -0.322 N 
HETATM   13  H   UNL     1      -3.019   3.927 -30.918  1.00  0.00     0.169 HD
HETATM   14  O   UNL     1      -4.156   6.371 -32.577  1.00  0.00    -0.266 OA
BRANCH  12  15
HETATM   15  C   UNL     1      -1.865   5.666 -30.794  1.00  0.00     0.037 A 
HETATM   16  C   UNL     1      -1.990   6.736 -29.906  1.00  0.00     0.066 A 
HETATM   17  C   UNL     1      -0.859   7.461 -29.530  1.00  0.00     0.067 A 
HETATM   18  C   UNL     1       0.399   7.131 -30.019  1.00  0.00     0.036 A 
HETATM   19  C   UNL     1       0.532   6.064 -30.902  1.00  0.00     0.005 A 
HETATM   20  C   UNL     1      -0.597   5.338 -31.292  1.00  0.00     0.029 A 
BRANCH  17  21
HETATM   21  O   UNL     1      -0.950   8.521 -28.676  1.00  0.00    -0.361 OA
HETATM   22  H   UNL     1      -0.362   8.355 -27.920  1.00  0.00     0.217 HD
ENDBRANCH  17  21
ENDBRANCH  12  15
ENDBRANCH   6  11
BRANCH   8  23
HETATM   23  C   UNL     1      -6.066   0.539 -30.611  1.00  0.00     0.409 C 
HETATM   24  F   UNL     1      -4.796   0.539 -31.053  1.00  0.00    -0.169 F 
HETATM   25  F   UNL     1      -6.032   0.806 -29.283  1.00  0.00    -0.169 F 
HETATM   26  F   UNL     1      -6.532  -0.732 -30.725  1.00  0.00    -0.169 F 
ENDBRANCH   8  23
BRANCH   1  27
HETATM   27  C   UNL     1      -6.607  -0.746 -33.882  1.00  0.00    -0.035 A 
HETATM   28  C   UNL     1      -5.209  -0.796 -33.773  1.00  0.00     0.010 A 
HETATM   29  C   UNL     1      -4.513  -1.996 -33.953  1.00  0.00     0.007 A 
HETATM   30  C   UNL     1      -5.197  -3.174 -34.259  1.00  0.00    -0.062 A 
HETATM   31  C   UNL     1      -4.457  -4.463 -34.462  1.00  0.00     0.048 C 
HETATM   32  C   UNL     1      -6.588  -3.137 -34.374  1.00  0.00     0.007 A 
HETATM   33  C   UNL     1      -7.285  -1.938 -34.187  1.00  0.00     0.010 A 
ENDBRANCH   1  27
TORSDOF 5
ENDMDL
MODEL 2
REMARK VINA RESULT:      -9.2      1.296      1.959
REMARK  5 active torsions:
REMARK  status: ('A' for Active; 'I' for Inactive)
REMARK    1  A    between atoms: C_5  and  C_6 
REMARK    2  A    between atoms: C_11  and  C_12 
REMARK       I    between atoms: C_12  and  N_13 
REMARK    3  A    between atoms: N_13  and  C_14 
REMARK    4  A    between atoms: C_16  and  O_17 
REMARK    5  A    between atoms: C_23  and  C_24 
ROOT
HETATM    1  C   UNL     1      -7.015   1.309 -33.436  1.00  0.00     0.118 C 
HETATM    2  N   UNL     1      -6.020   2.314 -33.792  1.00  0.00    -0.366 N 
HETATM    3  C   UNL     1      -5.192   2.860 -32.877  1.00  0.00     0.123 A 
HETATM    4  N   UNL     1      -5.353   2.643 -31.537  1.00  0.00    -0.240 N 
HETATM    5  N   UNL     1      -4.479   3.321 -30.767  1.00  0.00    -0.165 NA
HETATM    6  C   UNL     1      -3.664   3.918 -31.668  1.00  0.00     0.148 A 
HETATM    7  C   UNL     1      -4.094   3.666 -32.999  1.00  0.00     0.089 A 
HETATM    8  C   UNL     1      -6.378   1.792 -30.964  1.00  0.00     0.221 C 
HETATM    9  C   UNL     1      -7.496   1.514 -31.987  1.00  0.00     0.066 C 
HETATM   10  H   UNL     1      -5.792   2.356 -34.785  1.00  0.00     0.161 HD
ENDROOT
BRANCH   6  11
HETATM   11  C   UNL     1      -2.489   4.712 -31.263  1.00  0.00     0.276 C 
HETATM   12  N   UNL     1      -2.829   5.726 -30.389  1.00  0.00    -0.322 N 
HETATM   13  H   UNL     1      -3.827   5.784 -30.203  1.00  0.00     0.169 HD
HETATM   14  O   UNL     1      -1.368   4.454 -31.686  1.00  0.00    -0.266 OA
BRANCH  12  15
HETATM   15  C   UNL     1      -1.978   6.647 -29.750  1.00  0.00     0.037 A 
HETATM   16  C   UNL     1      -0.821   6.280 -29.059  1.00  0.00     0.066 A 
HETATM   17  C   UNL     1      -0.044   7.259 -28.440  1.00  0.00     0.067 A 
HETATM   18  C   UNL     1      -0.397   8.602 -28.505  1.00  0.00     0.036 A 
HETATM   19  C   UNL     1      -1.547   8.974 -29.195  1.00  0.00     0.005 A 
HETATM   20  C   UNL     1      -2.337   7.999 -29.810  1.00  0.00     0.029 A 
BRANCH  17  21
HETATM   21  O   UNL     1       1.083   6.932 -27.745  1.00  0.00    -0.361 OA
HETATM   22  H   UNL     1       1.749   6.613 -28.377  1.00  0.00     0.217 HD
ENDBRANCH  17  21
ENDBRANCH  12  15
ENDBRANCH   6  11
BRANCH   8  23
HETATM   23  C   UNL     1      -5.757   0.542 -30.382  1.00  0.00     0.409 C 
HETATM   24  F   UNL     1      -6.443  -0.585 -30.645  1.00  0.00    -0.169 F 
HETATM   25  F   UNL     1      -4.491   0.356 -30.829  1.00  0.00    -0.169 F 
HETATM   26  F   UNL     1      -5.664   0.651 -29.031  1.00  0.00    -0.169 F 
ENDBRANCH   8  23
BRANCH   1  27
HETATM   27  C   UNL     1      -6.578  -0.103 -33.781  1.00  0.00    -0.035 A 
HETATM   28  C   UNL     1      -7.482  -1.137 -34.069  1.00  0.00     0.010 A 
HETATM   29  C   UNL     1      -7.033  -2.430 -34.354  1.00  0.00     0.007 A 
HETATM   30  C   UNL     1      -5.668  -2.726 -34.347  1.00  0.00    -0.062 A 
HETATM   31  C   UNL     1      -5.179  -4.113 -34.643  1.00  0.00     0.048 C 
HETATM   32  C   UNL     1      -4.758  -1.707 -34.058  1.00  0.00     0.007 A 
HETATM   33  C   UNL     1      -5.207  -0.412 -33.780  1.00  0.00     0.010 A 
ENDBRANCH   1  27
TORSDOF 5
ENDMDL
MODEL 3
REMARK VINA RESULT:      -9.2      3.509      9.216
REMARK  5 active torsions:
REMARK  status: ('A' for Active; 'I' for Inactive)
REMARK    1  A    between atoms: C_5  and  C_6 
REMARK    2  A    between atoms: C_11  and  C_12 
REMARK       I    between atoms: C_12  and  N_13 
REMARK    3  A    between atoms: N_13  and  C_14 
REMARK    4  A    between atoms: C_16  and  O_17 
REMARK    5  A    between atoms: C_23  and  C_24 
ROOT
HETATM    1  C   UNL     1      -3.417   6.779 -30.745  1.00  0.00     0.118 C 
HETATM    2  N   UNL     1      -3.968   5.487 -30.354  1.00  0.00    -0.366 N 
HETATM    3  C   UNL     1      -3.806   4.380 -31.109  1.00  0.00     0.123 A 
HETATM    4  N   UNL     1      -3.276   4.435 -32.367  1.00  0.00    -0.240 N 
HETATM    5  N   UNL     1      -3.253   3.246 -33.000  1.00  0.00    -0.165 NA
HETATM    6  C   UNL     1      -3.699   2.380 -32.060  1.00  0.00     0.148 A 
HETATM    7  C   UNL     1      -4.073   3.060 -30.869  1.00  0.00     0.089 A 
HETATM    8  C   UNL     1      -2.801   5.649 -33.002  1.00  0.00     0.221 C 
HETATM    9  C   UNL     1      -3.346   6.896 -32.279  1.00  0.00     0.066 C 
HETATM   10  H   UNL     1      -4.215   5.408 -29.368  1.00  0.00     0.161 HD
ENDROOT
BRANCH   6  11
HETATM   11  C   UNL     1      -3.761   0.925 -32.294  1.00  0.00     0.276 C 
HETATM   12  N   UNL     1      -4.787   0.585 -33.152  1.00  0.00    -0.322 N 
HETATM   13  H   UNL     1      -5.351   1.379 -33.447  1.00  0.00     0.169 HD
HETATM   14  O   UNL     1      -2.967   0.159 -31.760  1.00  0.00    -0.266 OA
BRANCH  12  15
HETATM   15  C   UNL     1      -5.121  -0.688 -33.649  1.00  0.00     0.037 A 
HETATM   16  C   UNL     1      -4.230  -1.763 -33.684  1.00  0.00     0.066 A 
HETATM   17  C   UNL     1      -4.642  -2.988 -34.209  1.00  0.00     0.067 A 
HETATM   18  C   UNL     1      -5.932  -3.163 -34.695  1.00  0.00     0.036 A 
HETATM   19  C   UNL     1      -6.825  -2.096 -34.662  1.00  0.00     0.005 A 
HETATM   20  C   UNL     1      -6.419  -0.862 -34.146  1.00  0.00     0.029 A 
BRANCH  17  21
HETATM   21  O   UNL     1      -3.791  -4.053 -34.271  1.00  0.00    -0.361 OA
HETATM   22  H   UNL     1      -3.948  -4.614 -33.492  1.00  0.00     0.217 HD
ENDBRANCH  17  21
ENDBRANCH  12  15
ENDBRANCH   6  11
BRANCH   8  23
HETATM   23  C   UNL     1      -1.294   5.624 -33.123  1.00  0.00     0.409 C 
HETATM   24  F   UNL     1      -0.686   4.817 -32.235  1.00  0.00    -0.169 F 
HETATM   25  F   UNL     1      -0.897   5.235 -34.359  1.00  0.00    -0.169 F 
HETATM   26  F   UNL     1      -0.790   6.872 -32.945  1.00  0.00    -0.169 F 
ENDBRANCH   8  23
BRANCH   1  27
HETATM   27  C   UNL     1      -2.133   7.120 -30.009  1.00  0.00    -0.035 A 
HETATM   28  C   UNL     1      -1.146   6.168 -29.708  1.00  0.00     0.010 A 
HETATM   29  C   UNL     1       0.007   6.523 -29.002  1.00  0.00     0.007 A 
HETATM   30  C   UNL     1       0.199   7.836 -28.567  1.00  0.00    -0.062 A 
HETATM   31  C   UNL     1       1.429   8.223 -27.802  1.00  0.00     0.048 C 
HETATM   32  C   UNL     1      -0.777   8.792 -28.857  1.00  0.00     0.007 A 
HETATM   33  C   UNL     1      -1.928   8.439 -29.570  1.00  0.00     0.010 A 
ENDBRANCH   1  27
TORSDOF 5
ENDMDL
MODEL 4
REMARK VINA RESULT:      -9.1      3.299      8.595
REMARK  5 active torsions:
REMARK  status: ('A' for Active; 'I' for Inactive)
REMARK    1  A    between atoms: C_5  and  C_6 
REMARK    2  A    between atoms: C_11  and  C_12 
REMARK       I    between atoms: C_12  and  N_13 
REMARK    3  A    between atoms: N_13  and  C_14 
REMARK    4  A    between atoms: C_16  and  O_17 
REMARK    5  A    between atoms: C_23  and  C_24 
ROOT
HETATM    1  C   UNL     1      -5.006   6.142 -31.308  1.00  0.00     0.118 C 
HETATM    2  N   UNL     1      -5.371   4.883 -30.670  1.00  0.00    -0.366 N 
HETATM    3  C   UNL     1      -5.605   3.760 -31.380  1.00  0.00     0.123 A 
HETATM    4  N   UNL     1      -5.692   3.773 -32.744  1.00  0.00    -0.240 N 
HETATM    5  N   UNL     1      -5.998   2.575 -33.281  1.00  0.00    -0.165 NA
HETATM    6  C   UNL     1      -6.008   1.745 -32.212  1.00  0.00     0.148 A 
HETATM    7  C   UNL     1      -5.785   2.457 -31.003  1.00  0.00     0.089 A 
HETATM    8  C   UNL     1      -5.507   4.954 -33.564  1.00  0.00     0.221 C 
HETATM    9  C   UNL     1      -5.624   6.236 -32.715  1.00  0.00     0.066 C 
HETATM   10  H   UNL     1      -5.153   4.829 -29.675  1.00  0.00     0.161 HD
ENDROOT
BRANCH   6  11
HETATM   11  C   UNL     1      -6.223   0.292 -32.345  1.00  0.00     0.276 C 
HETATM   12  N   UNL     1      -5.631  -0.215 -33.485  1.00  0.00    -0.322 N 
HETATM   13  H   UNL     1      -5.184   0.495 -34.060  1.00  0.00     0.169 HD
HETATM   14  O   UNL     1      -6.861  -0.337 -31.509  1.00  0.00    -0.266 OA
BRANCH  12  15
HETATM   15  C   UNL     1      -5.575  -1.553 -33.916  1.00  0.00     0.037 A 
HETATM   16  C   UNL     1      -4.447  -2.364 -33.779  1.00  0.00     0.066 A 
HETATM   17  C   UNL     1      -4.474  -3.676 -34.250  1.00  0.00     0.067 A 
HETATM   18  C   UNL     1      -5.613  -4.198 -34.851  1.00  0.00     0.036 A 
HETATM   19  C   UNL     1      -6.742  -3.397 -34.989  1.00  0.00     0.005 A 
HETATM   20  C   UNL     1      -6.721  -2.077 -34.528  1.00  0.00     0.029 A 
BRANCH  17  21
HETATM   21  O   UNL     1      -3.383  -4.489 -34.144  1.00  0.00    -0.361 OA
HETATM   22  H   UNL     1      -2.725  -4.044 -33.585  1.00  0.00     0.217 HD
ENDBRANCH  17  21
ENDBRANCH  12  15
ENDBRANCH   6  11
BRANCH   8  23
HETATM   23  C   UNL     1      -4.215   4.855 -34.344  1.00  0.00     0.409 C 
HETATM   24  F   UNL     1      -3.325   3.990 -33.825  1.00  0.00    -0.169 F 
HETATM   25  F   UNL     1      -4.433   4.486 -35.629  1.00  0.00    -0.169 F 
HETATM   26  F   UNL     1      -3.609   6.069 -34.401  1.00  0.00    -0.169 F 
ENDBRANCH   8  23
BRANCH   1  27
HETATM   27  C   UNL     1      -3.517   6.431 -31.234  1.00  0.00    -0.035 A 
HETATM   28  C   UNL     1      -2.972   7.707 -31.439  1.00  0.00     0.010 A 
HETATM   29  C   UNL     1      -1.591   7.920 -31.388  1.00  0.00     0.007 A 
HETATM   30  C   UNL     1      -0.717   6.859 -31.144  1.00  0.00    -0.062 A 
HETATM   31  C   UNL     1       0.766   7.076 -31.097  1.00  0.00     0.048 C 
HETATM   32  C   UNL     1      -1.246   5.582 -30.942  1.00  0.00     0.007 A 
HETATM   33  C   UNL     1      -2.628   5.370 -30.985  1.00  0.00     0.010 A 
ENDBRANCH   1  27
TORSDOF 5
ENDMDL
MODEL 5
REMARK VINA RESULT:      -8.9      3.578      9.435
REMARK  5 active torsions:
REMARK  status: ('A' for Active; 'I' for Inactive)
REMARK    1  A    between atoms: C_5  and  C_6 
REMARK    2  A    between atoms: C_11  and  C_12 
REMARK       I    between atoms: C_12  and  N_13 
REMARK    3  A    between atoms: N_13  and  C_14 
REMARK    4  A    between atoms: C_16  and  O_17 
REMARK    5  A    between atoms: C_23  and  C_24 
ROOT
HETATM    1  C   UNL     1      -2.707   7.902 -30.789  1.00  0.00     0.118 C 
HETATM    2  N   UNL     1      -3.714   6.850 -30.872  1.00  0.00    -0.366 N 
HETATM    3  C   UNL     1      -3.399   5.580 -31.199  1.00  0.00     0.123 A 
HETATM    4  N   UNL     1      -2.155   5.237 -31.649  1.00  0.00    -0.240 N 
HETATM    5  N   UNL     1      -2.039   3.939 -31.994  1.00  0.00    -0.165 NA
HETATM    6  C   UNL     1      -3.240   3.415 -31.653  1.00  0.00     0.148 A 
HETATM    7  C   UNL     1      -4.123   4.419 -31.171  1.00  0.00     0.089 A 
HETATM    8  C   UNL     1      -1.049   6.166 -31.782  1.00  0.00     0.221 C 
HETATM    9  C   UNL     1      -1.551   7.623 -31.767  1.00  0.00     0.066 C 
HETATM   10  H   UNL     1      -4.590   7.058 -30.392  1.00  0.00     0.161 HD
ENDROOT
BRANCH   6  11
HETATM   11  C   UNL     1      -3.537   1.977 -31.782  1.00  0.00     0.276 C 
HETATM   12  N   UNL     1      -4.573   1.740 -32.663  1.00  0.00    -0.322 N 
HETATM   13  H   UNL     1      -4.985   2.590 -33.043  1.00  0.00     0.169 HD
HETATM   14  O   UNL     1      -2.903   1.136 -31.154  1.00  0.00    -0.266 OA
BRANCH  12  15
HETATM   15  C   UNL     1      -5.097   0.504 -33.081  1.00  0.00     0.037 A 
HETATM   16  C   UNL     1      -4.307  -0.598 -33.414  1.00  0.00     0.066 A 
HETATM   17  C   UNL     1      -4.911  -1.783 -33.835  1.00  0.00     0.067 A 
HETATM   18  C   UNL     1      -6.294  -1.891 -33.921  1.00  0.00     0.036 A 
HETATM   19  C   UNL     1      -7.088  -0.798 -33.587  1.00  0.00     0.005 A 
HETATM   20  C   UNL     1      -6.491   0.397 -33.174  1.00  0.00     0.029 A 
BRANCH  17  21
HETATM   21  O   UNL     1      -4.167  -2.873 -34.182  1.00  0.00    -0.361 OA
HETATM   22  H   UNL     1      -3.889  -2.769 -35.107  1.00  0.00     0.217 HD
ENDBRANCH  17  21
ENDBRANCH  12  15
ENDBRANCH   6  11
BRANCH   8  23
HETATM   23  C   UNL     1       0.010   5.874 -30.742  1.00  0.00     0.409 C 
HETATM   24  F   UNL     1      -0.474   5.371 -29.592  1.00  0.00    -0.169 F 
HETATM   25  F   UNL     1       0.938   5.002 -31.204  1.00  0.00    -0.169 F 
HETATM   26  F   UNL     1       0.686   7.010 -30.433  1.00  0.00    -0.169 F 
ENDBRANCH   8  23
BRANCH   1  27
HETATM   27  C   UNL     1      -2.290   8.208 -29.362  1.00  0.00    -0.035 A 
HETATM   28  C   UNL     1      -1.431   9.265 -29.023  1.00  0.00     0.010 A 
HETATM   29  C   UNL     1      -1.052   9.492 -27.697  1.00  0.00     0.007 A 
HETATM   30  C   UNL     1      -1.511   8.659 -26.675  1.00  0.00    -0.062 A 
HETATM   31  C   UNL     1      -1.101   8.889 -25.250  1.00  0.00     0.048 C 
HETATM   32  C   UNL     1      -2.363   7.600 -26.998  1.00  0.00     0.007 A 
HETATM   33  C   UNL     1      -2.748   7.378 -28.324  1.00  0.00     0.010 A 
ENDBRANCH   1  27
TORSDOF 5
ENDMDL
MODEL 6
REMARK VINA RESULT:      -8.7      4.675      9.109
REMARK  5 active torsions:
REMARK  status: ('A' for Active; 'I' for Inactive)
REMARK    1  A    between atoms: C_5  and  C_6 
REMARK    2  A    between atoms: C_11  and  C_12 
REMARK       I    between atoms: C_12  and  N_13 
REMARK    3  A    between atoms: N_13  and  C_14 
REMARK    4  A    between atoms: C_16  and  O_17 
REMARK    5  A    between atoms: C_23  and  C_24 
ROOT
HETATM    1  C   UNL     1      -5.019   1.490 -32.560  1.00  0.00     0.118 C 
HETATM    2  N   UNL     1      -6.010   1.464 -33.630  1.00  0.00    -0.366 N 
HETATM    3  C   UNL     1      -7.321   1.686 -33.399  1.00  0.00     0.123 A 
HETATM    4  N   UNL     1      -7.827   1.769 -32.133  1.00  0.00    -0.240 N 
HETATM    5  N   UNL     1      -9.165   1.925 -32.091  1.00  0.00    -0.165 NA
HETATM    6  C   UNL     1      -9.509   2.046 -33.395  1.00  0.00     0.148 A 
HETATM    7  C   UNL     1      -8.380   1.881 -34.243  1.00  0.00     0.089 A 
HETATM    8  C   UNL     1      -7.030   1.672 -30.926  1.00  0.00     0.221 C 
HETATM    9  C   UNL     1      -5.652   1.052 -31.226  1.00  0.00     0.066 C 
HETATM   10  H   UNL     1      -5.626   1.563 -34.570  1.00  0.00     0.161 HD
ENDROOT
BRANCH   6  11
HETATM   11  C   UNL     1     -10.893   2.319 -33.824  1.00  0.00     0.276 C 
HETATM   12  N   UNL     1     -11.809   1.561 -33.122  1.00  0.00    -0.322 N 
HETATM   13  H   UNL     1     -11.382   0.916 -32.461  1.00  0.00     0.169 HD
HETATM   14  O   UNL     1     -11.138   3.134 -34.705  1.00  0.00    -0.266 OA
BRANCH  12  15
HETATM   15  C   UNL     1     -13.213   1.586 -33.213  1.00  0.00     0.037 A 
HETATM   16  C   UNL     1     -13.943   0.817 -34.122  1.00  0.00     0.066 A 
HETATM   17  C   UNL     1     -15.334   0.917 -34.154  1.00  0.00     0.067 A 
HETATM   18  C   UNL     1     -16.012   1.767 -33.289  1.00  0.00     0.036 A 
HETATM   19  C   UNL     1     -15.290   2.535 -32.379  1.00  0.00     0.005 A 
HETATM   20  C   UNL     1     -13.896   2.448 -32.346  1.00  0.00     0.029 A 
BRANCH  17  21
HETATM   21  O   UNL     1     -16.075   0.191 -35.039  1.00  0.00    -0.361 OA
HETATM   22  H   UNL     1     -16.373   0.786 -35.748  1.00  0.00     0.217 HD
ENDBRANCH  17  21
ENDBRANCH  12  15
ENDBRANCH   6  11
BRANCH   8  23
HETATM   23  C   UNL     1      -6.958   3.016 -30.235  1.00  0.00     0.409 C 
HETATM   24  F   UNL     1      -7.941   3.227 -29.341  1.00  0.00    -0.169 F 
HETATM   25  F   UNL     1      -5.781   3.183 -29.586  1.00  0.00    -0.169 F 
HETATM   26  F   UNL     1      -7.026   4.016 -31.151  1.00  0.00    -0.169 F 
ENDBRANCH   8  23
BRANCH   1  27
HETATM   27  C   UNL     1      -4.237   2.790 -32.512  1.00  0.00    -0.035 A 
HETATM   28  C   UNL     1      -3.163   3.007 -31.635  1.00  0.00     0.010 A 
HETATM   29  C   UNL     1      -2.490   4.233 -31.606  1.00  0.00     0.007 A 
HETATM   30  C   UNL     1      -2.881   5.278 -32.445  1.00  0.00    -0.062 A 
HETATM   31  C   UNL     1      -2.171   6.598 -32.415  1.00  0.00     0.048 C 
HETATM   32  C   UNL     1      -3.951   5.076 -33.321  1.00  0.00     0.007 A 
HETATM   33  C   UNL     1      -4.620   3.848 -33.354  1.00  0.00     0.010 A 
ENDBRANCH   1  27
TORSDOF 5
ENDMDL
MODEL 7
REMARK VINA RESULT:      -8.6      3.707      8.762
REMARK  5 active torsions:
REMARK  status: ('A' for Active; 'I' for Inactive)
REMARK    1  A    between atoms: C_5  and  C_6 
REMARK    2  A    between atoms: C_11  and  C_12 
REMARK       I    between atoms: C_12  and  N_13 
REMARK    3  A    between atoms: N_13  and  C_14 
REMARK    4  A    between atoms: C_16  and  O_17 
REMARK    5  A    between atoms: C_23  and  C_24 
ROOT
HETATM    1  C   UNL     1      -6.034   5.891 -33.090  1.00  0.00     0.118 C 
HETATM    2  N   UNL     1      -6.796   4.666 -33.302  1.00  0.00    -0.366 N 
HETATM    3  C   UNL     1      -6.253   3.443 -33.124  1.00  0.00     0.123 A 
HETATM    4  N   UNL     1      -4.914   3.272 -32.913  1.00  0.00    -0.240 N 
HETATM    5  N   UNL     1      -4.537   1.981 -32.825  1.00  0.00    -0.165 NA
HETATM    6  C   UNL     1      -5.710   1.307 -32.885  1.00  0.00     0.148 A 
HETATM    7  C   UNL     1      -6.803   2.191 -33.093  1.00  0.00     0.089 A 
HETATM    8  C   UNL     1      -3.956   4.356 -32.815  1.00  0.00     0.221 C 
HETATM    9  C   UNL     1      -4.542   5.660 -33.393  1.00  0.00     0.066 C 
HETATM   10  H   UNL     1      -7.809   4.786 -33.300  1.00  0.00     0.161 HD
ENDROOT
BRANCH   6  11
HETATM   11  C   UNL     1      -5.784  -0.159 -32.743  1.00  0.00     0.276 C 
HETATM   12  N   UNL     1      -5.570  -0.806 -33.944  1.00  0.00    -0.322 N 
HETATM   13  H   UNL     1      -5.438  -0.172 -34.728  1.00  0.00     0.169 HD
HETATM   14  O   UNL     1      -6.013  -0.683 -31.659  1.00  0.00    -0.266 OA
BRANCH  12  15
HETATM   15  C   UNL     1      -5.510  -2.190 -34.189  1.00  0.00     0.037 A 
HETATM   16  C   UNL     1      -4.361  -2.960 -34.000  1.00  0.00     0.066 A 
HETATM   17  C   UNL     1      -4.387  -4.325 -34.284  1.00  0.00     0.067 A 
HETATM   18  C   UNL     1      -5.544  -4.939 -34.747  1.00  0.00     0.036 A 
HETATM   19  C   UNL     1      -6.694  -4.178 -34.936  1.00  0.00     0.005 A 
HETATM   20  C   UNL     1      -6.675  -2.808 -34.663  1.00  0.00     0.029 A 
BRANCH  17  21
HETATM   21  O   UNL     1      -3.277  -5.103 -34.124  1.00  0.00    -0.361 OA
HETATM   22  H   UNL     1      -3.542  -5.926 -33.680  1.00  0.00     0.217 HD
ENDBRANCH  17  21
ENDBRANCH  12  15
ENDBRANCH   6  11
BRANCH   8  23
HETATM   23  C   UNL     1      -3.454   4.489 -31.395  1.00  0.00     0.409 C 
HETATM   24  F   UNL     1      -4.389   4.248 -30.458  1.00  0.00    -0.169 F 
HETATM   25  F   UNL     1      -2.414   3.655 -31.151  1.00  0.00    -0.169 F 
HETATM   26  F   UNL     1      -2.983   5.745 -31.181  1.00  0.00    -0.169 F 
ENDBRANCH   8  23
BRANCH   1  27
HETATM   27  C   UNL     1      -6.331   6.546 -31.754  1.00  0.00    -0.035 A 
HETATM   28  C   UNL     1      -7.325   6.084 -30.877  1.00  0.00     0.010 A 
HETATM   29  C   UNL     1      -7.584   6.738 -29.668  1.00  0.00     0.007 A 
HETATM   30  C   UNL     1      -6.863   7.879 -29.310  1.00  0.00    -0.062 A 
HETATM   31  C   UNL     1      -7.139   8.591 -28.019  1.00  0.00     0.048 C 
HETATM   32  C   UNL     1      -5.873   8.351 -30.175  1.00  0.00     0.007 A 
HETATM   33  C   UNL     1      -5.610   7.693 -31.381  1.00  0.00     0.010 A 
ENDBRANCH   1  27
TORSDOF 5
ENDMDL
MODEL 8
REMARK VINA RESULT:      -8.6      6.120      9.383
REMARK  5 active torsions:
REMARK  status: ('A' for Active; 'I' for Inactive)
REMARK    1  A    between atoms: C_5  and  C_6 
REMARK    2  A    between atoms: C_11  and  C_12 
REMARK       I    between atoms: C_12  and  N_13 
REMARK    3  A    between atoms: N_13  and  C_14 
REMARK    4  A    between atoms: C_16  and  O_17 
REMARK    5  A    between atoms: C_23  and  C_24 
ROOT
HETATM    1  C   UNL     1     -13.129   2.993 -33.967  1.00  0.00     0.118 C 
HETATM    2  N   UNL     1     -12.586   1.722 -33.503  1.00  0.00    -0.366 N 
HETATM    3  C   UNL     1     -11.271   1.431 -33.584  1.00  0.00     0.123 A 
HETATM    4  N   UNL     1     -10.396   2.228 -34.267  1.00  0.00    -0.240 N 
HETATM    5  N   UNL     1      -9.136   1.749 -34.301  1.00  0.00    -0.165 NA
HETATM    6  C   UNL     1      -9.198   0.646 -33.518  1.00  0.00     0.148 A 
HETATM    7  C   UNL     1     -10.525   0.406 -33.069  1.00  0.00     0.089 A 
HETATM    8  C   UNL     1     -10.762   3.465 -34.928  1.00  0.00     0.221 C 
HETATM    9  C   UNL     1     -12.287   3.548 -35.131  1.00  0.00     0.066 C 
HETATM   10  H   UNL     1     -13.191   1.207 -32.862  1.00  0.00     0.161 HD
ENDROOT
BRANCH   6  11
HETATM   11  C   UNL     1      -8.007  -0.163 -33.202  1.00  0.00     0.276 C 
HETATM   12  N   UNL     1      -7.692  -1.040 -34.221  1.00  0.00    -0.322 N 
HETATM   13  H   UNL     1      -8.350  -1.013 -34.997  1.00  0.00     0.169 HD
HETATM   14  O   UNL     1      -7.408  -0.028 -32.141  1.00  0.00    -0.266 OA
BRANCH  12  15
HETATM   15  C   UNL     1      -6.602  -1.925 -34.304  1.00  0.00     0.037 A 
HETATM   16  C   UNL     1      -6.715  -3.255 -34.716  1.00  0.00     0.066 A 
HETATM   17  C   UNL     1      -5.582  -4.067 -34.753  1.00  0.00     0.067 A 
HETATM   18  C   UNL     1      -4.334  -3.574 -34.393  1.00  0.00     0.036 A 
HETATM   19  C   UNL     1      -4.214  -2.249 -33.984  1.00  0.00     0.005 A 
HETATM   20  C   UNL     1      -5.345  -1.430 -33.934  1.00  0.00     0.029 A 
BRANCH  17  21
HETATM   21  O   UNL     1      -5.661  -5.374 -35.137  1.00  0.00    -0.361 OA
HETATM   22  H   UNL     1      -5.230  -5.464 -36.004  1.00  0.00     0.217 HD
ENDBRANCH  17  21
ENDBRANCH  12  15
ENDBRANCH   6  11
BRANCH   8  23
HETATM   23  C   UNL     1     -10.178   4.649 -34.189  1.00  0.00     0.409 C 
HETATM   24  F   UNL     1     -10.156   4.505 -32.852  1.00  0.00    -0.169 F 
HETATM   25  F   UNL     1      -8.910   4.912 -34.588  1.00  0.00    -0.169 F 
HETATM   26  F   UNL     1     -10.895   5.770 -34.462  1.00  0.00    -0.169 F 
ENDBRANCH   8  23
BRANCH   1  27
HETATM   27  C   UNL     1     -13.395   3.969 -32.835  1.00  0.00    -0.035 A 
HETATM   28  C   UNL     1     -13.249   3.631 -31.480  1.00  0.00     0.010 A 
HETATM   29  C   UNL     1     -13.533   4.554 -30.470  1.00  0.00     0.007 A 
HETATM   30  C   UNL     1     -13.982   5.838 -30.787  1.00  0.00    -0.062 A 
HETATM   31  C   UNL     1     -14.297   6.833 -29.710  1.00  0.00     0.048 C 
HETATM   32  C   UNL     1     -14.134   6.187 -32.131  1.00  0.00     0.007 A 
HETATM   33  C   UNL     1     -13.844   5.265 -33.142  1.00  0.00     0.010 A 
ENDBRANCH   1  27
TORSDOF 5
ENDMDL
MODEL 9
REMARK VINA RESULT:      -8.5     17.131     19.548
REMARK  5 active torsions:
REMARK  status: ('A' for Active; 'I' for Inactive)
REMARK    1  A    between atoms: C_5  and  C_6 
REMARK    2  A    between atoms: C_11  and  C_12 
REMARK       I    between atoms: C_12  and  N_13 
REMARK    3  A    between atoms: N_13  and  C_14 
REMARK    4  A    between atoms: C_16  and  O_17 
REMARK    5  A    between atoms: C_23  and  C_24 
ROOT
HETATM    1  C   UNL     1      -0.601 -13.226 -39.159  1.00  0.00     0.118 C 
HETATM    2  N   UNL     1      -1.728 -12.516 -38.564  1.00  0.00    -0.366 N 
HETATM    3  C   UNL     1      -3.007 -12.814 -38.872  1.00  0.00     0.123 A 
HETATM    4  N   UNL     1      -3.325 -13.670 -39.889  1.00  0.00    -0.240 N 
HETATM    5  N   UNL     1      -4.650 -13.798 -40.099  1.00  0.00    -0.165 NA
HETATM    6  C   UNL     1      -5.199 -13.063 -39.103  1.00  0.00     0.148 A 
HETATM    7  C   UNL     1      -4.198 -12.417 -38.328  1.00  0.00     0.089 A 
HETATM    8  C   UNL     1      -2.350 -14.370 -40.703  1.00  0.00     0.221 C 
HETATM    9  C   UNL     1      -0.959 -13.720 -40.573  1.00  0.00     0.066 C 
HETATM   10  H   UNL     1      -1.508 -12.004 -37.709  1.00  0.00     0.161 HD
ENDROOT
BRANCH   6  11
HETATM   11  C   UNL     1      -6.656 -12.984 -38.893  1.00  0.00     0.276 C 
HETATM   12  N   UNL     1      -7.357 -13.172 -40.067  1.00  0.00    -0.322 N 
HETATM   13  H   UNL     1      -6.760 -13.293 -40.882  1.00  0.00     0.169 HD
HETATM   14  O   UNL     1      -7.130 -12.772 -37.782  1.00  0.00    -0.266 OA
BRANCH  12  15
HETATM   15  C   UNL     1      -8.751 -13.220 -40.252  1.00  0.00     0.037 A 
HETATM   16  C   UNL     1      -9.454 -14.393 -40.537  1.00  0.00     0.066 A 
HETATM   17  C   UNL     1     -10.836 -14.346 -40.720  1.00  0.00     0.067 A 
HETATM   18  C   UNL     1     -11.532 -13.148 -40.616  1.00  0.00     0.036 A 
HETATM   19  C   UNL     1     -10.839 -11.976 -40.330  1.00  0.00     0.005 A 
HETATM   20  C   UNL     1      -9.453 -12.012 -40.154  1.00  0.00     0.029 A 
BRANCH  17  21
HETATM   21  O   UNL     1     -11.549 -15.471 -41.014  1.00  0.00    -0.361 OA
HETATM   22  H   UNL     1     -10.964 -16.240 -40.907  1.00  0.00     0.217 HD
ENDBRANCH  17  21
ENDBRANCH  12  15
ENDBRANCH   6  11
BRANCH   8  23
HETATM   23  C   UNL     1      -2.365 -15.848 -40.387  1.00  0.00     0.409 C 
HETATM   24  F   UNL     1      -1.172 -16.452 -40.528  1.00  0.00    -0.169 F 
HETATM   25  F   UNL     1      -2.790 -16.086 -39.123  1.00  0.00    -0.169 F 
HETATM   26  F   UNL     1      -3.241 -16.491 -41.202  1.00  0.00    -0.169 F 
ENDBRANCH   8  23
BRANCH   1  27
HETATM   27  C   UNL     1      -0.012 -14.276 -38.235  1.00  0.00    -0.035 A 
HETATM   28  C   UNL     1      -0.663 -14.731 -37.077  1.00  0.00     0.010 A 
HETATM   29  C   UNL     1      -0.069 -15.679 -36.239  1.00  0.00     0.007 A 
HETATM   30  C   UNL     1       1.198 -16.190 -36.530  1.00  0.00    -0.062 A 
HETATM   31  C   UNL     1       1.847 -17.201 -35.633  1.00  0.00     0.048 C 
HETATM   32  C   UNL     1       1.858 -15.743 -37.678  1.00  0.00     0.007 A 
HETATM   33  C   UNL     1       1.261 -14.799 -38.520  1.00  0.00     0.010 A 
ENDBRANCH   1  27
TORSDOF 5
ENDMDL
MODEL 10
REMARK VINA RESULT:      -8.4      5.266      7.692
REMARK  5 active torsions:
REMARK  status: ('A' for Active; 'I' for Inactive)
REMARK    1  A    between atoms: C_5  and  C_6 
REMARK    2  A    between atoms: C_11  and  C_12 
REMARK       I    between atoms: C_12  and  N_13 
REMARK    3  A    between atoms: N_13  and  C_14 
REMARK    4  A    between atoms: C_16  and  O_17 
REMARK    5  A    between atoms: C_23  and  C_24 
ROOT
HETATM    1  C   UNL     1      -7.810   0.523 -31.718  1.00  0.00     0.118 C 
HETATM    2  N   UNL     1      -9.153   0.655 -32.273  1.00  0.00    -0.366 N 
HETATM    3  C   UNL     1      -9.519   1.718 -33.019  1.00  0.00     0.123 A 
HETATM    4  N   UNL     1      -8.719   2.818 -33.151  1.00  0.00    -0.240 N 
HETATM    5  N   UNL     1      -9.273   3.810 -33.876  1.00  0.00    -0.165 NA
HETATM    6  C   UNL     1     -10.439   3.273 -34.305  1.00  0.00     0.148 A 
HETATM    7  C   UNL     1     -10.634   1.970 -33.770  1.00  0.00     0.089 A 
HETATM    8  C   UNL     1      -7.403   2.948 -32.556  1.00  0.00     0.221 C 
HETATM    9  C   UNL     1      -7.202   1.909 -31.436  1.00  0.00     0.066 C 
HETATM   10  H   UNL     1      -9.686  -0.213 -32.313  1.00  0.00     0.161 HD
ENDROOT
BRANCH   6  11
HETATM   11  C   UNL     1     -11.350   3.991 -35.215  1.00  0.00     0.276 C 
HETATM   12  N   UNL     1     -11.397   5.343 -34.938  1.00  0.00    -0.322 N 
HETATM   13  H   UNL     1     -10.833   5.612 -34.135  1.00  0.00     0.169 HD
HETATM   14  O   UNL     1     -11.967   3.402 -36.096  1.00  0.00    -0.266 OA
BRANCH  12  15
HETATM   15  C   UNL     1     -12.104   6.348 -35.621  1.00  0.00     0.037 A 
HETATM   16  C   UNL     1     -11.499   7.473 -36.186  1.00  0.00     0.066 A 
HETATM   17  C   UNL     1     -12.281   8.430 -36.832  1.00  0.00     0.067 A 
HETATM   18  C   UNL     1     -13.659   8.281 -36.933  1.00  0.00     0.036 A 
HETATM   19  C   UNL     1     -14.269   7.161 -36.375  1.00  0.00     0.005 A 
HETATM   20  C   UNL     1     -13.494   6.201 -35.717  1.00  0.00     0.029 A 
BRANCH  17  21
HETATM   21  O   UNL     1     -11.722   9.547 -37.381  1.00  0.00    -0.361 OA
HETATM   22  H   UNL     1     -11.957   9.574 -38.324  1.00  0.00     0.217 HD
ENDBRANCH  17  21
ENDBRANCH  12  15
ENDBRANCH   6  11
BRANCH   8  23
HETATM   23  C   UNL     1      -6.335   2.906 -33.626  1.00  0.00     0.409 C 
HETATM   24  F   UNL     1      -6.107   4.091 -34.221  1.00  0.00    -0.169 F 
HETATM   25  F   UNL     1      -5.151   2.467 -33.136  1.00  0.00    -0.169 F 
HETATM   26  F   UNL     1      -6.685   2.027 -34.601  1.00  0.00    -0.169 F 
ENDBRANCH   8  23
BRANCH   1  27
HETATM   27  C   UNL     1      -6.931  -0.420 -32.520  1.00  0.00    -0.035 A 
HETATM   28  C   UNL     1      -5.585  -0.664 -32.209  1.00  0.00     0.010 A 
HETATM   29  C   UNL     1      -4.805  -1.519 -32.994  1.00  0.00     0.007 A 
HETATM   30  C   UNL     1      -5.349  -2.144 -34.118  1.00  0.00    -0.062 A 
HETATM   31  C   UNL     1      -4.518  -3.056 -34.971  1.00  0.00     0.048 C 
HETATM   32  C   UNL     1      -6.688  -1.907 -34.441  1.00  0.00     0.007 A 
HETATM   33  C   UNL     1      -7.469  -1.057 -33.652  1.00  0.00     0.010 A 
ENDBRANCH   1  27
TORSDOF 5
ENDMDL
