MODEL 1
REMARK VINA RESULT:     -10.9      0.000      0.000
REMARK  6 active torsions:
REMARK  status: ('A' for Active; 'I' for Inactive)
REMARK    1  A    between atoms: C_8  and  C_9 
REMARK    2  A    between atoms: N_10  and  N_11 
REMARK    3  A    between atoms: C_22  and  C_23 
REMARK       I    between atoms: C_23  and  N_24 
REMARK    4  A    between atoms: N_24  and  C_25 
REMARK    5  A    between atoms: C_25  and  C_26 
REMARK    6  A    between atoms: C_34  and  N_35 
ROOT
HETATM    1  N   UNL     1      -5.289   3.293 -30.318  1.00  0.00    -0.197 N 
HETATM    2  C   UNL     1      -4.373   3.987 -31.086  1.00  0.00     0.183 A 
HETATM    3  C   UNL     1      -3.475   3.060 -31.601  1.00  0.00     0.125 A 
HETATM    4  N   UNL     1      -2.427   3.455 -32.370  1.00  0.00    -0.242 NA
HETATM    5  C   UNL     1      -2.350   4.777 -32.586  1.00  0.00     0.086 A 
HETATM    6  C   UNL     1      -3.287   5.700 -32.051  1.00  0.00     0.088 A 
HETATM    7  N   UNL     1      -4.322   5.325 -31.283  1.00  0.00    -0.225 NA
HETATM    8  C   UNL     1      -1.307   5.254 -33.369  1.00  0.00     0.034 A 
HETATM    9  C   UNL     1      -1.162   6.616 -33.642  1.00  0.00     0.002 A 
HETATM   10  C   UNL     1      -2.077   7.518 -33.121  1.00  0.00     0.002 A 
HETATM   11  C   UNL     1      -3.128   7.052 -32.330  1.00  0.00     0.034 A 
HETATM   12  C   UNL     1      -3.885   1.761 -31.196  1.00  0.00     0.110 A 
HETATM   13  C   UNL     1      -5.052   1.929 -30.460  1.00  0.00     0.143 A 
ENDROOT
BRANCH   1  14
HETATM   14  N   UNL     1      -6.327   3.797 -29.594  1.00  0.00    -0.176 NA
HETATM   15  C   UNL     1      -7.497   3.854 -30.160  1.00  0.00     0.153 C 
BRANCH  15  16
HETATM   16  C   UNL     1      -7.883   3.703 -31.558  1.00  0.00     0.011 A 
HETATM   17  C   UNL     1      -8.479   2.524 -32.131  1.00  0.00     0.004 A 
HETATM   18  C   UNL     1      -8.833   1.255 -31.624  1.00  0.00     0.014 A 
HETATM   19  C   UNL     1      -8.740   2.787 -33.477  1.00  0.00     0.043 A 
HETATM   20  C   UNL     1      -9.434   0.313 -32.468  1.00  0.00     0.001 A 
HETATM   21  C   UNL     1      -9.676   0.610 -33.805  1.00  0.00     0.002 A 
HETATM   22  C   UNL     1      -9.327   1.853 -34.339  1.00  0.00     0.030 A 
HETATM   23  N   UNL     1      -8.321   4.071 -33.724  1.00  0.00    -0.364 N 
HETATM   24  H   UNL     1      -8.382   4.533 -34.621  1.00  0.00     0.165 HD
HETATM   25  C   UNL     1      -7.865   4.649 -32.569  1.00  0.00     0.102 A 
ENDBRANCH  15  16
ENDBRANCH   1  14
BRANCH  13  26
HETATM   26  N   UNL     1      -5.865   1.025 -29.837  1.00  0.00    -0.383 N 
HETATM   27  H   UNL     1      -5.582   0.656 -28.931  1.00  0.00     0.157 HD
HETATM   28  H   UNL     1      -6.865   1.250 -29.847  1.00  0.00     0.157 HD
ENDBRANCH  13  26
BRANCH  12  29
HETATM   29  C   UNL     1      -3.212   0.505 -31.473  1.00  0.00     0.258 C 
HETATM   30  N   UNL     1      -3.830  -0.267 -32.431  1.00  0.00    -0.352 N 
HETATM   31  H   UNL     1      -4.684   0.094 -32.844  1.00  0.00     0.163 HD
HETATM   32  O   UNL     1      -2.209   0.140 -30.869  1.00  0.00    -0.267 OA
BRANCH  30  33
HETATM   33  C   UNL     1      -3.461  -1.643 -32.643  1.00  0.00     0.161 C 
BRANCH  33  34
HETATM   34  C   UNL     1      -4.469  -2.381 -33.487  1.00  0.00    -0.040 A 
HETATM   35  C   UNL     1      -4.205  -3.695 -33.906  1.00  0.00     0.012 A 
HETATM   36  C   UNL     1      -5.138  -4.398 -34.668  1.00  0.00     0.043 A 
HETATM   37  C   UNL     1      -6.336  -3.787 -35.018  1.00  0.00     0.116 A 
HETATM   38  F   UNL     1      -7.231  -4.462 -35.750  1.00  0.00    -0.206 F 
HETATM   39  C   UNL     1      -6.619  -2.487 -34.618  1.00  0.00     0.043 A 
HETATM   40  C   UNL     1      -5.689  -1.784 -33.849  1.00  0.00     0.012 A 
ENDBRANCH  33  34
ENDBRANCH  30  33
ENDBRANCH  12  29
TORSDOF 6
ENDMDL
MODEL 2
REMARK VINA RESULT:     -10.8      1.604      5.650
REMARK  6 active torsions:
REMARK  status: ('A' for Active; 'I' for Inactive)
REMARK    1  A    between atoms: C_8  and  C_9 
REMARK    2  A    between atoms: N_10  and  N_11 
REMARK    3  A    between atoms: C_22  and  C_23 
REMARK       I    between atoms: C_23  and  N_24 
REMARK    4  A    between atoms: N_24  and  C_25 
REMARK    5  A    between atoms: C_25  and  C_26 
REMARK    6  A    between atoms: C_34  and  N_35 
ROOT
HETATM    1  N   UNL     1      -6.344   3.809 -31.256  1.00  0.00    -0.197 N 
HETATM    2  C   UNL     1      -7.386   3.033 -31.726  1.00  0.00     0.183 A 
HETATM    3  C   UNL     1      -6.899   1.742 -31.897  1.00  0.00     0.125 A 
HETATM    4  N   UNL     1      -7.692   0.756 -32.391  1.00  0.00    -0.242 NA
HETATM    5  C   UNL     1      -8.948   1.130 -32.679  1.00  0.00     0.086 A 
HETATM    6  C   UNL     1      -9.420   2.456 -32.487  1.00  0.00     0.088 A 
HETATM    7  N   UNL     1      -8.646   3.442 -32.007  1.00  0.00    -0.225 NA
HETATM    8  C   UNL     1      -9.819   0.173 -33.183  1.00  0.00     0.034 A 
HETATM    9  C   UNL     1     -11.142   0.484 -33.502  1.00  0.00     0.002 A 
HETATM   10  C   UNL     1     -11.604   1.778 -33.314  1.00  0.00     0.002 A 
HETATM   11  C   UNL     1     -10.738   2.751 -32.811  1.00  0.00     0.034 A 
HETATM   12  C   UNL     1      -5.547   1.709 -31.461  1.00  0.00     0.110 A 
HETATM   13  C   UNL     1      -5.250   2.987 -31.003  1.00  0.00     0.143 A 
ENDROOT
BRANCH   1  14
HETATM   14  N   UNL     1      -6.352   5.143 -30.980  1.00  0.00    -0.176 NA
HETATM   15  C   UNL     1      -5.859   5.955 -31.869  1.00  0.00     0.153 C 
BRANCH  15  16
HETATM   16  C   UNL     1      -5.044   5.687 -33.048  1.00  0.00     0.011 A 
HETATM   17  C   UNL     1      -3.633   5.956 -33.158  1.00  0.00     0.004 A 
HETATM   18  C   UNL     1      -2.669   6.521 -32.295  1.00  0.00     0.014 A 
HETATM   19  C   UNL     1      -3.212   5.522 -34.416  1.00  0.00     0.043 A 
HETATM   20  C   UNL     1      -1.336   6.621 -32.714  1.00  0.00     0.001 A 
HETATM   21  C   UNL     1      -0.954   6.180 -33.977  1.00  0.00     0.002 A 
HETATM   22  C   UNL     1      -1.887   5.627 -34.857  1.00  0.00     0.030 A 
HETATM   23  N   UNL     1      -4.314   5.011 -35.055  1.00  0.00    -0.364 N 
HETATM   24  H   UNL     1      -4.310   4.625 -35.990  1.00  0.00     0.165 HD
HETATM   25  C   UNL     1      -5.401   5.047 -34.222  1.00  0.00     0.102 A 
ENDBRANCH  15  16
ENDBRANCH   1  14
BRANCH  13  26
HETATM   26  N   UNL     1      -4.105   3.515 -30.477  1.00  0.00    -0.383 N 
HETATM   27  H   UNL     1      -4.178   4.319 -29.856  1.00  0.00     0.157 HD
HETATM   28  H   UNL     1      -3.428   2.834 -30.120  1.00  0.00     0.157 HD
ENDBRANCH  13  26
BRANCH  12  29
HETATM   29  C   UNL     1      -4.642   0.574 -31.502  1.00  0.00     0.258 C 
HETATM   30  N   UNL     1      -4.428   0.071 -32.765  1.00  0.00    -0.352 N 
HETATM   31  H   UNL     1      -4.912   0.517 -33.537  1.00  0.00     0.163 HD
HETATM   32  O   UNL     1      -4.152   0.077 -30.494  1.00  0.00    -0.267 OA
BRANCH  30  33
HETATM   33  C   UNL     1      -3.780  -1.200 -32.970  1.00  0.00     0.161 C 
BRANCH  33  34
HETATM   34  C   UNL     1      -4.672  -2.189 -33.675  1.00  0.00    -0.040 A 
HETATM   35  C   UNL     1      -5.975  -1.817 -34.045  1.00  0.00     0.012 A 
HETATM   36  C   UNL     1      -6.805  -2.714 -34.719  1.00  0.00     0.043 A 
HETATM   37  C   UNL     1      -6.336  -3.987 -35.020  1.00  0.00     0.116 A 
HETATM   38  F   UNL     1      -7.132  -4.847 -35.666  1.00  0.00    -0.206 F 
HETATM   39  C   UNL     1      -5.052  -4.378 -34.661  1.00  0.00     0.043 A 
HETATM   40  C   UNL     1      -4.217  -3.480 -33.994  1.00  0.00     0.012 A 
ENDBRANCH  33  34
ENDBRANCH  30  33
ENDBRANCH  12  29
TORSDOF 6
ENDMDL
MODEL 3
REMARK VINA RESULT:     -10.2      1.905      3.284
REMARK  6 active torsions:
REMARK  status: ('A' for Active; 'I' for Inactive)
REMARK    1  A    between atoms: C_8  and  C_9 
REMARK    2  A    between atoms: N_10  and  N_11 
REMARK    3  A    between atoms: C_22  and  C_23 
REMARK       I    between atoms: C_23  and  N_24 
REMARK    4  A    between atoms: N_24  and  C_25 
REMARK    5  A    between atoms: C_25  and  C_26 
REMARK    6  A    between atoms: C_34  and  N_35 
ROOT
HETATM    1  N   UNL     1      -5.417   3.966 -33.466  1.00  0.00    -0.197 N 
HETATM    2  C   UNL     1      -4.214   4.460 -32.998  1.00  0.00     0.183 A 
HETATM    3  C   UNL     1      -3.554   3.415 -32.362  1.00  0.00     0.125 A 
HETATM    4  N   UNL     1      -2.352   3.611 -31.762  1.00  0.00    -0.242 NA
HETATM    5  C   UNL     1      -1.873   4.861 -31.848  1.00  0.00     0.086 A 
HETATM    6  C   UNL     1      -2.568   5.908 -32.511  1.00  0.00     0.088 A 
HETATM    7  N   UNL     1      -3.760   5.731 -33.101  1.00  0.00    -0.225 NA
HETATM    8  C   UNL     1      -0.644   5.135 -31.262  1.00  0.00     0.034 A 
HETATM    9  C   UNL     1      -0.078   6.411 -31.313  1.00  0.00     0.002 A 
HETATM   10  C   UNL     1      -0.755   7.433 -31.961  1.00  0.00     0.002 A 
HETATM   11  C   UNL     1      -1.992   7.172 -32.552  1.00  0.00     0.034 A 
HETATM   12  C   UNL     1      -4.339   2.237 -32.497  1.00  0.00     0.110 A 
HETATM   13  C   UNL     1      -5.454   2.592 -33.246  1.00  0.00     0.143 A 
ENDROOT
BRANCH   1  14
HETATM   14  N   UNL     1      -6.403   4.642 -34.120  1.00  0.00    -0.176 NA
HETATM   15  C   UNL     1      -7.364   5.159 -33.412  1.00  0.00     0.153 C 
BRANCH  15  16
HETATM   16  C   UNL     1      -7.739   4.942 -32.020  1.00  0.00     0.011 A 
HETATM   17  C   UNL     1      -7.232   5.691 -30.899  1.00  0.00     0.004 A 
HETATM   18  C   UNL     1      -6.300   6.741 -30.758  1.00  0.00     0.014 A 
HETATM   19  C   UNL     1      -7.862   5.216 -29.747  1.00  0.00     0.043 A 
HETATM   20  C   UNL     1      -6.042   7.276 -29.489  1.00  0.00     0.001 A 
HETATM   21  C   UNL     1      -6.687   6.774 -28.363  1.00  0.00     0.002 A 
HETATM   22  C   UNL     1      -7.607   5.728 -28.469  1.00  0.00     0.030 A 
HETATM   23  N   UNL     1      -8.718   4.216 -30.140  1.00  0.00    -0.364 N 
HETATM   24  H   UNL     1      -9.306   3.684 -29.513  1.00  0.00     0.165 HD
HETATM   25  C   UNL     1      -8.699   4.088 -31.504  1.00  0.00     0.102 A 
ENDBRANCH  15  16
ENDBRANCH   1  14
BRANCH  13  26
HETATM   26  N   UNL     1      -6.526   1.860 -33.671  1.00  0.00    -0.383 N 
HETATM   27  H   UNL     1      -6.621   0.899 -33.349  1.00  0.00     0.157 HD
HETATM   28  H   UNL     1      -7.429   2.345 -33.653  1.00  0.00     0.157 HD
ENDBRANCH  13  26
BRANCH  12  29
HETATM   29  C   UNL     1      -4.049   0.926 -31.946  1.00  0.00     0.258 C 
HETATM   30  N   UNL     1      -3.643  -0.000 -32.880  1.00  0.00    -0.352 N 
HETATM   31  H   UNL     1      -3.590   0.301 -33.847  1.00  0.00     0.163 HD
HETATM   32  O   UNL     1      -4.203   0.654 -30.761  1.00  0.00    -0.267 OA
BRANCH  30  33
HETATM   33  C   UNL     1      -3.569  -1.405 -32.566  1.00  0.00     0.161 C 
BRANCH  33  34
HETATM   34  C   UNL     1      -4.488  -2.231 -33.427  1.00  0.00    -0.040 A 
HETATM   35  C   UNL     1      -4.124  -3.540 -33.787  1.00  0.00     0.012 A 
HETATM   36  C   UNL     1      -4.975  -4.324 -34.566  1.00  0.00     0.043 A 
HETATM   37  C   UNL     1      -6.190  -3.802 -34.991  1.00  0.00     0.116 A 
HETATM   38  F   UNL     1      -7.007  -4.556 -35.737  1.00  0.00    -0.206 F 
HETATM   39  C   UNL     1      -6.572  -2.510 -34.649  1.00  0.00     0.043 A 
HETATM   40  C   UNL     1      -5.725  -1.726 -33.864  1.00  0.00     0.012 A 
ENDBRANCH  33  34
ENDBRANCH  30  33
ENDBRANCH  12  29
TORSDOF 6
ENDMDL
MODEL 4
REMARK VINA RESULT:     -10.0      2.767      5.376
REMARK  6 active torsions:
REMARK  status: ('A' for Active; 'I' for Inactive)
REMARK    1  A    between atoms: C_8  and  C_9 
REMARK    2  A    between atoms: N_10  and  N_11 
REMARK    3  A    between atoms: C_22  and  C_23 
REMARK       I    between atoms: C_23  and  N_24 
REMARK    4  A    between atoms: N_24  and  C_25 
REMARK    5  A    between atoms: C_25  and  C_26 
REMARK    6  A    between atoms: C_34  and  N_35 
ROOT
HETATM    1  N   UNL     1      -6.048   2.722 -31.123  1.00  0.00    -0.197 N 
HETATM    2  C   UNL     1      -5.157   3.454 -31.884  1.00  0.00     0.183 A 
HETATM    3  C   UNL     1      -5.876   4.034 -32.923  1.00  0.00     0.125 A 
HETATM    4  N   UNL     1      -5.255   4.788 -33.867  1.00  0.00    -0.242 NA
HETATM    5  C   UNL     1      -3.931   4.923 -33.703  1.00  0.00     0.086 A 
HETATM    6  C   UNL     1      -3.223   4.323 -32.627  1.00  0.00     0.088 A 
HETATM    7  N   UNL     1      -3.822   3.570 -31.691  1.00  0.00    -0.225 NA
HETATM    8  C   UNL     1      -3.229   5.686 -34.627  1.00  0.00     0.034 A 
HETATM    9  C   UNL     1      -1.850   5.876 -34.521  1.00  0.00     0.002 A 
HETATM   10  C   UNL     1      -1.158   5.292 -33.470  1.00  0.00     0.002 A 
HETATM   11  C   UNL     1      -1.851   4.521 -32.536  1.00  0.00     0.034 A 
HETATM   12  C   UNL     1      -7.249   3.705 -32.759  1.00  0.00     0.110 A 
HETATM   13  C   UNL     1      -7.337   2.948 -31.597  1.00  0.00     0.143 A 
ENDROOT
BRANCH   1  14
HETATM   14  N   UNL     1      -5.782   1.958 -30.026  1.00  0.00    -0.176 NA
HETATM   15  C   UNL     1      -5.094   0.867 -30.193  1.00  0.00     0.153 C 
BRANCH  15  16
HETATM   16  C   UNL     1      -4.743   0.143 -31.409  1.00  0.00     0.011 A 
HETATM   17  C   UNL     1      -5.687  -0.377 -32.365  1.00  0.00     0.004 A 
HETATM   18  C   UNL     1      -7.097  -0.396 -32.445  1.00  0.00     0.014 A 
HETATM   19  C   UNL     1      -4.964  -0.961 -33.406  1.00  0.00     0.043 A 
HETATM   20  C   UNL     1      -7.721  -0.982 -33.553  1.00  0.00     0.001 A 
HETATM   21  C   UNL     1      -6.967  -1.557 -34.571  1.00  0.00     0.002 A 
HETATM   22  C   UNL     1      -5.571  -1.563 -34.515  1.00  0.00     0.030 A 
HETATM   23  N   UNL     1      -3.633  -0.810 -33.105  1.00  0.00    -0.364 N 
HETATM   24  H   UNL     1      -2.872  -1.142 -33.682  1.00  0.00     0.165 HD
HETATM   25  C   UNL     1      -3.490  -0.095 -31.945  1.00  0.00     0.102 A 
ENDBRANCH  15  16
ENDBRANCH   1  14
BRANCH  13  26
HETATM   26  N   UNL     1      -8.406   2.374 -30.971  1.00  0.00    -0.383 N 
HETATM   27  H   UNL     1      -8.332   2.154 -29.979  1.00  0.00     0.157 HD
HETATM   28  H   UNL     1      -9.319   2.784 -31.190  1.00  0.00     0.157 HD
ENDBRANCH  13  26
BRANCH  12  29
HETATM   29  C   UNL     1      -8.346   4.065 -33.640  1.00  0.00     0.258 C 
HETATM   30  N   UNL     1      -9.370   3.145 -33.670  1.00  0.00    -0.352 N 
HETATM   31  H   UNL     1      -9.271   2.314 -33.097  1.00  0.00     0.163 HD
HETATM   32  O   UNL     1      -8.337   5.075 -34.335  1.00  0.00    -0.267 OA
BRANCH  30  33
HETATM   33  C   UNL     1     -10.404   3.201 -34.672  1.00  0.00     0.161 C 
BRANCH  33  34
HETATM   34  C   UNL     1     -11.488   2.182 -34.432  1.00  0.00    -0.040 A 
HETATM   35  C   UNL     1     -11.201   1.011 -33.710  1.00  0.00     0.012 A 
HETATM   36  C   UNL     1     -12.200   0.070 -33.461  1.00  0.00     0.043 A 
HETATM   37  C   UNL     1     -13.487   0.294 -33.935  1.00  0.00     0.116 A 
HETATM   38  F   UNL     1     -14.445  -0.609 -33.694  1.00  0.00    -0.206 F 
HETATM   39  C   UNL     1     -13.794   1.444 -34.652  1.00  0.00     0.043 A 
HETATM   40  C   UNL     1     -12.797   2.391 -34.897  1.00  0.00     0.012 A 
ENDBRANCH  33  34
ENDBRANCH  30  33
ENDBRANCH  12  29
TORSDOF 6
ENDMDL
MODEL 5
REMARK VINA RESULT:     -10.0      3.399      6.321
REMARK  6 active torsions:
REMARK  status: ('A' for Active; 'I' for Inactive)
REMARK    1  A    between atoms: C_8  and  C_9 
REMARK    2  A    between atoms: N_10  and  N_11 
REMARK    3  A    between atoms: C_22  and  C_23 
REMARK       I    between atoms: C_23  and  N_24 
REMARK    4  A    between atoms: N_24  and  C_25 
REMARK    5  A    between atoms: C_25  and  C_26 
REMARK    6  A    between atoms: C_34  and  N_35 
ROOT
HETATM    1  N   UNL     1      -5.218   7.049 -29.667  1.00  0.00    -0.197 N 
HETATM    2  C   UNL     1      -4.472   6.564 -30.723  1.00  0.00     0.183 A 
HETATM    3  C   UNL     1      -4.793   5.221 -30.878  1.00  0.00     0.125 A 
HETATM    4  N   UNL     1      -4.182   4.460 -31.822  1.00  0.00    -0.242 NA
HETATM    5  C   UNL     1      -3.278   5.108 -32.572  1.00  0.00     0.086 A 
HETATM    6  C   UNL     1      -2.975   6.484 -32.396  1.00  0.00     0.088 A 
HETATM    7  N   UNL     1      -3.565   7.246 -31.462  1.00  0.00    -0.225 NA
HETATM    8  C   UNL     1      -2.616   4.396 -33.564  1.00  0.00     0.034 A 
HETATM    9  C   UNL     1      -1.665   5.000 -34.389  1.00  0.00     0.002 A 
HETATM   10  C   UNL     1      -1.369   6.345 -34.218  1.00  0.00     0.002 A 
HETATM   11  C   UNL     1      -2.025   7.072 -33.223  1.00  0.00     0.034 A 
HETATM   12  C   UNL     1      -5.807   4.889 -29.938  1.00  0.00     0.110 A 
HETATM   13  C   UNL     1      -6.101   6.058 -29.247  1.00  0.00     0.143 A 
ENDROOT
BRANCH   1  14
HETATM   14  N   UNL     1      -5.202   8.305 -29.136  1.00  0.00    -0.176 NA
HETATM   15  C   UNL     1      -4.276   8.591 -28.269  1.00  0.00     0.153 C 
BRANCH  15  16
HETATM   16  C   UNL     1      -3.359   7.723 -27.540  1.00  0.00     0.011 A 
HETATM   17  C   UNL     1      -1.949   7.597 -27.805  1.00  0.00     0.004 A 
HETATM   18  C   UNL     1      -1.072   8.168 -28.753  1.00  0.00     0.014 A 
HETATM   19  C   UNL     1      -1.416   6.709 -26.870  1.00  0.00     0.043 A 
HETATM   20  C   UNL     1       0.289   7.840 -28.724  1.00  0.00     0.001 A 
HETATM   21  C   UNL     1       0.785   6.948 -27.779  1.00  0.00     0.002 A 
HETATM   22  C   UNL     1      -0.060   6.359 -26.835  1.00  0.00     0.030 A 
HETATM   23  N   UNL     1      -2.450   6.303 -26.064  1.00  0.00    -0.364 N 
HETATM   24  H   UNL     1      -2.360   5.652 -25.297  1.00  0.00     0.165 HD
HETATM   25  C   UNL     1      -3.604   6.952 -26.416  1.00  0.00     0.102 A 
ENDBRANCH  15  16
ENDBRANCH   1  14
BRANCH  13  26
HETATM   26  N   UNL     1      -6.990   6.315 -28.242  1.00  0.00    -0.383 N 
HETATM   27  H   UNL     1      -6.653   6.320 -27.281  1.00  0.00     0.157 HD
HETATM   28  H   UNL     1      -7.635   7.093 -28.411  1.00  0.00     0.157 HD
ENDBRANCH  13  26
BRANCH  12  29
HETATM   29  C   UNL     1      -6.405   3.584 -29.721  1.00  0.00     0.258 C 
HETATM   30  N   UNL     1      -5.499   2.549 -29.678  1.00  0.00    -0.352 N 
HETATM   31  H   UNL     1      -4.519   2.778 -29.806  1.00  0.00     0.163 HD
HETATM   32  O   UNL     1      -7.616   3.414 -29.635  1.00  0.00    -0.267 OA
BRANCH  30  33
HETATM   33  C   UNL     1      -5.924   1.173 -29.737  1.00  0.00     0.161 C 
BRANCH  33  34
HETATM   34  C   UNL     1      -5.387   0.461 -30.952  1.00  0.00    -0.040 A 
HETATM   35  C   UNL     1      -4.015   0.520 -31.249  1.00  0.00     0.012 A 
HETATM   36  C   UNL     1      -3.500  -0.153 -32.358  1.00  0.00     0.043 A 
HETATM   37  C   UNL     1      -4.355  -0.881 -33.175  1.00  0.00     0.116 A 
HETATM   38  F   UNL     1      -3.860  -1.526 -34.239  1.00  0.00    -0.206 F 
HETATM   39  C   UNL     1      -5.716  -0.952 -32.903  1.00  0.00     0.043 A 
HETATM   40  C   UNL     1      -6.232  -0.286 -31.790  1.00  0.00     0.012 A 
ENDBRANCH  33  34
ENDBRANCH  30  33
ENDBRANCH  12  29
TORSDOF 6
ENDMDL
MODEL 6
REMARK VINA RESULT:      -9.8      3.852      7.646
REMARK  6 active torsions:
REMARK  status: ('A' for Active; 'I' for Inactive)
REMARK    1  A    between atoms: C_8  and  C_9 
REMARK    2  A    between atoms: N_10  and  N_11 
REMARK    3  A    between atoms: C_22  and  C_23 
REMARK       I    between atoms: C_23  and  N_24 
REMARK    4  A    between atoms: N_24  and  C_25 
REMARK    5  A    between atoms: C_25  and  C_26 
REMARK    6  A    between atoms: C_34  and  N_35 
ROOT
HETATM    1  N   UNL     1      -7.635   1.271 -31.198  1.00  0.00    -0.197 N 
HETATM    2  C   UNL     1      -7.055   0.350 -32.049  1.00  0.00     0.183 A 
HETATM    3  C   UNL     1      -8.066  -0.177 -32.844  1.00  0.00     0.125 A 
HETATM    4  N   UNL     1      -7.802  -1.145 -33.759  1.00  0.00    -0.242 NA
HETATM    5  C   UNL     1      -6.517  -1.524 -33.828  1.00  0.00     0.086 A 
HETATM    6  C   UNL     1      -5.503  -0.962 -33.008  1.00  0.00     0.088 A 
HETATM    7  N   UNL     1      -5.750  -0.010 -32.094  1.00  0.00    -0.225 NA
HETATM    8  C   UNL     1      -6.171  -2.506 -34.747  1.00  0.00     0.034 A 
HETATM    9  C   UNL     1      -4.853  -2.950 -34.882  1.00  0.00     0.002 A 
HETATM   10  C   UNL     1      -3.863  -2.401 -34.081  1.00  0.00     0.002 A 
HETATM   11  C   UNL     1      -4.198  -1.414 -33.152  1.00  0.00     0.034 A 
HETATM   12  C   UNL     1      -9.284   0.480 -32.518  1.00  0.00     0.110 A 
HETATM   13  C   UNL     1      -8.975   1.421 -31.544  1.00  0.00     0.143 A 
ENDROOT
BRANCH   1  14
HETATM   14  N   UNL     1      -7.032   2.006 -30.222  1.00  0.00    -0.176 NA
HETATM   15  C   UNL     1      -6.581   3.185 -30.534  1.00  0.00     0.153 C 
BRANCH  15  16
HETATM   16  C   UNL     1      -6.369   3.805 -31.837  1.00  0.00     0.011 A 
HETATM   17  C   UNL     1      -5.084   4.050 -32.439  1.00  0.00     0.004 A 
HETATM   18  C   UNL     1      -3.750   3.835 -32.030  1.00  0.00     0.014 A 
HETATM   19  C   UNL     1      -5.301   4.613 -33.698  1.00  0.00     0.043 A 
HETATM   20  C   UNL     1      -2.697   4.177 -32.889  1.00  0.00     0.001 A 
HETATM   21  C   UNL     1      -2.952   4.739 -34.136  1.00  0.00     0.002 A 
HETATM   22  C   UNL     1      -4.261   4.974 -34.563  1.00  0.00     0.030 A 
HETATM   23  N   UNL     1      -6.660   4.712 -33.865  1.00  0.00    -0.364 N 
HETATM   24  H   UNL     1      -7.112   5.089 -34.687  1.00  0.00     0.165 HD
HETATM   25  C   UNL     1      -7.308   4.173 -32.785  1.00  0.00     0.102 A 
ENDBRANCH  15  16
ENDBRANCH   1  14
BRANCH  13  26
HETATM   26  N   UNL     1      -9.756   2.322 -30.879  1.00  0.00    -0.383 N 
HETATM   27  H   UNL     1     -10.118   3.126 -31.389  1.00  0.00     0.157 HD
HETATM   28  H   UNL     1     -10.474   1.920 -30.268  1.00  0.00     0.157 HD
ENDBRANCH  13  26
BRANCH  12  29
HETATM   29  C   UNL     1     -10.598   0.211 -33.074  1.00  0.00     0.258 C 
HETATM   30  N   UNL     1     -11.069   1.197 -33.911  1.00  0.00    -0.352 N 
HETATM   31  H   UNL     1     -10.478   2.009 -34.058  1.00  0.00     0.163 HD
HETATM   32  O   UNL     1     -11.252  -0.784 -32.782  1.00  0.00    -0.267 OA
BRANCH  30  33
HETATM   33  C   UNL     1     -12.445   1.229 -34.338  1.00  0.00     0.161 C 
BRANCH  33  34
HETATM   34  C   UNL     1     -13.293   2.116 -33.462  1.00  0.00    -0.040 A 
HETATM   35  C   UNL     1     -12.858   3.413 -33.147  1.00  0.00     0.012 A 
HETATM   36  C   UNL     1     -13.643   4.253 -32.357  1.00  0.00     0.043 A 
HETATM   37  C   UNL     1     -14.863   3.796 -31.875  1.00  0.00     0.116 A 
HETATM   38  F   UNL     1     -15.617   4.602 -31.117  1.00  0.00    -0.206 F 
HETATM   39  C   UNL     1     -15.315   2.515 -32.172  1.00  0.00     0.043 A 
HETATM   40  C   UNL     1     -14.534   1.676 -32.969  1.00  0.00     0.012 A 
ENDBRANCH  33  34
ENDBRANCH  30  33
ENDBRANCH  12  29
TORSDOF 6
ENDMDL
MODEL 7
REMARK VINA RESULT:      -9.6      2.381      4.730
REMARK  6 active torsions:
REMARK  status: ('A' for Active; 'I' for Inactive)
REMARK    1  A    between atoms: C_8  and  C_9 
REMARK    2  A    between atoms: N_10  and  N_11 
REMARK    3  A    between atoms: C_22  and  C_23 
REMARK       I    between atoms: C_23  and  N_24 
REMARK    4  A    between atoms: N_24  and  C_25 
REMARK    5  A    between atoms: C_25  and  C_26 
REMARK    6  A    between atoms: C_34  and  N_35 
ROOT
HETATM    1  N   UNL     1      -6.084   4.426 -30.462  1.00  0.00    -0.197 N 
HETATM    2  C   UNL     1      -4.998   4.724 -31.262  1.00  0.00     0.183 A 
HETATM    3  C   UNL     1      -4.266   3.554 -31.422  1.00  0.00     0.125 A 
HETATM    4  N   UNL     1      -3.109   3.546 -32.134  1.00  0.00    -0.242 NA
HETATM    5  C   UNL     1      -2.758   4.730 -32.657  1.00  0.00     0.086 A 
HETATM    6  C   UNL     1      -3.530   5.909 -32.482  1.00  0.00     0.088 A 
HETATM    7  N   UNL     1      -4.671   5.934 -31.775  1.00  0.00    -0.225 NA
HETATM    8  C   UNL     1      -1.589   4.797 -33.404  1.00  0.00     0.034 A 
HETATM    9  C   UNL     1      -1.159   5.992 -33.984  1.00  0.00     0.002 A 
HETATM   10  C   UNL     1      -1.913   7.144 -33.814  1.00  0.00     0.002 A 
HETATM   11  C   UNL     1      -3.089   7.091 -33.064  1.00  0.00     0.034 A 
HETATM   12  C   UNL     1      -4.951   2.499 -30.761  1.00  0.00     0.110 A 
HETATM   13  C   UNL     1      -6.111   3.053 -30.234  1.00  0.00     0.143 A 
ENDROOT
BRANCH   1  14
HETATM   14  N   UNL     1      -7.052   5.274 -30.013  1.00  0.00    -0.176 NA
HETATM   15  C   UNL     1      -6.735   6.129 -29.086  1.00  0.00     0.153 C 
BRANCH  15  16
HETATM   16  C   UNL     1      -5.562   6.199 -28.222  1.00  0.00     0.011 A 
HETATM   17  C   UNL     1      -4.486   7.147 -28.362  1.00  0.00     0.004 A 
HETATM   18  C   UNL     1      -4.203   8.186 -29.274  1.00  0.00     0.014 A 
HETATM   19  C   UNL     1      -3.580   6.921 -27.325  1.00  0.00     0.043 A 
HETATM   20  C   UNL     1      -3.045   8.957 -29.111  1.00  0.00     0.001 A 
HETATM   21  C   UNL     1      -2.163   8.701 -28.065  1.00  0.00     0.002 A 
HETATM   22  C   UNL     1      -2.410   7.672 -27.153  1.00  0.00     0.030 A 
HETATM   23  N   UNL     1      -4.073   5.879 -26.578  1.00  0.00    -0.364 N 
HETATM   24  H   UNL     1      -3.622   5.493 -25.760  1.00  0.00     0.165 HD
HETATM   25  C   UNL     1      -5.289   5.483 -27.070  1.00  0.00     0.102 A 
ENDBRANCH  15  16
ENDBRANCH   1  14
BRANCH  13  26
HETATM   26  N   UNL     1      -7.128   2.500 -29.509  1.00  0.00    -0.383 N 
HETATM   27  H   UNL     1      -6.998   2.365 -28.508  1.00  0.00     0.157 HD
HETATM   28  H   UNL     1      -8.065   2.863 -29.713  1.00  0.00     0.157 HD
ENDBRANCH  13  26
BRANCH  12  29
HETATM   29  C   UNL     1      -4.521   1.118 -30.639  1.00  0.00     0.258 C 
HETATM   30  N   UNL     1      -3.770   0.665 -31.700  1.00  0.00    -0.352 N 
HETATM   31  H   UNL     1      -3.594   1.313 -32.459  1.00  0.00     0.163 HD
HETATM   32  O   UNL     1      -4.841   0.402 -29.695  1.00  0.00    -0.267 OA
BRANCH  30  33
HETATM   33  C   UNL     1      -3.484  -0.737 -31.877  1.00  0.00     0.161 C 
BRANCH  33  34
HETATM   34  C   UNL     1      -4.449  -1.401 -32.825  1.00  0.00    -0.040 A 
HETATM   35  C   UNL     1      -4.089  -2.596 -33.468  1.00  0.00     0.012 A 
HETATM   36  C   UNL     1      -4.981  -3.234 -34.331  1.00  0.00     0.043 A 
HETATM   37  C   UNL     1      -6.233  -2.676 -34.557  1.00  0.00     0.116 A 
HETATM   38  F   UNL     1      -7.088  -3.289 -35.384  1.00  0.00    -0.206 F 
HETATM   39  C   UNL     1      -6.611  -1.493 -33.933  1.00  0.00     0.043 A 
HETATM   40  C   UNL     1      -5.723  -0.857 -33.064  1.00  0.00     0.012 A 
ENDBRANCH  33  34
ENDBRANCH  30  33
ENDBRANCH  12  29
TORSDOF 6
ENDMDL
MODEL 8
REMARK VINA RESULT:      -9.5      1.785      2.704
REMARK  6 active torsions:
REMARK  status: ('A' for Active; 'I' for Inactive)
REMARK    1  A    between atoms: C_8  and  C_9 
REMARK    2  A    between atoms: N_10  and  N_11 
REMARK    3  A    between atoms: C_22  and  C_23 
REMARK       I    between atoms: C_23  and  N_24 
REMARK    4  A    between atoms: N_24  and  C_25 
REMARK    5  A    between atoms: C_25  and  C_26 
REMARK    6  A    between atoms: C_34  and  N_35 
ROOT
HETATM    1  N   UNL     1      -4.806   4.092 -33.515  1.00  0.00    -0.197 N 
HETATM    2  C   UNL     1      -3.647   4.513 -32.892  1.00  0.00     0.183 A 
HETATM    3  C   UNL     1      -3.190   3.461 -32.107  1.00  0.00     0.125 A 
HETATM    4  N   UNL     1      -2.079   3.594 -31.338  1.00  0.00    -0.242 NA
HETATM    5  C   UNL     1      -1.479   4.792 -31.412  1.00  0.00     0.086 A 
HETATM    6  C   UNL     1      -1.965   5.847 -32.228  1.00  0.00     0.088 A 
HETATM    7  N   UNL     1      -3.066   5.733 -32.988  1.00  0.00    -0.225 NA
HETATM    8  C   UNL     1      -0.332   5.000 -30.656  1.00  0.00     0.034 A 
HETATM    9  C   UNL     1       0.351   6.218 -30.683  1.00  0.00     0.002 A 
HETATM   10  C   UNL     1      -0.123   7.248 -31.481  1.00  0.00     0.002 A 
HETATM   11  C   UNL     1      -1.276   7.053 -32.244  1.00  0.00     0.034 A 
HETATM   12  C   UNL     1      -4.050   2.346 -32.303  1.00  0.00     0.110 A 
HETATM   13  C   UNL     1      -5.003   2.743 -33.233  1.00  0.00     0.143 A 
ENDROOT
BRANCH   1  14
HETATM   14  N   UNL     1      -5.614   4.804 -34.349  1.00  0.00    -0.176 NA
HETATM   15  C   UNL     1      -6.555   5.530 -33.818  1.00  0.00     0.153 C 
BRANCH  15  16
HETATM   16  C   UNL     1      -7.091   5.542 -32.462  1.00  0.00     0.011 A 
HETATM   17  C   UNL     1      -8.165   4.707 -31.988  1.00  0.00     0.004 A 
HETATM   18  C   UNL     1      -8.989   3.730 -32.587  1.00  0.00     0.014 A 
HETATM   19  C   UNL     1      -8.354   4.983 -30.633  1.00  0.00     0.043 A 
HETATM   20  C   UNL     1      -9.953   3.068 -31.817  1.00  0.00     0.001 A 
HETATM   21  C   UNL     1     -10.115   3.371 -30.469  1.00  0.00     0.002 A 
HETATM   22  C   UNL     1      -9.322   4.341 -29.850  1.00  0.00     0.030 A 
HETATM   23  N   UNL     1      -7.440   5.946 -30.286  1.00  0.00    -0.364 N 
HETATM   24  H   UNL     1      -7.348   6.346 -29.362  1.00  0.00     0.165 HD
HETATM   25  C   UNL     1      -6.638   6.242 -31.357  1.00  0.00     0.102 A 
ENDBRANCH  15  16
ENDBRANCH   1  14
BRANCH  13  26
HETATM   26  N   UNL     1      -6.061   2.078 -33.783  1.00  0.00    -0.383 N 
HETATM   27  H   UNL     1      -6.909   1.965 -33.229  1.00  0.00     0.157 HD
HETATM   28  H   UNL     1      -6.284   2.325 -34.752  1.00  0.00     0.157 HD
ENDBRANCH  13  26
BRANCH  12  29
HETATM   29  C   UNL     1      -3.970   1.054 -31.647  1.00  0.00     0.258 C 
HETATM   30  N   UNL     1      -3.299   0.095 -32.371  1.00  0.00    -0.352 N 
HETATM   31  H   UNL     1      -2.936   0.363 -33.280  1.00  0.00     0.163 HD
HETATM   32  O   UNL     1      -4.498   0.823 -30.564  1.00  0.00    -0.267 OA
BRANCH  30  33
HETATM   33  C   UNL     1      -3.349  -1.298 -32.005  1.00  0.00     0.161 C 
BRANCH  33  34
HETATM   34  C   UNL     1      -4.100  -2.127 -33.015  1.00  0.00    -0.040 A 
HETATM   35  C   UNL     1      -5.197  -1.575 -33.699  1.00  0.00     0.012 A 
HETATM   36  C   UNL     1      -5.887  -2.323 -34.653  1.00  0.00     0.043 A 
HETATM   37  C   UNL     1      -5.487  -3.626 -34.923  1.00  0.00     0.116 A 
HETATM   38  F   UNL     1      -6.149  -4.343 -35.839  1.00  0.00    -0.206 F 
HETATM   39  C   UNL     1      -4.406  -4.194 -34.258  1.00  0.00     0.043 A 
HETATM   40  C   UNL     1      -3.709  -3.445 -33.309  1.00  0.00     0.012 A 
ENDBRANCH  33  34
ENDBRANCH  30  33
ENDBRANCH  12  29
TORSDOF 6
ENDMDL
MODEL 9
REMARK VINA RESULT:      -9.4      2.469      5.948
REMARK  6 active torsions:
REMARK  status: ('A' for Active; 'I' for Inactive)
REMARK    1  A    between atoms: C_8  and  C_9 
REMARK    2  A    between atoms: N_10  and  N_11 
REMARK    3  A    between atoms: C_22  and  C_23 
REMARK       I    between atoms: C_23  and  N_24 
REMARK    4  A    between atoms: N_24  and  C_25 
REMARK    5  A    between atoms: C_25  and  C_26 
REMARK    6  A    between atoms: C_34  and  N_35 
ROOT
HETATM    1  N   UNL     1      -6.729   2.301 -31.302  1.00  0.00    -0.197 N 
HETATM    2  C   UNL     1      -8.064   2.579 -31.523  1.00  0.00     0.183 A 
HETATM    3  C   UNL     1      -8.453   1.876 -32.657  1.00  0.00     0.125 A 
HETATM    4  N   UNL     1      -9.715   1.985 -33.148  1.00  0.00    -0.242 NA
HETATM    5  C   UNL     1     -10.525   2.797 -32.453  1.00  0.00     0.086 A 
HETATM    6  C   UNL     1     -10.101   3.498 -31.292  1.00  0.00     0.088 A 
HETATM    7  N   UNL     1      -8.856   3.407 -30.800  1.00  0.00    -0.225 NA
HETATM    8  C   UNL     1     -11.833   2.952 -32.891  1.00  0.00     0.034 A 
HETATM    9  C   UNL     1     -12.738   3.777 -32.219  1.00  0.00     0.002 A 
HETATM   10  C   UNL     1     -12.325   4.461 -31.085  1.00  0.00     0.002 A 
HETATM   11  C   UNL     1     -11.012   4.316 -30.634  1.00  0.00     0.034 A 
HETATM   12  C   UNL     1      -7.351   1.099 -33.105  1.00  0.00     0.110 A 
HETATM   13  C   UNL     1      -6.317   1.328 -32.206  1.00  0.00     0.143 A 
ENDROOT
BRANCH   1  14
HETATM   14  N   UNL     1      -5.921   2.798 -30.323  1.00  0.00    -0.176 NA
HETATM   15  C   UNL     1      -5.262   3.892 -30.569  1.00  0.00     0.153 C 
BRANCH  15  16
HETATM   16  C   UNL     1      -5.020   4.590 -31.826  1.00  0.00     0.011 A 
HETATM   17  C   UNL     1      -3.722   4.828 -32.405  1.00  0.00     0.004 A 
HETATM   18  C   UNL     1      -2.399   4.537 -32.007  1.00  0.00     0.014 A 
HETATM   19  C   UNL     1      -3.911   5.482 -33.623  1.00  0.00     0.043 A 
HETATM   20  C   UNL     1      -1.330   4.898 -32.836  1.00  0.00     0.001 A 
HETATM   21  C   UNL     1      -1.557   5.552 -34.043  1.00  0.00     0.002 A 
HETATM   22  C   UNL     1      -2.854   5.863 -34.459  1.00  0.00     0.030 A 
HETATM   23  N   UNL     1      -5.265   5.642 -33.789  1.00  0.00    -0.364 N 
HETATM   24  H   UNL     1      -5.698   6.091 -34.585  1.00  0.00     0.165 HD
HETATM   25  C   UNL     1      -5.939   5.056 -32.751  1.00  0.00     0.102 A 
ENDBRANCH  15  16
ENDBRANCH   1  14
BRANCH  13  26
HETATM   26  N   UNL     1      -5.041   0.842 -32.154  1.00  0.00    -0.383 N 
HETATM   27  H   UNL     1      -4.575   0.788 -31.250  1.00  0.00     0.157 HD
HETATM   28  H   UNL     1      -4.865  -0.001 -32.709  1.00  0.00     0.157 HD
ENDBRANCH  13  26
BRANCH  12  29
HETATM   29  C   UNL     1      -7.301   0.248 -34.281  1.00  0.00     0.258 C 
HETATM   30  N   UNL     1      -7.441  -1.094 -34.012  1.00  0.00    -0.352 N 
HETATM   31  H   UNL     1      -7.555  -1.369 -33.042  1.00  0.00     0.163 HD
HETATM   32  O   UNL     1      -7.101   0.685 -35.410  1.00  0.00    -0.267 OA
BRANCH  30  33
HETATM   33  C   UNL     1      -7.155  -2.096 -35.008  1.00  0.00     0.161 C 
BRANCH  33  34
HETATM   34  C   UNL     1      -5.988  -2.967 -34.622  1.00  0.00    -0.040 A 
HETATM   35  C   UNL     1      -4.883  -2.407 -33.960  1.00  0.00     0.012 A 
HETATM   36  C   UNL     1      -3.805  -3.206 -33.577  1.00  0.00     0.043 A 
HETATM   37  C   UNL     1      -3.827  -4.566 -33.858  1.00  0.00     0.116 A 
HETATM   38  F   UNL     1      -2.793  -5.332 -33.489  1.00  0.00    -0.206 F 
HETATM   39  C   UNL     1      -4.908  -5.143 -34.513  1.00  0.00     0.043 A 
HETATM   40  C   UNL     1      -5.990  -4.347 -34.892  1.00  0.00     0.012 A 
ENDBRANCH  33  34
ENDBRANCH  30  33
ENDBRANCH  12  29
TORSDOF 6
ENDMDL
MODEL 10
REMARK VINA RESULT:      -9.3      4.381      7.431
REMARK  6 active torsions:
REMARK  status: ('A' for Active; 'I' for Inactive)
REMARK    1  A    between atoms: C_8  and  C_9 
REMARK    2  A    between atoms: N_10  and  N_11 
REMARK    3  A    between atoms: C_22  and  C_23 
REMARK       I    between atoms: C_23  and  N_24 
REMARK    4  A    between atoms: N_24  and  C_25 
REMARK    5  A    between atoms: C_25  and  C_26 
REMARK    6  A    between atoms: C_34  and  N_35 
ROOT
HETATM    1  N   UNL     1      -6.838   5.125 -31.433  1.00  0.00    -0.197 N 
HETATM    2  C   UNL     1      -5.556   5.196 -31.943  1.00  0.00     0.183 A 
HETATM    3  C   UNL     1      -4.709   5.531 -30.893  1.00  0.00     0.125 A 
HETATM    4  N   UNL     1      -3.379   5.714 -31.100  1.00  0.00    -0.242 NA
HETATM    5  C   UNL     1      -2.973   5.537 -32.366  1.00  0.00     0.086 A 
HETATM    6  C   UNL     1      -3.862   5.188 -33.418  1.00  0.00     0.088 A 
HETATM    7  N   UNL     1      -5.179   5.012 -33.230  1.00  0.00    -0.225 NA
HETATM    8  C   UNL     1      -1.624   5.701 -32.652  1.00  0.00     0.034 A 
HETATM    9  C   UNL     1      -1.124   5.530 -33.945  1.00  0.00     0.002 A 
HETATM   10  C   UNL     1      -1.991   5.188 -34.972  1.00  0.00     0.002 A 
HETATM   11  C   UNL     1      -3.350   5.022 -34.699  1.00  0.00     0.034 A 
HETATM   12  C   UNL     1      -5.477   5.603 -29.699  1.00  0.00     0.110 A 
HETATM   13  C   UNL     1      -6.781   5.279 -30.051  1.00  0.00     0.143 A 
ENDROOT
BRANCH   1  14
HETATM   14  N   UNL     1      -7.993   4.862 -32.106  1.00  0.00    -0.176 NA
HETATM   15  C   UNL     1      -8.343   3.618 -32.259  1.00  0.00     0.153 C 
BRANCH  15  16
HETATM   16  C   UNL     1      -7.586   2.389 -32.056  1.00  0.00     0.011 A 
HETATM   17  C   UNL     1      -7.293   1.417 -33.079  1.00  0.00     0.004 A 
HETATM   18  C   UNL     1      -7.611   1.306 -34.449  1.00  0.00     0.014 A 
HETATM   19  C   UNL     1      -6.514   0.412 -32.503  1.00  0.00     0.043 A 
HETATM   20  C   UNL     1      -7.137   0.213 -35.185  1.00  0.00     0.001 A 
HETATM   21  C   UNL     1      -6.365  -0.772 -34.576  1.00  0.00     0.002 A 
HETATM   22  C   UNL     1      -6.043  -0.695 -33.219  1.00  0.00     0.030 A 
HETATM   23  N   UNL     1      -6.336   0.747 -31.183  1.00  0.00    -0.364 N 
HETATM   24  H   UNL     1      -5.813   0.196 -30.516  1.00  0.00     0.165 HD
HETATM   25  C   UNL     1      -6.919   1.959 -30.921  1.00  0.00     0.102 A 
ENDBRANCH  15  16
ENDBRANCH   1  14
BRANCH  13  26
HETATM   26  N   UNL     1      -7.923   5.192 -29.306  1.00  0.00    -0.383 N 
HETATM   27  H   UNL     1      -8.204   4.281 -28.946  1.00  0.00     0.157 HD
HETATM   28  H   UNL     1      -8.045   5.921 -28.596  1.00  0.00     0.157 HD
ENDBRANCH  13  26
BRANCH  12  29
HETATM   29  C   UNL     1      -5.004   5.966 -28.375  1.00  0.00     0.258 C 
HETATM   30  N   UNL     1      -3.843   6.706 -28.374  1.00  0.00    -0.352 N 
HETATM   31  H   UNL     1      -3.425   6.922 -29.273  1.00  0.00     0.163 HD
HETATM   32  O   UNL     1      -5.562   5.601 -27.346  1.00  0.00    -0.267 OA
BRANCH  30  33
HETATM   33  C   UNL     1      -3.091   6.926 -27.165  1.00  0.00     0.161 C 
BRANCH  33  34
HETATM   34  C   UNL     1      -1.702   7.441 -27.443  1.00  0.00    -0.040 A 
HETATM   35  C   UNL     1      -1.001   8.139 -26.446  1.00  0.00     0.012 A 
HETATM   36  C   UNL     1       0.294   8.602 -26.682  1.00  0.00     0.043 A 
HETATM   37  C   UNL     1       0.890   8.373 -27.916  1.00  0.00     0.116 A 
HETATM   38  F   UNL     1       2.132   8.817 -28.141  1.00  0.00    -0.206 F 
HETATM   39  C   UNL     1       0.215   7.687 -28.918  1.00  0.00     0.043 A 
HETATM   40  C   UNL     1      -1.078   7.216 -28.682  1.00  0.00     0.012 A 
ENDBRANCH  33  34
ENDBRANCH  30  33
ENDBRANCH  12  29
TORSDOF 6
ENDMDL
