MODEL 1
REMARK VINA RESULT:      -9.8      0.000      0.000
REMARK  5 active torsions:
REMARK  status: ('A' for Active; 'I' for Inactive)
REMARK    1  A    between atoms: C_9  and  C_10 
REMARK    2  A    between atoms: C_10  and  C_11 
REMARK       I    between atoms: C_11  and  N_12 
REMARK    3  A    between atoms: N_12  and  C_13 
REMARK    4  A    between atoms: C_13  and  C_14 
REMARK    5  A    between atoms: N_16  and  C_17 
ROOT
HETATM    1  C   UNL     1      -6.567  -0.501 -34.307  1.00  0.00     0.084 A 
HETATM    2  N   UNL     1      -6.174   0.599 -33.731  1.00  0.00    -0.171 NA
HETATM    3  N   UNL     1      -5.020   0.606 -32.990  1.00  0.00    -0.229 N 
HETATM    4  C   UNL     1      -4.190  -0.505 -32.837  1.00  0.00     0.275 A 
HETATM    5  O   UNL     1      -3.133  -0.494 -32.210  1.00  0.00    -0.266 OA
HETATM    6  C   UNL     1      -4.626  -1.750 -33.493  1.00  0.00     0.046 A 
HETATM    7  C   UNL     1      -5.797  -1.764 -34.245  1.00  0.00     0.008 A 
HETATM    8  C   UNL     1      -3.843  -2.908 -33.375  1.00  0.00     0.018 A 
HETATM    9  C   UNL     1      -4.232  -4.081 -34.016  1.00  0.00     0.001 A 
HETATM   10  C   UNL     1      -5.395  -4.097 -34.780  1.00  0.00     0.001 A 
HETATM   11  C   UNL     1      -6.176  -2.943 -34.900  1.00  0.00     0.014 A 
ENDROOT
BRANCH   1  12
HETATM   12  C   UNL     1      -7.868  -0.440 -35.109  1.00  0.00     0.184 C 
BRANCH  12  13
HETATM   13  N   UNL     1      -8.472   0.868 -34.960  1.00  0.00    -0.355 N 
HETATM   14  C   UNL     1      -9.504   1.076 -34.072  1.00  0.00     0.222 C 
HETATM   15  O   UNL     1      -9.940   0.181 -33.350  1.00  0.00    -0.273 OA
HETATM   16  H   UNL     1      -8.305   1.541 -35.704  1.00  0.00     0.162 HD
BRANCH  14  17
HETATM   17  C   UNL     1     -10.016   2.498 -34.019  1.00  0.00     0.143 C 
BRANCH  17  18
HETATM   18  C   UNL     1     -11.325   2.719 -33.326  1.00  0.00    -0.021 A 
HETATM   19  C   UNL     1     -12.620   2.130 -33.537  1.00  0.00    -0.001 A 
HETATM   20  C   UNL     1     -13.500   2.701 -32.606  1.00  0.00     0.044 A 
HETATM   21  C   UNL     1     -13.143   1.162 -34.424  1.00  0.00     0.014 A 
HETATM   22  N   UNL     1     -12.768   3.586 -31.849  1.00  0.00    -0.360 N 
HETATM   23  C   UNL     1     -14.859   2.352 -32.539  1.00  0.00     0.030 A 
HETATM   24  C   UNL     1     -13.289   4.368 -30.750  1.00  0.00     0.155 C 
HETATM   25  C   UNL     1     -11.471   3.612 -32.275  1.00  0.00     0.099 A 
HETATM   26  C   UNL     1     -15.343   1.399 -33.436  1.00  0.00     0.002 A 
HETATM   27  C   UNL     1     -14.497   0.808 -34.366  1.00  0.00     0.001 A 
ENDBRANCH  17  18
ENDBRANCH  14  17
ENDBRANCH  12  13
ENDBRANCH   1  12
BRANCH   3  28
HETATM   28  C   UNL     1      -4.565   1.890 -32.463  1.00  0.00     0.114 C 
HETATM   29  C   UNL     1      -5.234   3.075 -33.160  1.00  0.00     0.027 C 
HETATM   30  C   UNL     1      -4.941   4.260 -32.246  1.00  0.00     0.002 C 
HETATM   31  C   UNL     1      -4.685   3.673 -30.856  1.00  0.00     0.002 C 
HETATM   32  C   UNL     1      -4.873   2.166 -30.991  1.00  0.00     0.027 C 
ENDBRANCH   3  28
TORSDOF 5
ENDMDL
MODEL 2
REMARK VINA RESULT:      -9.6      4.392      7.851
REMARK  5 active torsions:
REMARK  status: ('A' for Active; 'I' for Inactive)
REMARK    1  A    between atoms: C_9  and  C_10 
REMARK    2  A    between atoms: C_10  and  C_11 
REMARK       I    between atoms: C_11  and  N_12 
REMARK    3  A    between atoms: N_12  and  C_13 
REMARK    4  A    between atoms: C_13  and  C_14 
REMARK    5  A    between atoms: N_16  and  C_17 
ROOT
HETATM    1  C   UNL     1      -3.996   5.748 -31.009  1.00  0.00     0.084 A 
HETATM    2  N   UNL     1      -3.017   6.298 -30.350  1.00  0.00    -0.171 NA
HETATM    3  N   UNL     1      -1.871   6.664 -31.009  1.00  0.00    -0.229 N 
HETATM    4  C   UNL     1      -1.689   6.522 -32.385  1.00  0.00     0.275 A 
HETATM    5  O   UNL     1      -0.682   6.886 -32.989  1.00  0.00    -0.266 OA
HETATM    6  C   UNL     1      -2.797   5.906 -33.137  1.00  0.00     0.046 A 
HETATM    7  C   UNL     1      -3.960   5.532 -32.474  1.00  0.00     0.008 A 
HETATM    8  C   UNL     1      -2.678   5.726 -34.523  1.00  0.00     0.018 A 
HETATM    9  C   UNL     1      -3.732   5.173 -35.247  1.00  0.00     0.001 A 
HETATM   10  C   UNL     1      -4.904   4.808 -34.590  1.00  0.00     0.001 A 
HETATM   11  C   UNL     1      -5.024   4.989 -33.208  1.00  0.00     0.014 A 
ENDROOT
BRANCH   1  12
HETATM   12  C   UNL     1      -5.239   5.356 -30.210  1.00  0.00     0.184 C 
BRANCH  12  13
HETATM   13  N   UNL     1      -5.147   3.964 -29.818  1.00  0.00    -0.355 N 
HETATM   14  C   UNL     1      -6.130   3.064 -30.165  1.00  0.00     0.222 C 
HETATM   15  O   UNL     1      -7.107   3.384 -30.838  1.00  0.00    -0.273 OA
HETATM   16  H   UNL     1      -4.498   3.737 -29.069  1.00  0.00     0.162 HD
BRANCH  14  17
HETATM   17  C   UNL     1      -5.883   1.647 -29.697  1.00  0.00     0.143 C 
BRANCH  17  18
HETATM   18  C   UNL     1      -5.471   0.653 -30.741  1.00  0.00    -0.021 A 
HETATM   19  C   UNL     1      -6.192   0.092 -31.851  1.00  0.00    -0.001 A 
HETATM   20  C   UNL     1      -5.329  -0.796 -32.508  1.00  0.00     0.044 A 
HETATM   21  C   UNL     1      -7.496   0.247 -32.375  1.00  0.00     0.014 A 
HETATM   22  N   UNL     1      -4.128  -0.762 -31.839  1.00  0.00    -0.360 N 
HETATM   23  C   UNL     1      -5.719  -1.527 -33.643  1.00  0.00     0.030 A 
HETATM   24  C   UNL     1      -2.949  -1.511 -32.210  1.00  0.00     0.155 C 
HETATM   25  C   UNL     1      -4.204   0.092 -30.777  1.00  0.00     0.099 A 
HETATM   26  C   UNL     1      -7.016  -1.355 -34.128  1.00  0.00     0.002 A 
HETATM   27  C   UNL     1      -7.895  -0.478 -33.504  1.00  0.00     0.001 A 
ENDBRANCH  17  18
ENDBRANCH  14  17
ENDBRANCH  12  13
ENDBRANCH   1  12
BRANCH   3  28
HETATM   28  C   UNL     1      -0.854   7.381 -30.245  1.00  0.00     0.114 C 
HETATM   29  C   UNL     1      -1.454   8.210 -29.110  1.00  0.00     0.027 C 
HETATM   30  C   UNL     1      -0.261   8.552 -28.225  1.00  0.00     0.002 C 
HETATM   31  C   UNL     1       0.795   7.479 -28.499  1.00  0.00     0.002 C 
HETATM   32  C   UNL     1       0.172   6.519 -29.507  1.00  0.00     0.027 C 
ENDBRANCH   3  28
TORSDOF 5
ENDMDL
MODEL 3
REMARK VINA RESULT:      -9.4      2.957      8.409
REMARK  5 active torsions:
REMARK  status: ('A' for Active; 'I' for Inactive)
REMARK    1  A    between atoms: C_9  and  C_10 
REMARK    2  A    between atoms: C_10  and  C_11 
REMARK       I    between atoms: C_11  and  N_12 
REMARK    3  A    between atoms: N_12  and  C_13 
REMARK    4  A    between atoms: C_13  and  C_14 
REMARK    5  A    between atoms: N_16  and  C_17 
ROOT
HETATM    1  C   UNL     1      -6.549   0.685 -31.706  1.00  0.00     0.084 A 
HETATM    2  N   UNL     1      -7.654   1.038 -32.297  1.00  0.00    -0.171 NA
HETATM    3  N   UNL     1      -8.002   0.462 -33.493  1.00  0.00    -0.229 N 
HETATM    4  C   UNL     1      -7.254  -0.534 -34.121  1.00  0.00     0.275 A 
HETATM    5  O   UNL     1      -7.580  -1.084 -35.170  1.00  0.00    -0.266 OA
HETATM    6  C   UNL     1      -6.005  -0.942 -33.452  1.00  0.00     0.046 A 
HETATM    7  C   UNL     1      -5.647  -0.361 -32.240  1.00  0.00     0.008 A 
HETATM    8  C   UNL     1      -5.199  -1.933 -34.032  1.00  0.00     0.018 A 
HETATM    9  C   UNL     1      -4.034  -2.347 -33.392  1.00  0.00     0.001 A 
HETATM   10  C   UNL     1      -3.677  -1.778 -32.172  1.00  0.00     0.001 A 
HETATM   11  C   UNL     1      -4.480  -0.790 -31.593  1.00  0.00     0.014 A 
ENDROOT
BRANCH   1  12
HETATM   12  C   UNL     1      -6.218   1.373 -30.382  1.00  0.00     0.184 C 
BRANCH  12  13
HETATM   13  N   UNL     1      -5.943   2.776 -30.617  1.00  0.00    -0.355 N 
HETATM   14  C   UNL     1      -4.660   3.218 -30.850  1.00  0.00     0.222 C 
HETATM   15  O   UNL     1      -3.700   2.452 -30.899  1.00  0.00    -0.273 OA
HETATM   16  H   UNL     1      -6.661   3.440 -30.338  1.00  0.00     0.162 HD
BRANCH  14  17
HETATM   17  C   UNL     1      -4.538   4.705 -31.095  1.00  0.00     0.143 C 
BRANCH  17  18
HETATM   18  C   UNL     1      -3.278   5.181 -31.752  1.00  0.00    -0.021 A 
HETATM   19  C   UNL     1      -2.109   5.817 -31.208  1.00  0.00    -0.001 A 
HETATM   20  C   UNL     1      -1.225   6.053 -32.270  1.00  0.00     0.044 A 
HETATM   21  C   UNL     1      -1.701   6.218 -29.915  1.00  0.00     0.014 A 
HETATM   22  N   UNL     1      -1.822   5.565 -33.408  1.00  0.00    -0.360 N 
HETATM   23  C   UNL     1       0.024   6.673 -32.090  1.00  0.00     0.030 A 
HETATM   24  C   UNL     1      -1.232   5.579 -34.728  1.00  0.00     0.155 C 
HETATM   25  C   UNL     1      -3.052   5.051 -33.113  1.00  0.00     0.099 A 
HETATM   26  C   UNL     1       0.390   7.063 -30.802  1.00  0.00     0.002 A 
HETATM   27  C   UNL     1      -0.459   6.838 -29.726  1.00  0.00     0.001 A 
ENDBRANCH  17  18
ENDBRANCH  14  17
ENDBRANCH  12  13
ENDBRANCH   1  12
BRANCH   3  28
HETATM   28  C   UNL     1      -9.305   0.808 -34.054  1.00  0.00     0.114 C 
HETATM   29  C   UNL     1     -10.461   0.342 -33.169  1.00  0.00     0.027 C 
HETATM   30  C   UNL     1     -11.669   1.108 -33.699  1.00  0.00     0.002 C 
HETATM   31  C   UNL     1     -11.114   2.355 -34.391  1.00  0.00     0.002 C 
HETATM   32  C   UNL     1      -9.600   2.300 -34.211  1.00  0.00     0.027 C 
ENDBRANCH   3  28
TORSDOF 5
ENDMDL
MODEL 4
REMARK VINA RESULT:      -9.4      2.748      7.548
REMARK  5 active torsions:
REMARK  status: ('A' for Active; 'I' for Inactive)
REMARK    1  A    between atoms: C_9  and  C_10 
REMARK    2  A    between atoms: C_10  and  C_11 
REMARK       I    between atoms: C_11  and  N_12 
REMARK    3  A    between atoms: N_12  and  C_13 
REMARK    4  A    between atoms: C_13  and  C_14 
REMARK    5  A    between atoms: N_16  and  C_17 
ROOT
HETATM    1  C   UNL     1      -6.238   0.953 -31.653  1.00  0.00     0.084 A 
HETATM    2  N   UNL     1      -7.375   1.143 -32.259  1.00  0.00    -0.171 NA
HETATM    3  N   UNL     1      -7.720   0.351 -33.324  1.00  0.00    -0.229 N 
HETATM    4  C   UNL     1      -6.935  -0.702 -33.795  1.00  0.00     0.275 A 
HETATM    5  O   UNL     1      -7.257  -1.441 -34.722  1.00  0.00    -0.266 OA
HETATM    6  C   UNL     1      -5.650  -0.925 -33.108  1.00  0.00     0.046 A 
HETATM    7  C   UNL     1      -5.294  -0.125 -32.028  1.00  0.00     0.008 A 
HETATM    8  C   UNL     1      -4.807  -1.962 -33.534  1.00  0.00     0.018 A 
HETATM    9  C   UNL     1      -3.605  -2.200 -32.871  1.00  0.00     0.001 A 
HETATM   10  C   UNL     1      -3.250  -1.410 -31.781  1.00  0.00     0.001 A 
HETATM   11  C   UNL     1      -4.091  -0.377 -31.355  1.00  0.00     0.014 A 
ENDROOT
BRANCH   1  12
HETATM   12  C   UNL     1      -5.912   1.878 -30.480  1.00  0.00     0.184 C 
BRANCH  12  13
HETATM   13  N   UNL     1      -5.585   3.199 -30.976  1.00  0.00    -0.355 N 
HETATM   14  C   UNL     1      -6.334   4.297 -30.617  1.00  0.00     0.222 C 
HETATM   15  O   UNL     1      -7.288   4.218 -29.847  1.00  0.00    -0.273 OA
HETATM   16  H   UNL     1      -4.976   3.249 -31.788  1.00  0.00     0.162 HD
BRANCH  14  17
HETATM   17  C   UNL     1      -5.855   5.607 -31.202  1.00  0.00     0.143 C 
BRANCH  17  18
HETATM   18  C   UNL     1      -4.390   5.721 -31.495  1.00  0.00    -0.021 A 
HETATM   19  C   UNL     1      -3.657   5.581 -32.724  1.00  0.00    -0.001 A 
HETATM   20  C   UNL     1      -2.301   5.787 -32.431  1.00  0.00     0.044 A 
HETATM   21  C   UNL     1      -4.002   5.302 -34.066  1.00  0.00     0.014 A 
HETATM   22  N   UNL     1      -2.215   6.059 -31.085  1.00  0.00    -0.360 N 
HETATM   23  C   UNL     1      -1.297   5.716 -33.411  1.00  0.00     0.030 A 
HETATM   24  C   UNL     1      -0.993   6.364 -30.375  1.00  0.00     0.155 C 
HETATM   25  C   UNL     1      -3.455   6.014 -30.515  1.00  0.00     0.099 A 
HETATM   26  C   UNL     1      -1.673   5.430 -34.724  1.00  0.00     0.002 A 
HETATM   27  C   UNL     1      -3.008   5.228 -35.050  1.00  0.00     0.001 A 
ENDBRANCH  17  18
ENDBRANCH  14  17
ENDBRANCH  12  13
ENDBRANCH   1  12
BRANCH   3  28
HETATM   28  C   UNL     1      -9.053   0.530 -33.893  1.00  0.00     0.114 C 
HETATM   29  C   UNL     1     -10.159   0.112 -32.924  1.00  0.00     0.027 C 
HETATM   30  C   UNL     1     -11.426   0.716 -33.521  1.00  0.00     0.002 C 
HETATM   31  C   UNL     1     -10.971   1.892 -34.388  1.00  0.00     0.002 C 
HETATM   32  C   UNL     1      -9.454   1.964 -34.242  1.00  0.00     0.027 C 
ENDBRANCH   3  28
TORSDOF 5
ENDMDL
MODEL 5
REMARK VINA RESULT:      -9.3      2.484      4.192
REMARK  5 active torsions:
REMARK  status: ('A' for Active; 'I' for Inactive)
REMARK    1  A    between atoms: C_9  and  C_10 
REMARK    2  A    between atoms: C_10  and  C_11 
REMARK       I    between atoms: C_11  and  N_12 
REMARK    3  A    between atoms: N_12  and  C_13 
REMARK    4  A    between atoms: C_13  and  C_14 
REMARK    5  A    between atoms: N_16  and  C_17 
ROOT
HETATM    1  C   UNL     1      -7.037  -0.376 -33.066  1.00  0.00     0.084 A 
HETATM    2  N   UNL     1      -6.403   0.523 -32.369  1.00  0.00    -0.171 NA
HETATM    3  N   UNL     1      -5.064   0.370 -32.117  1.00  0.00    -0.229 N 
HETATM    4  C   UNL     1      -4.299  -0.691 -32.602  1.00  0.00     0.275 A 
HETATM    5  O   UNL     1      -3.090  -0.811 -32.416  1.00  0.00    -0.266 OA
HETATM    6  C   UNL     1      -5.010  -1.707 -33.398  1.00  0.00     0.046 A 
HETATM    7  C   UNL     1      -6.369  -1.558 -33.656  1.00  0.00     0.008 A 
HETATM    8  C   UNL     1      -4.305  -2.805 -33.911  1.00  0.00     0.018 A 
HETATM    9  C   UNL     1      -4.962  -3.755 -34.690  1.00  0.00     0.001 A 
HETATM   10  C   UNL     1      -6.319  -3.604 -34.962  1.00  0.00     0.001 A 
HETATM   11  C   UNL     1      -7.023  -2.508 -34.451  1.00  0.00     0.014 A 
ENDROOT
BRANCH   1  12
HETATM   12  C   UNL     1      -8.531  -0.148 -33.301  1.00  0.00     0.184 C 
BRANCH  12  13
HETATM   13  N   UNL     1      -8.961   1.038 -32.589  1.00  0.00    -0.355 N 
HETATM   14  C   UNL     1      -9.662   2.035 -33.231  1.00  0.00     0.222 C 
HETATM   15  O   UNL     1      -9.977   1.958 -34.416  1.00  0.00    -0.273 OA
HETATM   16  H   UNL     1      -8.507   1.234 -31.701  1.00  0.00     0.162 HD
BRANCH  14  17
HETATM   17  C   UNL     1     -10.055   3.199 -32.349  1.00  0.00     0.143 C 
BRANCH  17  18
HETATM   18  C   UNL     1      -9.052   4.301 -32.197  1.00  0.00    -0.021 A 
HETATM   19  C   UNL     1      -7.782   4.520 -32.836  1.00  0.00    -0.001 A 
HETATM   20  C   UNL     1      -7.251   5.711 -32.321  1.00  0.00     0.044 A 
HETATM   21  C   UNL     1      -7.021   3.829 -33.806  1.00  0.00     0.014 A 
HETATM   22  N   UNL     1      -8.167   6.206 -31.422  1.00  0.00    -0.360 N 
HETATM   23  C   UNL     1      -6.007   6.221 -32.728  1.00  0.00     0.030 A 
HETATM   24  C   UNL     1      -8.024   7.442 -30.685  1.00  0.00     0.155 C 
HETATM   25  C   UNL     1      -9.241   5.368 -31.333  1.00  0.00     0.099 A 
HETATM   26  C   UNL     1      -5.279   5.509 -33.682  1.00  0.00     0.002 A 
HETATM   27  C   UNL     1      -5.779   4.329 -34.217  1.00  0.00     0.001 A 
ENDBRANCH  17  18
ENDBRANCH  14  17
ENDBRANCH  12  13
ENDBRANCH   1  12
BRANCH   3  28
HETATM   28  C   UNL     1      -4.378   1.463 -31.431  1.00  0.00     0.114 C 
HETATM   29  C   UNL     1      -3.469   2.258 -32.368  1.00  0.00     0.027 C 
HETATM   30  C   UNL     1      -3.163   3.536 -31.595  1.00  0.00     0.002 C 
HETATM   31  C   UNL     1      -4.307   3.715 -30.596  1.00  0.00     0.002 C 
HETATM   32  C   UNL     1      -5.269   2.557 -30.841  1.00  0.00     0.027 C 
ENDBRANCH   3  28
TORSDOF 5
ENDMDL
MODEL 6
REMARK VINA RESULT:      -9.3      3.341      8.604
REMARK  5 active torsions:
REMARK  status: ('A' for Active; 'I' for Inactive)
REMARK    1  A    between atoms: C_9  and  C_10 
REMARK    2  A    between atoms: C_10  and  C_11 
REMARK       I    between atoms: C_11  and  N_12 
REMARK    3  A    between atoms: N_12  and  C_13 
REMARK    4  A    between atoms: C_13  and  C_14 
REMARK    5  A    between atoms: N_16  and  C_17 
ROOT
HETATM    1  C   UNL     1      -5.836   1.020 -31.990  1.00  0.00     0.084 A 
HETATM    2  N   UNL     1      -6.989   1.246 -32.551  1.00  0.00    -0.171 NA
HETATM    3  N   UNL     1      -7.491   0.353 -33.463  1.00  0.00    -0.229 N 
HETATM    4  C   UNL     1      -6.854  -0.837 -33.814  1.00  0.00     0.275 A 
HETATM    5  O   UNL     1      -7.317  -1.662 -34.598  1.00  0.00    -0.266 OA
HETATM    6  C   UNL     1      -5.552  -1.102 -33.176  1.00  0.00     0.046 A 
HETATM    7  C   UNL     1      -5.037  -0.199 -32.252  1.00  0.00     0.008 A 
HETATM    8  C   UNL     1      -4.852  -2.277 -33.489  1.00  0.00     0.018 A 
HETATM    9  C   UNL     1      -3.635  -2.550 -32.868  1.00  0.00     0.001 A 
HETATM   10  C   UNL     1      -3.122  -1.656 -31.932  1.00  0.00     0.001 A 
HETATM   11  C   UNL     1      -3.820  -0.485 -31.619  1.00  0.00     0.014 A 
ENDROOT
BRANCH   1  12
HETATM   12  C   UNL     1      -5.333   2.062 -30.991  1.00  0.00     0.184 C 
BRANCH  12  13
HETATM   13  N   UNL     1      -4.674   3.140 -31.700  1.00  0.00    -0.355 N 
HETATM   14  C   UNL     1      -3.303   3.259 -31.694  1.00  0.00     0.222 C 
HETATM   15  O   UNL     1      -2.575   2.452 -31.118  1.00  0.00    -0.273 OA
HETATM   16  H   UNL     1      -5.248   3.938 -31.962  1.00  0.00     0.162 HD
BRANCH  14  17
HETATM   17  C   UNL     1      -2.766   4.425 -32.494  1.00  0.00     0.143 C 
BRANCH  17  18
HETATM   18  C   UNL     1      -2.376   5.650 -31.724  1.00  0.00    -0.021 A 
HETATM   19  C   UNL     1      -1.314   5.878 -30.782  1.00  0.00    -0.001 A 
HETATM   20  C   UNL     1      -1.407   7.211 -30.358  1.00  0.00     0.044 A 
HETATM   21  C   UNL     1      -0.273   5.090 -30.242  1.00  0.00     0.014 A 
HETATM   22  N   UNL     1      -2.468   7.775 -31.027  1.00  0.00    -0.360 N 
HETATM   23  C   UNL     1      -0.518   7.770 -29.423  1.00  0.00     0.030 A 
HETATM   24  C   UNL     1      -2.891   9.152 -30.902  1.00  0.00     0.155 C 
HETATM   25  C   UNL     1      -3.059   6.850 -31.838  1.00  0.00     0.099 A 
HETATM   26  C   UNL     1       0.493   6.960 -28.905  1.00  0.00     0.002 A 
HETATM   27  C   UNL     1       0.617   5.637 -29.309  1.00  0.00     0.001 A 
ENDBRANCH  17  18
ENDBRANCH  14  17
ENDBRANCH  12  13
ENDBRANCH   1  12
BRANCH   3  28
HETATM   28  C   UNL     1      -8.837   0.596 -33.974  1.00  0.00     0.114 C 
HETATM   29  C   UNL     1      -9.921   0.153 -32.992  1.00  0.00     0.027 C 
HETATM   30  C   UNL     1     -11.191   0.821 -33.510  1.00  0.00     0.002 C 
HETATM   31  C   UNL     1     -10.733   2.030 -34.328  1.00  0.00     0.002 C 
HETATM   32  C   UNL     1      -9.211   2.057 -34.231  1.00  0.00     0.027 C 
ENDBRANCH   3  28
TORSDOF 5
ENDMDL
MODEL 7
REMARK VINA RESULT:      -9.2      3.869      9.365
REMARK  5 active torsions:
REMARK  status: ('A' for Active; 'I' for Inactive)
REMARK    1  A    between atoms: C_9  and  C_10 
REMARK    2  A    between atoms: C_10  and  C_11 
REMARK       I    between atoms: C_11  and  N_12 
REMARK    3  A    between atoms: N_12  and  C_13 
REMARK    4  A    between atoms: C_13  and  C_14 
REMARK    5  A    between atoms: N_16  and  C_17 
ROOT
HETATM    1  C   UNL     1      -6.413   3.282 -33.223  1.00  0.00     0.084 A 
HETATM    2  N   UNL     1      -6.081   2.041 -33.437  1.00  0.00    -0.171 NA
HETATM    3  N   UNL     1      -6.704   1.039 -32.738  1.00  0.00    -0.229 N 
HETATM    4  C   UNL     1      -7.727   1.257 -31.815  1.00  0.00     0.275 A 
HETATM    5  O   UNL     1      -8.318   0.361 -31.216  1.00  0.00    -0.266 OA
HETATM    6  C   UNL     1      -8.111   2.659 -31.574  1.00  0.00     0.046 A 
HETATM    7  C   UNL     1      -7.482   3.680 -32.279  1.00  0.00     0.008 A 
HETATM    8  C   UNL     1      -9.128   2.952 -30.653  1.00  0.00     0.018 A 
HETATM    9  C   UNL     1      -9.518   4.272 -30.442  1.00  0.00     0.001 A 
HETATM   10  C   UNL     1      -8.901   5.297 -31.155  1.00  0.00     0.001 A 
HETATM   11  C   UNL     1      -7.888   5.005 -32.074  1.00  0.00     0.014 A 
ENDROOT
BRANCH   1  12
HETATM   12  C   UNL     1      -5.671   4.348 -34.029  1.00  0.00     0.184 C 
BRANCH  12  13
HETATM   13  N   UNL     1      -4.302   4.445 -33.567  1.00  0.00    -0.355 N 
HETATM   14  C   UNL     1      -3.343   5.086 -34.320  1.00  0.00     0.222 C 
HETATM   15  O   UNL     1      -3.603   5.625 -35.394  1.00  0.00    -0.273 OA
HETATM   16  H   UNL     1      -4.018   3.808 -32.828  1.00  0.00     0.162 HD
BRANCH  14  17
HETATM   17  C   UNL     1      -1.966   5.118 -33.695  1.00  0.00     0.143 C 
BRANCH  17  18
HETATM   18  C   UNL     1      -1.751   6.101 -32.585  1.00  0.00    -0.021 A 
HETATM   19  C   UNL     1      -0.934   6.031 -31.403  1.00  0.00    -0.001 A 
HETATM   20  C   UNL     1      -1.107   7.231 -30.700  1.00  0.00     0.044 A 
HETATM   21  C   UNL     1      -0.056   5.069 -30.853  1.00  0.00     0.014 A 
HETATM   22  N   UNL     1      -1.977   8.006 -31.431  1.00  0.00    -0.360 N 
HETATM   23  C   UNL     1      -0.453   7.495 -29.484  1.00  0.00     0.030 A 
HETATM   24  C   UNL     1      -2.401   9.341 -31.073  1.00  0.00     0.155 C 
HETATM   25  C   UNL     1      -2.375   7.338 -32.553  1.00  0.00     0.099 A 
HETATM   26  C   UNL     1       0.401   6.520 -28.967  1.00  0.00     0.002 A 
HETATM   27  C   UNL     1       0.599   5.322 -29.641  1.00  0.00     0.001 A 
ENDBRANCH  17  18
ENDBRANCH  14  17
ENDBRANCH  12  13
ENDBRANCH   1  12
BRANCH   3  28
HETATM   28  C   UNL     1      -6.378  -0.338 -33.099  1.00  0.00     0.114 C 
HETATM   29  C   UNL     1      -6.977  -0.745 -34.444  1.00  0.00     0.027 C 
HETATM   30  C   UNL     1      -6.231  -2.022 -34.816  1.00  0.00     0.002 C 
HETATM   31  C   UNL     1      -4.902  -1.975 -34.059  1.00  0.00     0.002 C 
HETATM   32  C   UNL     1      -4.894  -0.653 -33.298  1.00  0.00     0.027 C 
ENDBRANCH   3  28
TORSDOF 5
ENDMDL
MODEL 8
REMARK VINA RESULT:      -9.2      4.698      8.189
REMARK  5 active torsions:
REMARK  status: ('A' for Active; 'I' for Inactive)
REMARK    1  A    between atoms: C_9  and  C_10 
REMARK    2  A    between atoms: C_10  and  C_11 
REMARK       I    between atoms: C_11  and  N_12 
REMARK    3  A    between atoms: N_12  and  C_13 
REMARK    4  A    between atoms: C_13  and  C_14 
REMARK    5  A    between atoms: N_16  and  C_17 
ROOT
HETATM    1  C   UNL     1      -3.149   6.742 -30.249  1.00  0.00     0.084 A 
HETATM    2  N   UNL     1      -2.200   6.847 -29.364  1.00  0.00    -0.171 NA
HETATM    3  N   UNL     1      -0.986   6.251 -29.591  1.00  0.00    -0.229 N 
HETATM    4  C   UNL     1      -0.671   5.552 -30.757  1.00  0.00     0.275 A 
HETATM    5  O   UNL     1       0.428   5.052 -30.985  1.00  0.00    -0.266 OA
HETATM    6  C   UNL     1      -1.739   5.436 -31.765  1.00  0.00     0.046 A 
HETATM    7  C   UNL     1      -2.973   6.037 -31.540  1.00  0.00     0.008 A 
HETATM    8  C   UNL     1      -1.494   4.740 -32.958  1.00  0.00     0.018 A 
HETATM    9  C   UNL     1      -2.487   4.651 -33.931  1.00  0.00     0.001 A 
HETATM   10  C   UNL     1      -3.720   5.262 -33.716  1.00  0.00     0.001 A 
HETATM   11  C   UNL     1      -3.964   5.957 -32.527  1.00  0.00     0.014 A 
ENDROOT
BRANCH   1  12
HETATM   12  C   UNL     1      -4.480   7.422 -29.927  1.00  0.00     0.184 C 
BRANCH  12  13
HETATM   13  N   UNL     1      -5.554   6.453 -30.006  1.00  0.00    -0.355 N 
HETATM   14  C   UNL     1      -5.913   5.702 -28.909  1.00  0.00     0.222 C 
HETATM   15  O   UNL     1      -5.366   5.833 -27.815  1.00  0.00    -0.273 OA
HETATM   16  H   UNL     1      -5.841   6.156 -30.935  1.00  0.00     0.162 HD
BRANCH  14  17
HETATM   17  C   UNL     1      -7.063   4.749 -29.144  1.00  0.00     0.143 C 
BRANCH  17  18
HETATM   18  C   UNL     1      -7.005   3.914 -30.388  1.00  0.00    -0.021 A 
HETATM   19  C   UNL     1      -5.930   3.158 -30.971  1.00  0.00    -0.001 A 
HETATM   20  C   UNL     1      -6.420   2.565 -32.143  1.00  0.00     0.044 A 
HETATM   21  C   UNL     1      -4.583   2.908 -30.624  1.00  0.00     0.014 A 
HETATM   22  N   UNL     1      -7.741   2.928 -32.258  1.00  0.00    -0.360 N 
HETATM   23  C   UNL     1      -5.623   1.754 -32.969  1.00  0.00     0.030 A 
HETATM   24  C   UNL     1      -8.631   2.503 -33.315  1.00  0.00     0.155 C 
HETATM   25  C   UNL     1      -8.098   3.741 -31.221  1.00  0.00     0.099 A 
HETATM   26  C   UNL     1      -4.295   1.536 -32.600  1.00  0.00     0.002 A 
HETATM   27  C   UNL     1      -3.780   2.103 -31.442  1.00  0.00     0.001 A 
ENDBRANCH  17  18
ENDBRANCH  14  17
ENDBRANCH  12  13
ENDBRANCH   1  12
BRANCH   3  28
HETATM   28  C   UNL     1       0.078   6.497 -28.621  1.00  0.00     0.114 C 
HETATM   29  C   UNL     1       0.710   7.879 -28.790  1.00  0.00     0.027 C 
HETATM   30  C   UNL     1       1.490   8.093 -27.497  1.00  0.00     0.002 C 
HETATM   31  C   UNL     1       0.832   7.194 -26.448  1.00  0.00     0.002 C 
HETATM   32  C   UNL     1      -0.337   6.510 -27.149  1.00  0.00     0.027 C 
ENDBRANCH   3  28
TORSDOF 5
ENDMDL
MODEL 9
REMARK VINA RESULT:      -9.1     14.805     16.563
REMARK  5 active torsions:
REMARK  status: ('A' for Active; 'I' for Inactive)
REMARK    1  A    between atoms: C_9  and  C_10 
REMARK    2  A    between atoms: C_10  and  C_11 
REMARK       I    between atoms: C_11  and  N_12 
REMARK    3  A    between atoms: N_12  and  C_13 
REMARK    4  A    between atoms: C_13  and  C_14 
REMARK    5  A    between atoms: N_16  and  C_17 
ROOT
HETATM    1  C   UNL     1      -2.879 -13.184 -37.436  1.00  0.00     0.084 A 
HETATM    2  N   UNL     1      -3.796 -13.473 -36.558  1.00  0.00    -0.171 NA
HETATM    3  N   UNL     1      -3.626 -14.547 -35.723  1.00  0.00    -0.229 N 
HETATM    4  C   UNL     1      -2.488 -15.354 -35.718  1.00  0.00     0.275 A 
HETATM    5  O   UNL     1      -2.311 -16.292 -34.943  1.00  0.00    -0.266 OA
HETATM    6  C   UNL     1      -1.444 -15.028 -36.705  1.00  0.00     0.046 A 
HETATM    7  C   UNL     1      -1.611 -13.940 -37.556  1.00  0.00     0.008 A 
HETATM    8  C   UNL     1      -0.276 -15.802 -36.761  1.00  0.00     0.018 A 
HETATM    9  C   UNL     1       0.730 -15.482 -37.670  1.00  0.00     0.001 A 
HETATM   10  C   UNL     1       0.574 -14.387 -38.515  1.00  0.00     0.001 A 
HETATM   11  C   UNL     1      -0.590 -13.614 -38.459  1.00  0.00     0.014 A 
ENDROOT
BRANCH   1  12
HETATM   12  C   UNL     1      -3.137 -11.981 -38.343  1.00  0.00     0.184 C 
BRANCH  12  13
HETATM   13  N   UNL     1      -3.814 -12.414 -39.548  1.00  0.00    -0.355 N 
HETATM   14  C   UNL     1      -5.185 -12.343 -39.656  1.00  0.00     0.222 C 
HETATM   15  O   UNL     1      -5.892 -11.890 -38.759  1.00  0.00    -0.273 OA
HETATM   16  H   UNL     1      -3.289 -13.009 -40.184  1.00  0.00     0.162 HD
BRANCH  14  17
HETATM   17  C   UNL     1      -5.740 -12.815 -40.981  1.00  0.00     0.143 C 
BRANCH  17  18
HETATM   18  C   UNL     1      -6.978 -13.658 -40.934  1.00  0.00    -0.021 A 
HETATM   19  C   UNL     1      -8.347 -13.314 -40.657  1.00  0.00    -0.001 A 
HETATM   20  C   UNL     1      -9.102 -14.492 -40.741  1.00  0.00     0.044 A 
HETATM   21  C   UNL     1      -9.031 -12.118 -40.344  1.00  0.00     0.014 A 
HETATM   22  N   UNL     1      -8.233 -15.506 -41.074  1.00  0.00    -0.360 N 
HETATM   23  C   UNL     1     -10.489 -14.518 -40.520  1.00  0.00     0.030 A 
HETATM   24  C   UNL     1      -8.610 -16.885 -41.292  1.00  0.00     0.155 C 
HETATM   25  C   UNL     1      -6.962 -15.021 -41.182  1.00  0.00     0.099 A 
HETATM   26  C   UNL     1     -11.131 -13.319 -40.205  1.00  0.00     0.002 A 
HETATM   27  C   UNL     1     -10.414 -12.133 -40.120  1.00  0.00     0.001 A 
ENDBRANCH  17  18
ENDBRANCH  14  17
ENDBRANCH  12  13
ENDBRANCH   1  12
BRANCH   3  28
HETATM   28  C   UNL     1      -4.629 -14.756 -34.681  1.00  0.00     0.114 C 
HETATM   29  C   UNL     1      -5.290 -13.450 -34.240  1.00  0.00     0.027 C 
HETATM   30  C   UNL     1      -6.527 -13.900 -33.470  1.00  0.00     0.002 C 
HETATM   31  C   UNL     1      -6.863 -15.301 -33.983  1.00  0.00     0.002 C 
HETATM   32  C   UNL     1      -5.835 -15.614 -35.065  1.00  0.00     0.027 C 
ENDBRANCH   3  28
TORSDOF 5
ENDMDL
MODEL 10
REMARK VINA RESULT:      -9.0     14.799     17.089
REMARK  5 active torsions:
REMARK  status: ('A' for Active; 'I' for Inactive)
REMARK    1  A    between atoms: C_9  and  C_10 
REMARK    2  A    between atoms: C_10  and  C_11 
REMARK       I    between atoms: C_11  and  N_12 
REMARK    3  A    between atoms: N_12  and  C_13 
REMARK    4  A    between atoms: C_13  and  C_14 
REMARK    5  A    between atoms: N_16  and  C_17 
ROOT
HETATM    1  C   UNL     1      -3.363 -13.347 -38.717  1.00  0.00     0.084 A 
HETATM    2  N   UNL     1      -2.233 -13.951 -38.483  1.00  0.00    -0.171 NA
HETATM    3  N   UNL     1      -1.714 -14.811 -39.417  1.00  0.00    -0.229 N 
HETATM    4  C   UNL     1      -2.307 -15.063 -40.655  1.00  0.00     0.275 A 
HETATM    5  O   UNL     1      -1.826 -15.799 -41.513  1.00  0.00    -0.266 OA
HETATM    6  C   UNL     1      -3.582 -14.376 -40.927  1.00  0.00     0.046 A 
HETATM    7  C   UNL     1      -4.115 -13.504 -39.983  1.00  0.00     0.008 A 
HETATM    8  C   UNL     1      -4.238 -14.590 -42.148  1.00  0.00     0.018 A 
HETATM    9  C   UNL     1      -5.428 -13.922 -42.427  1.00  0.00     0.001 A 
HETATM   10  C   UNL     1      -5.958 -13.038 -41.491  1.00  0.00     0.001 A 
HETATM   11  C   UNL     1      -5.305 -12.824 -40.273  1.00  0.00     0.014 A 
ENDROOT
BRANCH   1  12
HETATM   12  C   UNL     1      -3.889 -12.410 -37.629  1.00  0.00     0.184 C 
BRANCH  12  13
HETATM   13  N   UNL     1      -5.256 -12.762 -37.301  1.00  0.00    -0.355 N 
HETATM   14  C   UNL     1      -5.534 -13.681 -36.315  1.00  0.00     0.222 C 
HETATM   15  O   UNL     1      -4.651 -14.222 -35.653  1.00  0.00    -0.273 OA
HETATM   16  H   UNL     1      -5.969 -12.526 -37.985  1.00  0.00     0.162 HD
BRANCH  14  17
HETATM   17  C   UNL     1      -7.007 -13.928 -36.079  1.00  0.00     0.143 C 
BRANCH  17  18
HETATM   18  C   UNL     1      -7.799 -14.453 -37.238  1.00  0.00    -0.021 A 
HETATM   19  C   UNL     1      -8.461 -13.772 -38.317  1.00  0.00    -0.001 A 
HETATM   20  C   UNL     1      -9.057 -14.749 -39.128  1.00  0.00     0.044 A 
HETATM   21  C   UNL     1      -8.617 -12.421 -38.699  1.00  0.00     0.014 A 
HETATM   22  N   UNL     1      -8.755 -15.972 -38.575  1.00  0.00    -0.360 N 
HETATM   23  C   UNL     1      -9.797 -14.427 -40.278  1.00  0.00     0.030 A 
HETATM   24  C   UNL     1      -9.153 -17.251 -39.120  1.00  0.00     0.155 C 
HETATM   25  C   UNL     1      -8.012 -15.807 -37.442  1.00  0.00     0.099 A 
HETATM   26  C   UNL     1      -9.937 -13.081 -40.620  1.00  0.00     0.002 A 
HETATM   27  C   UNL     1      -9.354 -12.089 -39.843  1.00  0.00     0.001 A 
ENDBRANCH  17  18
ENDBRANCH  14  17
ENDBRANCH  12  13
ENDBRANCH   1  12
BRANCH   3  28
HETATM   28  C   UNL     1      -0.390 -15.370 -39.156  1.00  0.00     0.114 C 
HETATM   29  C   UNL     1       0.695 -14.295 -39.100  1.00  0.00     0.027 C 
HETATM   30  C   UNL     1       1.884 -14.998 -38.454  1.00  0.00     0.002 C 
HETATM   31  C   UNL     1       1.305 -16.163 -37.648  1.00  0.00     0.002 C 
HETATM   32  C   UNL     1      -0.209 -16.082 -37.815  1.00  0.00     0.027 C 
ENDBRANCH   3  28
TORSDOF 5
ENDMDL
