MODEL 1
REMARK VINA RESULT:      -8.3      0.000      0.000
REMARK  5 active torsions:
REMARK  status: ('A' for Active; 'I' for Inactive)
REMARK    1  A    between atoms: C_7  and  C_8 
REMARK    2  A    between atoms: N_9  and  N_10 
REMARK       I    between atoms: N_10  and  C_11 
REMARK    3  A    between atoms: C_11  and  C_12 
REMARK    4  A    between atoms: C_12  and  N_13 
REMARK    5  A    between atoms: N_13  and  C_14 
ROOT
HETATM    1  N   UNL     1      -4.047   0.902 -32.684  1.00  0.00    -0.246 N 
HETATM    2  C   UNL     1      -3.242   0.076 -31.886  1.00  0.00     0.250 C 
HETATM    3  O   UNL     1      -2.596   0.449 -30.908  1.00  0.00    -0.270 OA
HETATM    4  H   UNL     1      -4.034   0.700 -33.678  1.00  0.00     0.192 HD
ENDROOT
BRANCH   1   5
HETATM    5  N   UNL     1      -4.184   2.237 -32.404  1.00  0.00    -0.184 NA
HETATM    6  C   UNL     1      -5.306   2.649 -31.881  1.00  0.00     0.153 C 
BRANCH   6   7
HETATM    7  C   UNL     1      -6.543   1.893 -31.752  1.00  0.00     0.018 A 
HETATM    8  C   UNL     1      -6.801   1.017 -30.706  1.00  0.00     0.018 A 
HETATM    9  C   UNL     1      -5.967   0.627 -29.539  1.00  0.00     0.069 C 
HETATM   10  N   UNL     1      -8.024   0.441 -30.935  1.00  0.00    -0.358 N 
HETATM   11  H   UNL     1      -8.451  -0.269 -30.356  1.00  0.00     0.166 HD
HETATM   12  C   UNL     1      -8.605   0.969 -32.062  1.00  0.00     0.043 A 
HETATM   13  C   UNL     1      -7.716   1.910 -32.581  1.00  0.00     0.004 A 
HETATM   14  C   UNL     1      -9.845   0.687 -32.650  1.00  0.00     0.030 A 
HETATM   15  C   UNL     1      -8.117   2.640 -33.723  1.00  0.00     0.014 A 
HETATM   16  C   UNL     1      -9.352   2.372 -34.324  1.00  0.00     0.001 A 
HETATM   17  C   UNL     1     -10.199   1.402 -33.796  1.00  0.00     0.002 A 
ENDBRANCH   6   7
ENDBRANCH   1   5
BRANCH   2  18
HETATM   18  C   UNL     1      -3.262  -1.375 -32.385  1.00  0.00     0.197 C 
BRANCH  18  19
HETATM   19  N   UNL     1      -3.760  -1.474 -33.759  1.00  0.00    -0.283 NA
HETATM   20  H   UNL     1      -4.115  -0.581 -34.110  1.00  0.00     0.128 HD
BRANCH  19  21
HETATM   21  C   UNL     1      -4.596  -2.556 -34.081  1.00  0.00     0.030 A 
HETATM   22  C   UNL     1      -5.912  -2.347 -34.542  1.00  0.00     0.055 A 
HETATM   23 CL   UNL     1      -6.574  -0.750 -34.629  1.00  0.00    -0.082 Cl
HETATM   24  C   UNL     1      -6.732  -3.419 -34.912  1.00  0.00     0.026 A 
HETATM   25  C   UNL     1      -6.246  -4.722 -34.851  1.00  0.00     0.002 A 
HETATM   26  C   UNL     1      -4.938  -4.950 -34.428  1.00  0.00     0.002 A 
HETATM   27  C   UNL     1      -4.122  -3.877 -34.056  1.00  0.00     0.025 A 
ENDBRANCH  19  21
ENDBRANCH  18  19
ENDBRANCH   2  18
TORSDOF 5
ENDMDL
MODEL 2
REMARK VINA RESULT:      -8.3      1.112      1.862
REMARK  5 active torsions:
REMARK  status: ('A' for Active; 'I' for Inactive)
REMARK    1  A    between atoms: C_7  and  C_8 
REMARK    2  A    between atoms: N_9  and  N_10 
REMARK       I    between atoms: N_10  and  C_11 
REMARK    3  A    between atoms: C_11  and  C_12 
REMARK    4  A    between atoms: C_12  and  N_13 
REMARK    5  A    between atoms: N_13  and  C_14 
ROOT
HETATM    1  N   UNL     1      -4.873  -0.106 -31.089  1.00  0.00    -0.246 N 
HETATM    2  C   UNL     1      -3.529  -0.072 -31.488  1.00  0.00     0.250 C 
HETATM    3  O   UNL     1      -2.654   0.617 -30.967  1.00  0.00    -0.270 OA
HETATM    4  H   UNL     1      -5.553  -0.183 -31.838  1.00  0.00     0.192 HD
ENDROOT
BRANCH   1   5
HETATM    5  N   UNL     1      -5.315   0.650 -30.034  1.00  0.00    -0.184 NA
HETATM    6  C   UNL     1      -6.287   1.495 -30.239  1.00  0.00     0.153 C 
BRANCH   6   7
HETATM    7  C   UNL     1      -6.833   1.907 -31.525  1.00  0.00     0.018 A 
HETATM    8  C   UNL     1      -6.231   2.849 -32.348  1.00  0.00     0.018 A 
HETATM    9  C   UNL     1      -4.986   3.640 -32.168  1.00  0.00     0.069 C 
HETATM   10  N   UNL     1      -7.043   3.031 -33.438  1.00  0.00    -0.358 N 
HETATM   11  H   UNL     1      -6.875   3.691 -34.186  1.00  0.00     0.166 HD
HETATM   12  C   UNL     1      -8.122   2.182 -33.386  1.00  0.00     0.043 A 
HETATM   13  C   UNL     1      -8.003   1.437 -32.214  1.00  0.00     0.004 A 
HETATM   14  C   UNL     1      -9.181   2.020 -34.288  1.00  0.00     0.030 A 
HETATM   15  C   UNL     1      -8.974   0.442 -31.960  1.00  0.00     0.014 A 
HETATM   16  C   UNL     1     -10.040   0.265 -32.850  1.00  0.00     0.001 A 
HETATM   17  C   UNL     1     -10.143   1.051 -33.994  1.00  0.00     0.002 A 
ENDBRANCH   6   7
ENDBRANCH   1   5
BRANCH   2  18
HETATM   18  C   UNL     1      -3.274  -1.013 -32.674  1.00  0.00     0.197 C 
BRANCH  18  19
HETATM   19  N   UNL     1      -4.407  -1.040 -33.604  1.00  0.00    -0.283 NA
HETATM   20  H   UNL     1      -5.144  -0.381 -33.339  1.00  0.00     0.128 HD
BRANCH  19  21
HETATM   21  C   UNL     1      -4.910  -2.292 -33.993  1.00  0.00     0.030 A 
HETATM   22  C   UNL     1      -6.165  -2.407 -34.625  1.00  0.00     0.055 A 
HETATM   23 CL   UNL     1      -7.171  -1.016 -34.851  1.00  0.00    -0.082 Cl
HETATM   24  C   UNL     1      -6.650  -3.646 -35.059  1.00  0.00     0.026 A 
HETATM   25  C   UNL     1      -5.879  -4.793 -34.892  1.00  0.00     0.002 A 
HETATM   26  C   UNL     1      -4.623  -4.699 -34.298  1.00  0.00     0.002 A 
HETATM   27  C   UNL     1      -4.143  -3.460 -33.862  1.00  0.00     0.025 A 
ENDBRANCH  19  21
ENDBRANCH  18  19
ENDBRANCH   2  18
TORSDOF 5
ENDMDL
MODEL 3
REMARK VINA RESULT:      -7.9      2.011      5.648
REMARK  5 active torsions:
REMARK  status: ('A' for Active; 'I' for Inactive)
REMARK    1  A    between atoms: C_7  and  C_8 
REMARK    2  A    between atoms: N_9  and  N_10 
REMARK       I    between atoms: N_10  and  C_11 
REMARK    3  A    between atoms: C_11  and  C_12 
REMARK    4  A    between atoms: C_12  and  N_13 
REMARK    5  A    between atoms: N_13  and  C_14 
ROOT
HETATM    1  N   UNL     1      -4.928   0.370 -31.207  1.00  0.00    -0.246 N 
HETATM    2  C   UNL     1      -5.367   1.568 -30.625  1.00  0.00     0.250 C 
HETATM    3  O   UNL     1      -4.765   2.639 -30.671  1.00  0.00    -0.270 OA
HETATM    4  H   UNL     1      -5.113  -0.472 -30.673  1.00  0.00     0.192 HD
ENDROOT
BRANCH   1   5
HETATM    5  N   UNL     1      -3.753   0.317 -31.912  1.00  0.00    -0.184 NA
HETATM    6  C   UNL     1      -3.777  -0.167 -33.123  1.00  0.00     0.153 C 
BRANCH   6   7
HETATM    7  C   UNL     1      -4.877  -0.874 -33.763  1.00  0.00     0.018 A 
HETATM    8  C   UNL     1      -6.013  -0.244 -34.253  1.00  0.00     0.018 A 
HETATM    9  C   UNL     1      -6.402   1.191 -34.255  1.00  0.00     0.069 C 
HETATM   10  N   UNL     1      -6.856  -1.214 -34.730  1.00  0.00    -0.358 N 
HETATM   11  H   UNL     1      -7.778  -1.048 -35.111  1.00  0.00     0.166 HD
HETATM   12  C   UNL     1      -6.274  -2.454 -34.633  1.00  0.00     0.043 A 
HETATM   13  C   UNL     1      -5.015  -2.273 -34.061  1.00  0.00     0.004 A 
HETATM   14  C   UNL     1      -6.765  -3.710 -35.011  1.00  0.00     0.030 A 
HETATM   15  C   UNL     1      -4.188  -3.409 -33.907  1.00  0.00     0.014 A 
HETATM   16  C   UNL     1      -4.662  -4.672 -34.280  1.00  0.00     0.001 A 
HETATM   17  C   UNL     1      -5.937  -4.818 -34.817  1.00  0.00     0.002 A 
ENDBRANCH   6   7
ENDBRANCH   1   5
BRANCH   2  18
HETATM   18  C   UNL     1      -6.712   1.382 -29.909  1.00  0.00     0.197 C 
BRANCH  18  19
HETATM   19  N   UNL     1      -7.730   2.309 -30.410  1.00  0.00    -0.283 NA
HETATM   20  H   UNL     1      -8.176   2.842 -29.658  1.00  0.00     0.128 HD
BRANCH  19  21
HETATM   21  C   UNL     1      -8.652   1.827 -31.354  1.00  0.00     0.030 A 
HETATM   22  C   UNL     1      -9.447   2.712 -32.112  1.00  0.00     0.055 A 
HETATM   23 CL   UNL     1      -9.385   4.418 -31.828  1.00  0.00    -0.082 Cl
HETATM   24  C   UNL     1     -10.331   2.241 -33.089  1.00  0.00     0.026 A 
HETATM   25  C   UNL     1     -10.421   0.875 -33.347  1.00  0.00     0.002 A 
HETATM   26  C   UNL     1      -9.622  -0.015 -32.633  1.00  0.00     0.002 A 
HETATM   27  C   UNL     1      -8.742   0.459 -31.655  1.00  0.00     0.025 A 
ENDBRANCH  19  21
ENDBRANCH  18  19
ENDBRANCH   2  18
TORSDOF 5
ENDMDL
MODEL 4
REMARK VINA RESULT:      -7.9      2.252      3.991
REMARK  5 active torsions:
REMARK  status: ('A' for Active; 'I' for Inactive)
REMARK    1  A    between atoms: C_7  and  C_8 
REMARK    2  A    between atoms: N_9  and  N_10 
REMARK       I    between atoms: N_10  and  C_11 
REMARK    3  A    between atoms: C_11  and  C_12 
REMARK    4  A    between atoms: C_12  and  N_13 
REMARK    5  A    between atoms: N_13  and  C_14 
ROOT
HETATM    1  N   UNL     1      -4.707   1.044 -31.634  1.00  0.00    -0.246 N 
HETATM    2  C   UNL     1      -3.444   0.447 -31.748  1.00  0.00     0.250 C 
HETATM    3  O   UNL     1      -2.501   0.635 -30.981  1.00  0.00    -0.270 OA
HETATM    4  H   UNL     1      -5.151   1.306 -32.508  1.00  0.00     0.192 HD
ENDROOT
BRANCH   1   5
HETATM    5  N   UNL     1      -4.991   1.905 -30.605  1.00  0.00    -0.184 NA
HETATM    6  C   UNL     1      -5.338   3.129 -30.896  1.00  0.00     0.153 C 
BRANCH   6   7
HETATM    7  C   UNL     1      -5.252   3.777 -32.197  1.00  0.00     0.018 A 
HETATM    8  C   UNL     1      -6.362   4.119 -32.958  1.00  0.00     0.018 A 
HETATM    9  C   UNL     1      -7.813   3.929 -32.697  1.00  0.00     0.069 C 
HETATM   10  N   UNL     1      -5.911   4.653 -34.138  1.00  0.00    -0.358 N 
HETATM   11  H   UNL     1      -6.500   4.954 -34.904  1.00  0.00     0.166 HD
HETATM   12  C   UNL     1      -4.540   4.737 -34.140  1.00  0.00     0.043 A 
HETATM   13  C   UNL     1      -4.096   4.227 -32.920  1.00  0.00     0.004 A 
HETATM   14  C   UNL     1      -3.672   5.228 -35.123  1.00  0.00     0.030 A 
HETATM   15  C   UNL     1      -2.708   4.259 -32.657  1.00  0.00     0.014 A 
HETATM   16  C   UNL     1      -1.824   4.746 -33.627  1.00  0.00     0.001 A 
HETATM   17  C   UNL     1      -2.303   5.217 -34.846  1.00  0.00     0.002 A 
ENDBRANCH   6   7
ENDBRANCH   1   5
BRANCH   2  18
HETATM   18  C   UNL     1      -3.375  -0.488 -32.963  1.00  0.00     0.197 C 
BRANCH  18  19
HETATM   19  N   UNL     1      -4.683  -0.649 -33.603  1.00  0.00    -0.283 NA
HETATM   20  H   UNL     1      -5.420  -0.125 -33.123  1.00  0.00     0.128 HD
BRANCH  19  21
HETATM   21  C   UNL     1      -5.086  -1.946 -33.963  1.00  0.00     0.030 A 
HETATM   22  C   UNL     1      -6.340  -2.178 -34.565  1.00  0.00     0.055 A 
HETATM   23 CL   UNL     1      -7.466  -0.883 -34.787  1.00  0.00    -0.082 Cl
HETATM   24  C   UNL     1      -6.725  -3.461 -34.971  1.00  0.00     0.026 A 
HETATM   25  C   UNL     1      -5.855  -4.535 -34.805  1.00  0.00     0.002 A 
HETATM   26  C   UNL     1      -4.599  -4.324 -34.241  1.00  0.00     0.002 A 
HETATM   27  C   UNL     1      -4.218  -3.042 -33.834  1.00  0.00     0.025 A 
ENDBRANCH  19  21
ENDBRANCH  18  19
ENDBRANCH   2  18
TORSDOF 5
ENDMDL
MODEL 5
REMARK VINA RESULT:      -7.8      2.638      4.410
REMARK  5 active torsions:
REMARK  status: ('A' for Active; 'I' for Inactive)
REMARK    1  A    between atoms: C_7  and  C_8 
REMARK    2  A    between atoms: N_9  and  N_10 
REMARK       I    between atoms: N_10  and  C_11 
REMARK    3  A    between atoms: C_11  and  C_12 
REMARK    4  A    between atoms: C_12  and  N_13 
REMARK    5  A    between atoms: N_13  and  C_14 
ROOT
HETATM    1  N   UNL     1      -5.615   1.429 -33.185  1.00  0.00    -0.246 N 
HETATM    2  C   UNL     1      -5.722   0.457 -32.180  1.00  0.00     0.250 C 
HETATM    3  O   UNL     1      -6.589   0.434 -31.309  1.00  0.00    -0.270 OA
HETATM    4  H   UNL     1      -4.670   1.706 -33.430  1.00  0.00     0.192 HD
ENDROOT
BRANCH   1   5
HETATM    5  N   UNL     1      -6.519   2.455 -33.274  1.00  0.00    -0.184 NA
HETATM    6  C   UNL     1      -6.108   3.669 -33.031  1.00  0.00     0.153 C 
BRANCH   6   7
HETATM    7  C   UNL     1      -4.830   4.062 -32.453  1.00  0.00     0.018 A 
HETATM    8  C   UNL     1      -4.540   3.967 -31.099  1.00  0.00     0.018 A 
HETATM    9  C   UNL     1      -5.369   3.496 -29.959  1.00  0.00     0.069 C 
HETATM   10  N   UNL     1      -3.281   4.475 -30.905  1.00  0.00    -0.358 N 
HETATM   11  H   UNL     1      -2.823   4.570 -30.009  1.00  0.00     0.166 HD
HETATM   12  C   UNL     1      -2.712   4.832 -32.104  1.00  0.00     0.043 A 
HETATM   13  C   UNL     1      -3.646   4.553 -33.101  1.00  0.00     0.004 A 
HETATM   14  C   UNL     1      -1.448   5.372 -32.373  1.00  0.00     0.030 A 
HETATM   15  C   UNL     1      -3.269   4.783 -34.443  1.00  0.00     0.014 A 
HETATM   16  C   UNL     1      -2.010   5.322 -34.732  1.00  0.00     0.001 A 
HETATM   17  C   UNL     1      -1.116   5.618 -33.707  1.00  0.00     0.002 A 
ENDBRANCH   6   7
ENDBRANCH   1   5
BRANCH   2  18
HETATM   18  C   UNL     1      -4.610  -0.595 -32.299  1.00  0.00     0.197 C 
BRANCH  18  19
HETATM   19  N   UNL     1      -4.427  -1.043 -33.681  1.00  0.00    -0.283 NA
HETATM   20  H   UNL     1      -4.693  -0.327 -34.362  1.00  0.00     0.128 HD
BRANCH  19  21
HETATM   21  C   UNL     1      -4.895  -2.322 -34.027  1.00  0.00     0.030 A 
HETATM   22  C   UNL     1      -6.142  -2.494 -34.662  1.00  0.00     0.055 A 
HETATM   23 CL   UNL     1      -7.182  -1.140 -34.945  1.00  0.00    -0.082 Cl
HETATM   24  C   UNL     1      -6.591  -3.760 -35.053  1.00  0.00     0.026 A 
HETATM   25  C   UNL     1      -5.791  -4.880 -34.838  1.00  0.00     0.002 A 
HETATM   26  C   UNL     1      -4.542  -4.730 -34.241  1.00  0.00     0.002 A 
HETATM   27  C   UNL     1      -4.098  -3.464 -33.848  1.00  0.00     0.025 A 
ENDBRANCH  19  21
ENDBRANCH  18  19
ENDBRANCH   2  18
TORSDOF 5
ENDMDL
MODEL 6
REMARK VINA RESULT:      -7.7      3.316      6.283
REMARK  5 active torsions:
REMARK  status: ('A' for Active; 'I' for Inactive)
REMARK    1  A    between atoms: C_7  and  C_8 
REMARK    2  A    between atoms: N_9  and  N_10 
REMARK       I    between atoms: N_10  and  C_11 
REMARK    3  A    between atoms: C_11  and  C_12 
REMARK    4  A    between atoms: C_12  and  N_13 
REMARK    5  A    between atoms: N_13  and  C_14 
ROOT
HETATM    1  N   UNL     1      -8.139   4.410 -33.643  1.00  0.00    -0.246 N 
HETATM    2  C   UNL     1      -9.327   4.845 -34.250  1.00  0.00     0.250 C 
HETATM    3  O   UNL     1      -9.390   5.604 -35.215  1.00  0.00    -0.270 OA
HETATM    4  H   UNL     1      -8.168   4.324 -32.632  1.00  0.00     0.192 HD
ENDROOT
BRANCH   1   5
HETATM    5  N   UNL     1      -6.916   4.808 -34.118  1.00  0.00    -0.184 NA
HETATM    6  C   UNL     1      -5.935   3.949 -34.102  1.00  0.00     0.153 C 
BRANCH   6   7
HETATM    7  C   UNL     1      -5.910   2.658 -33.430  1.00  0.00     0.018 A 
HETATM    8  C   UNL     1      -5.430   2.473 -32.141  1.00  0.00     0.018 A 
HETATM    9  C   UNL     1      -4.848   3.441 -31.174  1.00  0.00     0.069 C 
HETATM   10  N   UNL     1      -5.504   1.134 -31.855  1.00  0.00    -0.358 N 
HETATM   11  H   UNL     1      -5.184   0.703 -30.998  1.00  0.00     0.166 HD
HETATM   12  C   UNL     1      -6.087   0.448 -32.893  1.00  0.00     0.043 A 
HETATM   13  C   UNL     1      -6.386   1.381 -33.885  1.00  0.00     0.004 A 
HETATM   14  C   UNL     1      -6.371  -0.917 -33.019  1.00  0.00     0.030 A 
HETATM   15  C   UNL     1      -7.051   0.923 -35.045  1.00  0.00     0.014 A 
HETATM   16  C   UNL     1      -7.344  -0.438 -35.189  1.00  0.00     0.001 A 
HETATM   17  C   UNL     1      -7.000  -1.345 -34.191  1.00  0.00     0.002 A 
ENDBRANCH   6   7
ENDBRANCH   1   5
BRANCH   2  18
HETATM   18  C   UNL     1     -10.560   4.252 -33.554  1.00  0.00     0.197 C 
BRANCH  18  19
HETATM   19  N   UNL     1     -10.426   2.809 -33.341  1.00  0.00    -0.283 NA
HETATM   20  H   UNL     1      -9.548   2.439 -33.715  1.00  0.00     0.128 HD
BRANCH  19  21
HETATM   21  C   UNL     1     -11.530   1.994 -33.642  1.00  0.00     0.030 A 
HETATM   22  C   UNL     1     -11.509   0.610 -33.368  1.00  0.00     0.055 A 
HETATM   23 CL   UNL     1     -10.081  -0.145 -32.746  1.00  0.00    -0.082 Cl
HETATM   24  C   UNL     1     -12.624  -0.198 -33.619  1.00  0.00     0.026 A 
HETATM   25  C   UNL     1     -13.792   0.365 -34.127  1.00  0.00     0.002 A 
HETATM   26  C   UNL     1     -13.846   1.734 -34.376  1.00  0.00     0.002 A 
HETATM   27  C   UNL     1     -12.729   2.538 -34.127  1.00  0.00     0.025 A 
ENDBRANCH  19  21
ENDBRANCH  18  19
ENDBRANCH   2  18
TORSDOF 5
ENDMDL
MODEL 7
REMARK VINA RESULT:      -7.6      3.458      6.781
REMARK  5 active torsions:
REMARK  status: ('A' for Active; 'I' for Inactive)
REMARK    1  A    between atoms: C_7  and  C_8 
REMARK    2  A    between atoms: N_9  and  N_10 
REMARK       I    between atoms: N_10  and  C_11 
REMARK    3  A    between atoms: C_11  and  C_12 
REMARK    4  A    between atoms: C_12  and  N_13 
REMARK    5  A    between atoms: N_13  and  C_14 
ROOT
HETATM    1  N   UNL     1      -5.178   2.368 -30.772  1.00  0.00    -0.246 N 
HETATM    2  C   UNL     1      -3.866   2.273 -31.255  1.00  0.00     0.250 C 
HETATM    3  O   UNL     1      -3.017   1.483 -30.846  1.00  0.00    -0.270 OA
HETATM    4  H   UNL     1      -5.558   3.308 -30.710  1.00  0.00     0.192 HD
ENDROOT
BRANCH   1   5
HETATM    5  N   UNL     1      -5.626   1.539 -29.776  1.00  0.00    -0.184 NA
HETATM    6  C   UNL     1      -6.148   0.391 -30.112  1.00  0.00     0.153 C 
BRANCH   6   7
HETATM    7  C   UNL     1      -6.524  -0.042 -31.450  1.00  0.00     0.018 A 
HETATM    8  C   UNL     1      -7.708   0.329 -32.072  1.00  0.00     0.018 A 
HETATM    9  C   UNL     1      -8.829   1.181 -31.597  1.00  0.00     0.069 C 
HETATM   10  N   UNL     1      -7.757  -0.304 -33.288  1.00  0.00    -0.358 N 
HETATM   11  H   UNL     1      -8.527  -0.251 -33.941  1.00  0.00     0.166 HD
HETATM   12  C   UNL     1      -6.607  -1.022 -33.508  1.00  0.00     0.043 A 
HETATM   13  C   UNL     1      -5.795  -0.850 -32.387  1.00  0.00     0.004 A 
HETATM   14  C   UNL     1      -6.230  -1.798 -34.611  1.00  0.00     0.030 A 
HETATM   15  C   UNL     1      -4.516  -1.452 -32.399  1.00  0.00     0.014 A 
HETATM   16  C   UNL     1      -4.121  -2.231 -33.493  1.00  0.00     0.001 A 
HETATM   17  C   UNL     1      -4.972  -2.406 -34.580  1.00  0.00     0.002 A 
ENDBRANCH   6   7
ENDBRANCH   1   5
BRANCH   2  18
HETATM   18  C   UNL     1      -3.608   3.290 -32.376  1.00  0.00     0.197 C 
BRANCH  18  19
HETATM   19  N   UNL     1      -2.207   3.716 -32.416  1.00  0.00    -0.283 NA
HETATM   20  H   UNL     1      -1.603   3.125 -31.839  1.00  0.00     0.128 HD
BRANCH  19  21
HETATM   21  C   UNL     1      -1.930   5.085 -32.268  1.00  0.00     0.030 A 
HETATM   22  C   UNL     1      -1.656   5.898 -33.387  1.00  0.00     0.055 A 
HETATM   23 CL   UNL     1      -1.551   5.211 -34.972  1.00  0.00    -0.082 Cl
HETATM   24  C   UNL     1      -1.428   7.272 -33.250  1.00  0.00     0.026 A 
HETATM   25  C   UNL     1      -1.494   7.867 -31.992  1.00  0.00     0.002 A 
HETATM   26  C   UNL     1      -1.795   7.090 -30.877  1.00  0.00     0.002 A 
HETATM   27  C   UNL     1      -2.018   5.716 -31.017  1.00  0.00     0.025 A 
ENDBRANCH  19  21
ENDBRANCH  18  19
ENDBRANCH   2  18
TORSDOF 5
ENDMDL
MODEL 8
REMARK VINA RESULT:      -7.6      3.471      6.525
REMARK  5 active torsions:
REMARK  status: ('A' for Active; 'I' for Inactive)
REMARK    1  A    between atoms: C_7  and  C_8 
REMARK    2  A    between atoms: N_9  and  N_10 
REMARK       I    between atoms: N_10  and  C_11 
REMARK    3  A    between atoms: C_11  and  C_12 
REMARK    4  A    between atoms: C_12  and  N_13 
REMARK    5  A    between atoms: N_13  and  C_14 
ROOT
HETATM    1  N   UNL     1      -5.363   2.690 -32.235  1.00  0.00    -0.246 N 
HETATM    2  C   UNL     1      -6.219   3.775 -32.474  1.00  0.00     0.250 C 
HETATM    3  O   UNL     1      -7.023   4.233 -31.665  1.00  0.00    -0.270 OA
HETATM    4  H   UNL     1      -5.218   2.063 -33.020  1.00  0.00     0.192 HD
ENDROOT
BRANCH   1   5
HETATM    5  N   UNL     1      -5.358   2.049 -31.023  1.00  0.00    -0.184 NA
HETATM    6  C   UNL     1      -5.757   0.808 -30.975  1.00  0.00     0.153 C 
BRANCH   6   7
HETATM    7  C   UNL     1      -6.428   0.062 -32.030  1.00  0.00     0.018 A 
HETATM    8  C   UNL     1      -7.766   0.233 -32.358  1.00  0.00     0.018 A 
HETATM    9  C   UNL     1      -8.801   1.129 -31.778  1.00  0.00     0.069 C 
HETATM   10  N   UNL     1      -8.072  -0.666 -33.347  1.00  0.00    -0.358 N 
HETATM   11  H   UNL     1      -8.989  -0.796 -33.753  1.00  0.00     0.166 HD
HETATM   12  C   UNL     1      -6.955  -1.370 -33.725  1.00  0.00     0.043 A 
HETATM   13  C   UNL     1      -5.896  -0.913 -32.941  1.00  0.00     0.004 A 
HETATM   14  C   UNL     1      -6.807  -2.366 -34.699  1.00  0.00     0.030 A 
HETATM   15  C   UNL     1      -4.612  -1.451 -33.184  1.00  0.00     0.014 A 
HETATM   16  C   UNL     1      -4.445  -2.446 -34.154  1.00  0.00     0.001 A 
HETATM   17  C   UNL     1      -5.532  -2.901 -34.894  1.00  0.00     0.002 A 
ENDBRANCH   6   7
ENDBRANCH   1   5
BRANCH   2  18
HETATM   18  C   UNL     1      -6.029   4.335 -33.891  1.00  0.00     0.197 C 
BRANCH  18  19
HETATM   19  N   UNL     1      -5.352   5.635 -33.879  1.00  0.00    -0.283 NA
HETATM   20  H   UNL     1      -5.738   6.282 -34.571  1.00  0.00     0.128 HD
BRANCH  19  21
HETATM   21  C   UNL     1      -3.948   5.646 -33.848  1.00  0.00     0.030 A 
HETATM   22  C   UNL     1      -3.249   5.976 -32.668  1.00  0.00     0.055 A 
HETATM   23 CL   UNL     1      -4.101   6.478 -31.248  1.00  0.00    -0.082 Cl
HETATM   24  C   UNL     1      -1.851   5.941 -32.618  1.00  0.00     0.026 A 
HETATM   25  C   UNL     1      -1.122   5.551 -33.739  1.00  0.00     0.002 A 
HETATM   26  C   UNL     1      -1.793   5.190 -34.905  1.00  0.00     0.002 A 
HETATM   27  C   UNL     1      -3.190   5.230 -34.953  1.00  0.00     0.025 A 
ENDBRANCH  19  21
ENDBRANCH  18  19
ENDBRANCH   2  18
TORSDOF 5
ENDMDL
MODEL 9
REMARK VINA RESULT:      -7.6      2.871      4.522
REMARK  5 active torsions:
REMARK  status: ('A' for Active; 'I' for Inactive)
REMARK    1  A    between atoms: C_7  and  C_8 
REMARK    2  A    between atoms: N_9  and  N_10 
REMARK       I    between atoms: N_10  and  C_11 
REMARK    3  A    between atoms: C_11  and  C_12 
REMARK    4  A    between atoms: C_12  and  N_13 
REMARK    5  A    between atoms: N_13  and  C_14 
ROOT
HETATM    1  N   UNL     1      -7.454   1.729 -33.447  1.00  0.00    -0.246 N 
HETATM    2  C   UNL     1      -8.258   0.956 -34.297  1.00  0.00     0.250 C 
HETATM    3  O   UNL     1      -9.450   1.160 -34.521  1.00  0.00    -0.270 OA
HETATM    4  H   UNL     1      -6.774   1.214 -32.897  1.00  0.00     0.192 HD
ENDROOT
BRANCH   1   5
HETATM    5  N   UNL     1      -7.963   2.821 -32.793  1.00  0.00    -0.184 NA
HETATM    6  C   UNL     1      -7.136   3.748 -32.395  1.00  0.00     0.153 C 
BRANCH   6   7
HETATM    7  C   UNL     1      -5.683   3.670 -32.362  1.00  0.00     0.018 A 
HETATM    8  C   UNL     1      -4.973   2.988 -31.384  1.00  0.00     0.018 A 
HETATM    9  C   UNL     1      -5.443   2.225 -30.198  1.00  0.00     0.069 C 
HETATM   10  N   UNL     1      -3.637   3.173 -31.632  1.00  0.00    -0.358 N 
HETATM   11  H   UNL     1      -2.883   2.823 -31.055  1.00  0.00     0.166 HD
HETATM   12  C   UNL     1      -3.453   3.897 -32.784  1.00  0.00     0.043 A 
HETATM   13  C   UNL     1      -4.718   4.196 -33.288  1.00  0.00     0.004 A 
HETATM   14  C   UNL     1      -2.268   4.300 -33.413  1.00  0.00     0.030 A 
HETATM   15  C   UNL     1      -4.794   4.894 -34.514  1.00  0.00     0.014 A 
HETATM   16  C   UNL     1      -3.621   5.305 -35.157  1.00  0.00     0.001 A 
HETATM   17  C   UNL     1      -2.376   5.016 -34.607  1.00  0.00     0.002 A 
ENDBRANCH   6   7
ENDBRANCH   1   5
BRANCH   2  18
HETATM   18  C   UNL     1      -7.462  -0.196 -34.925  1.00  0.00     0.197 C 
BRANCH  18  19
HETATM   19  N   UNL     1      -6.489  -0.763 -33.988  1.00  0.00    -0.283 NA
HETATM   20  H   UNL     1      -5.735  -0.107 -33.765  1.00  0.00     0.128 HD
BRANCH  19  21
HETATM   21  C   UNL     1      -6.022  -2.065 -34.231  1.00  0.00     0.030 A 
HETATM   22  C   UNL     1      -4.702  -2.438 -33.904  1.00  0.00     0.055 A 
HETATM   23 CL   UNL     1      -3.582  -1.272 -33.287  1.00  0.00    -0.082 Cl
HETATM   24  C   UNL     1      -4.247  -3.748 -34.098  1.00  0.00     0.026 A 
HETATM   25  C   UNL     1      -5.110  -4.718 -34.599  1.00  0.00     0.002 A 
HETATM   26  C   UNL     1      -6.428  -4.380 -34.899  1.00  0.00     0.002 A 
HETATM   27  C   UNL     1      -6.878  -3.070 -34.708  1.00  0.00     0.025 A 
ENDBRANCH  19  21
ENDBRANCH  18  19
ENDBRANCH   2  18
TORSDOF 5
ENDMDL
MODEL 10
REMARK VINA RESULT:      -7.6      3.521      6.734
REMARK  5 active torsions:
REMARK  status: ('A' for Active; 'I' for Inactive)
REMARK    1  A    between atoms: C_7  and  C_8 
REMARK    2  A    between atoms: N_9  and  N_10 
REMARK       I    between atoms: N_10  and  C_11 
REMARK    3  A    between atoms: C_11  and  C_12 
REMARK    4  A    between atoms: C_12  and  N_13 
REMARK    5  A    between atoms: N_13  and  C_14 
ROOT
HETATM    1  N   UNL     1      -7.136   2.271 -33.313  1.00  0.00    -0.246 N 
HETATM    2  C   UNL     1      -6.522   3.500 -33.033  1.00  0.00     0.250 C 
HETATM    3  O   UNL     1      -6.558   4.077 -31.948  1.00  0.00    -0.270 OA
HETATM    4  H   UNL     1      -7.546   2.184 -34.237  1.00  0.00     0.192 HD
ENDROOT
BRANCH   1   5
HETATM    5  N   UNL     1      -7.835   1.594 -32.346  1.00  0.00    -0.184 NA
HETATM    6  C   UNL     1      -7.327   0.492 -31.870  1.00  0.00     0.153 C 
BRANCH   6   7
HETATM    7  C   UNL     1      -6.189  -0.248 -32.397  1.00  0.00     0.018 A 
HETATM    8  C   UNL     1      -4.875  -0.011 -32.015  1.00  0.00     0.018 A 
HETATM    9  C   UNL     1      -4.306   0.977 -31.061  1.00  0.00     0.069 C 
HETATM   10  N   UNL     1      -4.070  -0.844 -32.748  1.00  0.00    -0.358 N 
HETATM   11  H   UNL     1      -3.059  -0.860 -32.708  1.00  0.00     0.166 HD
HETATM   12  C   UNL     1      -4.824  -1.669 -33.547  1.00  0.00     0.043 A 
HETATM   13  C   UNL     1      -6.162  -1.345 -33.324  1.00  0.00     0.004 A 
HETATM   14  C   UNL     1      -4.420  -2.672 -34.437  1.00  0.00     0.030 A 
HETATM   15  C   UNL     1      -7.146  -2.104 -33.997  1.00  0.00     0.014 A 
HETATM   16  C   UNL     1      -6.762  -3.111 -34.890  1.00  0.00     0.001 A 
HETATM   17  C   UNL     1      -5.415  -3.383 -35.110  1.00  0.00     0.002 A 
ENDBRANCH   6   7
ENDBRANCH   1   5
BRANCH   2  18
HETATM   18  C   UNL     1      -5.788   4.051 -34.263  1.00  0.00     0.197 C 
BRANCH  18  19
HETATM   19  N   UNL     1      -5.308   5.418 -34.047  1.00  0.00    -0.283 NA
HETATM   20  H   UNL     1      -5.755   6.092 -34.675  1.00  0.00     0.128 HD
BRANCH  19  21
HETATM   21  C   UNL     1      -3.923   5.620 -33.930  1.00  0.00     0.030 A 
HETATM   22  C   UNL     1      -3.363   6.157 -32.752  1.00  0.00     0.055 A 
HETATM   23 CL   UNL     1      -4.377   6.679 -31.451  1.00  0.00    -0.082 Cl
HETATM   24  C   UNL     1      -1.979   6.314 -32.611  1.00  0.00     0.026 A 
HETATM   25  C   UNL     1      -1.125   5.916 -33.636  1.00  0.00     0.002 A 
HETATM   26  C   UNL     1      -1.654   5.354 -34.795  1.00  0.00     0.002 A 
HETATM   27  C   UNL     1      -3.037   5.202 -34.935  1.00  0.00     0.025 A 
ENDBRANCH  19  21
ENDBRANCH  18  19
ENDBRANCH   2  18
TORSDOF 5
ENDMDL
