MODEL 1
REMARK VINA RESULT:      -9.7      0.000      0.000
REMARK  4 active torsions:
REMARK  status: ('A' for Active; 'I' for Inactive)
REMARK    1  A    between atoms: C_5  and  C_6 
REMARK    2  A    between atoms: C_10  and  C_11 
REMARK       I    between atoms: C_11  and  N_12 
REMARK    3  A    between atoms: N_12  and  N_13 
REMARK    4  A    between atoms: C_14  and  C_15 
ROOT
HETATM    1  C   UNL     1      -2.130   4.504 -31.853  1.00  0.00     0.289 C 
HETATM    2  N   UNL     1      -2.843   3.386 -31.437  1.00  0.00    -0.242 N 
HETATM    3  O   UNL     1      -1.819   4.745 -33.016  1.00  0.00    -0.264 OA
HETATM    4  H   UNL     1      -2.821   3.147 -30.452  1.00  0.00     0.192 HD
ENDROOT
BRANCH   1   5
HETATM    5  C   UNL     1      -1.749   5.397 -30.786  1.00  0.00     0.121 A 
HETATM    6  N   UNL     1      -2.661   6.217 -30.182  1.00  0.00    -0.272 N 
HETATM    7  N   UNL     1      -2.151   6.981 -29.207  1.00  0.00    -0.174 NA
HETATM    8  H   UNL     1      -3.649   6.295 -30.402  1.00  0.00     0.189 HD
HETATM    9  C   UNL     1      -0.857   6.631 -29.136  1.00  0.00     0.089 A 
HETATM   10  C   UNL     1      -0.563   5.646 -30.124  1.00  0.00     0.071 A 
BRANCH   9  11
HETATM   11  C   UNL     1       0.052   7.227 -28.151  1.00  0.00    -0.006 A 
HETATM   12  C   UNL     1       0.966   8.226 -28.516  1.00  0.00     0.014 A 
HETATM   13  C   UNL     1       1.831   8.786 -27.570  1.00  0.00     0.007 A 
HETATM   14  C   UNL     1       1.802   8.358 -26.240  1.00  0.00    -0.062 A 
HETATM   15  C   UNL     1       2.720   8.953 -25.214  1.00  0.00     0.048 C 
HETATM   16  C   UNL     1       0.891   7.362 -25.868  1.00  0.00     0.007 A 
HETATM   17  C   UNL     1       0.029   6.802 -26.816  1.00  0.00     0.014 A 
ENDBRANCH   9  11
ENDBRANCH   1   5
BRANCH   2  18
HETATM   18  N   UNL     1      -3.294   2.359 -32.231  1.00  0.00    -0.183 NA
HETATM   19  C   UNL     1      -3.992   1.412 -31.689  1.00  0.00     0.153 C 
BRANCH  19  20
HETATM   20  C   UNL     1      -4.497   0.318 -32.502  1.00  0.00     0.018 A 
HETATM   21  C   UNL     1      -5.616   0.394 -33.399  1.00  0.00     0.004 A 
HETATM   22  C   UNL     1      -5.785  -0.866 -33.969  1.00  0.00     0.043 A 
HETATM   23  C   UNL     1      -6.506   1.422 -33.778  1.00  0.00     0.014 A 
HETATM   24  C   UNL     1      -6.798  -1.155 -34.892  1.00  0.00     0.030 A 
HETATM   25  N   UNL     1      -4.805  -1.677 -33.452  1.00  0.00    -0.358 N 
HETATM   26  C   UNL     1      -7.666  -0.120 -35.247  1.00  0.00     0.002 A 
HETATM   27  C   UNL     1      -7.524   1.153 -34.699  1.00  0.00     0.001 A 
HETATM   28  H   UNL     1      -4.686  -2.650 -33.695  1.00  0.00     0.166 HD
HETATM   29  C   UNL     1      -4.017  -0.985 -32.565  1.00  0.00     0.018 A 
HETATM   30  C   UNL     1      -2.883  -1.648 -31.868  1.00  0.00     0.069 C 
ENDBRANCH  19  20
ENDBRANCH   2  18
TORSDOF 4
ENDMDL
MODEL 2
REMARK VINA RESULT:      -9.3      1.596      2.505
REMARK  4 active torsions:
REMARK  status: ('A' for Active; 'I' for Inactive)
REMARK    1  A    between atoms: C_5  and  C_6 
REMARK    2  A    between atoms: C_10  and  C_11 
REMARK       I    between atoms: C_11  and  N_12 
REMARK    3  A    between atoms: N_12  and  N_13 
REMARK    4  A    between atoms: C_14  and  C_15 
ROOT
HETATM    1  C   UNL     1      -2.471   4.330 -32.385  1.00  0.00     0.289 C 
HETATM    2  N   UNL     1      -3.082   3.225 -31.805  1.00  0.00    -0.242 N 
HETATM    3  O   UNL     1      -2.710   4.752 -33.514  1.00  0.00    -0.264 OA
HETATM    4  H   UNL     1      -2.640   2.808 -30.994  1.00  0.00     0.192 HD
ENDROOT
BRANCH   1   5
HETATM    5  C   UNL     1      -1.486   4.972 -31.549  1.00  0.00     0.121 A 
HETATM    6  N   UNL     1      -0.214   5.202 -31.993  1.00  0.00    -0.272 N 
HETATM    7  N   UNL     1       0.578   5.810 -31.100  1.00  0.00    -0.174 NA
HETATM    8  H   UNL     1       0.166   4.958 -32.903  1.00  0.00     0.189 HD
HETATM    9  C   UNL     1      -0.209   6.025 -30.034  1.00  0.00     0.089 A 
HETATM   10  C   UNL     1      -1.511   5.499 -30.273  1.00  0.00     0.071 A 
BRANCH   9  11
HETATM   11  C   UNL     1       0.286   6.713 -28.836  1.00  0.00    -0.006 A 
HETATM   12  C   UNL     1       0.037   6.206 -27.552  1.00  0.00     0.014 A 
HETATM   13  C   UNL     1       0.510   6.871 -26.415  1.00  0.00     0.007 A 
HETATM   14  C   UNL     1       1.240   8.057 -26.539  1.00  0.00    -0.062 A 
HETATM   15  C   UNL     1       1.757   8.777 -25.329  1.00  0.00     0.048 C 
HETATM   16  C   UNL     1       1.492   8.568 -27.817  1.00  0.00     0.007 A 
HETATM   17  C   UNL     1       1.017   7.903 -28.952  1.00  0.00     0.014 A 
ENDBRANCH   9  11
ENDBRANCH   1   5
BRANCH   2  18
HETATM   18  N   UNL     1      -4.023   2.408 -32.387  1.00  0.00    -0.183 NA
HETATM   19  C   UNL     1      -4.773   1.679 -31.624  1.00  0.00     0.153 C 
BRANCH  19  20
HETATM   20  C   UNL     1      -5.787   0.814 -32.205  1.00  0.00     0.018 A 
HETATM   21  C   UNL     1      -5.531  -0.368 -32.979  1.00  0.00     0.004 A 
HETATM   22  C   UNL     1      -6.762  -0.895 -33.364  1.00  0.00     0.043 A 
HETATM   23  C   UNL     1      -4.359  -1.039 -33.393  1.00  0.00     0.014 A 
HETATM   24  C   UNL     1      -6.885  -2.052 -34.142  1.00  0.00     0.030 A 
HETATM   25  N   UNL     1      -7.732  -0.077 -32.838  1.00  0.00    -0.358 N 
HETATM   26  C   UNL     1      -5.710  -2.694 -34.540  1.00  0.00     0.002 A 
HETATM   27  C   UNL     1      -4.463  -2.197 -34.171  1.00  0.00     0.001 A 
HETATM   28  H   UNL     1      -8.724  -0.224 -32.956  1.00  0.00     0.166 HD
HETATM   29  C   UNL     1      -7.168   0.960 -32.136  1.00  0.00     0.018 A 
HETATM   30  C   UNL     1      -8.014   1.987 -31.472  1.00  0.00     0.069 C 
ENDBRANCH  19  20
ENDBRANCH   2  18
TORSDOF 4
ENDMDL
MODEL 3
REMARK VINA RESULT:      -9.0      1.973     10.734
REMARK  4 active torsions:
REMARK  status: ('A' for Active; 'I' for Inactive)
REMARK    1  A    between atoms: C_5  and  C_6 
REMARK    2  A    between atoms: C_10  and  C_11 
REMARK       I    between atoms: C_11  and  N_12 
REMARK    3  A    between atoms: N_12  and  N_13 
REMARK    4  A    between atoms: C_14  and  C_15 
ROOT
HETATM    1  C   UNL     1      -3.414   3.362 -31.387  1.00  0.00     0.289 C 
HETATM    2  N   UNL     1      -4.152   4.424 -30.878  1.00  0.00    -0.242 N 
HETATM    3  O   UNL     1      -2.199   3.230 -31.266  1.00  0.00    -0.264 OA
HETATM    4  H   UNL     1      -5.083   4.577 -31.246  1.00  0.00     0.192 HD
ENDROOT
BRANCH   1   5
HETATM    5  C   UNL     1      -4.195   2.388 -32.109  1.00  0.00     0.121 A 
HETATM    6  N   UNL     1      -5.331   2.741 -32.782  1.00  0.00    -0.272 N 
HETATM    7  N   UNL     1      -5.940   1.723 -33.404  1.00  0.00    -0.174 NA
HETATM    8  H   UNL     1      -5.738   3.670 -32.844  1.00  0.00     0.189 HD
HETATM    9  C   UNL     1      -5.158   0.658 -33.166  1.00  0.00     0.089 A 
HETATM   10  C   UNL     1      -4.058   1.034 -32.342  1.00  0.00     0.071 A 
BRANCH   9  11
HETATM   11  C   UNL     1      -5.469  -0.666 -33.716  1.00  0.00    -0.006 A 
HETATM   12  C   UNL     1      -4.478  -1.650 -33.844  1.00  0.00     0.014 A 
HETATM   13  C   UNL     1      -4.783  -2.909 -34.374  1.00  0.00     0.007 A 
HETATM   14  C   UNL     1      -6.085  -3.209 -34.788  1.00  0.00    -0.062 A 
HETATM   15  C   UNL     1      -6.426  -4.555 -35.353  1.00  0.00     0.048 C 
HETATM   16  C   UNL     1      -7.078  -2.231 -34.662  1.00  0.00     0.007 A 
HETATM   17  C   UNL     1      -6.770  -0.973 -34.134  1.00  0.00     0.014 A 
ENDBRANCH   9  11
ENDBRANCH   1   5
BRANCH   2  18
HETATM   18  N   UNL     1      -3.661   5.507 -30.187  1.00  0.00    -0.183 NA
HETATM   19  C   UNL     1      -2.817   6.292 -30.777  1.00  0.00     0.153 C 
BRANCH  19  20
HETATM   20  C   UNL     1      -2.289   7.455 -30.081  1.00  0.00     0.018 A 
HETATM   21  C   UNL     1      -1.134   7.462 -29.229  1.00  0.00     0.004 A 
HETATM   22  C   UNL     1      -0.975   8.759 -28.745  1.00  0.00     0.043 A 
HETATM   23  C   UNL     1      -0.206   6.479 -28.819  1.00  0.00     0.014 A 
HETATM   24  C   UNL     1       0.057   9.125 -27.872  1.00  0.00     0.030 A 
HETATM   25  N   UNL     1      -1.983   9.517 -29.288  1.00  0.00    -0.358 N 
HETATM   26  C   UNL     1       0.958   8.132 -27.480  1.00  0.00     0.002 A 
HETATM   27  C   UNL     1       0.832   6.826 -27.947  1.00  0.00     0.001 A 
HETATM   28  H   UNL     1      -2.110  10.504 -29.111  1.00  0.00     0.166 HD
HETATM   29  C   UNL     1      -2.787   8.752 -30.097  1.00  0.00     0.018 A 
HETATM   30  C   UNL     1      -3.955   9.347 -30.799  1.00  0.00     0.069 C 
ENDBRANCH  19  20
ENDBRANCH   2  18
TORSDOF 4
ENDMDL
MODEL 4
REMARK VINA RESULT:      -9.0      7.078     11.897
REMARK  4 active torsions:
REMARK  status: ('A' for Active; 'I' for Inactive)
REMARK    1  A    between atoms: C_5  and  C_6 
REMARK    2  A    between atoms: C_10  and  C_11 
REMARK       I    between atoms: C_11  and  N_12 
REMARK    3  A    between atoms: N_12  and  N_13 
REMARK    4  A    between atoms: C_14  and  C_15 
ROOT
HETATM    1  C   UNL     1     -10.515   2.011 -33.428  1.00  0.00     0.289 C 
HETATM    2  N   UNL     1     -10.087   0.780 -33.910  1.00  0.00    -0.242 N 
HETATM    3  O   UNL     1      -9.779   2.964 -33.186  1.00  0.00    -0.264 OA
HETATM    4  H   UNL     1     -10.718  -0.008 -33.829  1.00  0.00     0.192 HD
ENDROOT
BRANCH   1   5
HETATM    5  C   UNL     1     -11.938   2.101 -33.206  1.00  0.00     0.121 A 
HETATM    6  N   UNL     1     -12.760   1.029 -33.411  1.00  0.00    -0.272 N 
HETATM    7  N   UNL     1     -14.053   1.272 -33.157  1.00  0.00    -0.174 NA
HETATM    8  H   UNL     1     -12.487   0.104 -33.729  1.00  0.00     0.189 HD
HETATM    9  C   UNL     1     -14.086   2.546 -32.733  1.00  0.00     0.089 A 
HETATM   10  C   UNL     1     -12.776   3.105 -32.764  1.00  0.00     0.071 A 
BRANCH   9  11
HETATM   11  C   UNL     1     -15.337   3.188 -32.316  1.00  0.00    -0.006 A 
HETATM   12  C   UNL     1     -15.388   4.559 -32.026  1.00  0.00     0.014 A 
HETATM   13  C   UNL     1     -16.585   5.163 -31.626  1.00  0.00     0.007 A 
HETATM   14  C   UNL     1     -17.756   4.407 -31.505  1.00  0.00    -0.062 A 
HETATM   15  C   UNL     1     -19.047   5.042 -31.082  1.00  0.00     0.048 C 
HETATM   16  C   UNL     1     -17.712   3.039 -31.794  1.00  0.00     0.007 A 
HETATM   17  C   UNL     1     -16.513   2.437 -32.192  1.00  0.00     0.014 A 
ENDBRANCH   9  11
ENDBRANCH   1   5
BRANCH   2  18
HETATM   18  N   UNL     1      -8.789   0.408 -34.172  1.00  0.00    -0.183 NA
HETATM   19  C   UNL     1      -8.183  -0.369 -33.331  1.00  0.00     0.153 C 
BRANCH  19  20
HETATM   20  C   UNL     1      -6.815  -0.794 -33.583  1.00  0.00     0.018 A 
HETATM   21  C   UNL     1      -6.420  -2.087 -34.065  1.00  0.00     0.004 A 
HETATM   22  C   UNL     1      -5.029  -2.096 -34.154  1.00  0.00     0.043 A 
HETATM   23  C   UNL     1      -7.120  -3.257 -34.432  1.00  0.00     0.014 A 
HETATM   24  C   UNL     1      -4.301  -3.212 -34.585  1.00  0.00     0.030 A 
HETATM   25  N   UNL     1      -4.592  -0.858 -33.754  1.00  0.00    -0.358 N 
HETATM   26  C   UNL     1      -5.019  -4.357 -34.939  1.00  0.00     0.002 A 
HETATM   27  C   UNL     1      -6.409  -4.382 -34.866  1.00  0.00     0.001 A 
HETATM   28  H   UNL     1      -3.621  -0.581 -33.722  1.00  0.00     0.166 HD
HETATM   29  C   UNL     1      -5.651  -0.055 -33.405  1.00  0.00     0.018 A 
HETATM   30  C   UNL     1      -5.434   1.338 -32.933  1.00  0.00     0.069 C 
ENDBRANCH  19  20
ENDBRANCH   2  18
TORSDOF 4
ENDMDL
MODEL 5
REMARK VINA RESULT:      -8.9      6.957     10.280
REMARK  4 active torsions:
REMARK  status: ('A' for Active; 'I' for Inactive)
REMARK    1  A    between atoms: C_5  and  C_6 
REMARK    2  A    between atoms: C_10  and  C_11 
REMARK       I    between atoms: C_11  and  N_12 
REMARK    3  A    between atoms: N_12  and  N_13 
REMARK    4  A    between atoms: C_14  and  C_15 
ROOT
HETATM    1  C   UNL     1      -9.902   0.818 -33.191  1.00  0.00     0.289 C 
HETATM    2  N   UNL     1      -8.534   0.943 -33.397  1.00  0.00    -0.242 N 
HETATM    3  O   UNL     1     -10.460  -0.195 -32.778  1.00  0.00    -0.264 OA
HETATM    4  H   UNL     1      -8.207   1.708 -33.976  1.00  0.00     0.192 HD
ENDROOT
BRANCH   1   5
HETATM    5  C   UNL     1     -10.663   1.998 -33.521  1.00  0.00     0.121 A 
HETATM    6  N   UNL     1     -11.826   2.302 -32.870  1.00  0.00    -0.272 N 
HETATM    7  N   UNL     1     -12.410   3.433 -33.289  1.00  0.00    -0.174 NA
HETATM    8  H   UNL     1     -12.267   1.765 -32.130  1.00  0.00     0.189 HD
HETATM    9  C   UNL     1     -11.586   3.918 -34.230  1.00  0.00     0.089 A 
HETATM   10  C   UNL     1     -10.482   3.036 -34.415  1.00  0.00     0.071 A 
BRANCH   9  11
HETATM   11  C   UNL     1     -11.860   5.184 -34.919  1.00  0.00    -0.006 A 
HETATM   12  C   UNL     1     -10.875   6.175 -35.036  1.00  0.00     0.014 A 
HETATM   13  C   UNL     1     -11.147   7.381 -35.692  1.00  0.00     0.007 A 
HETATM   14  C   UNL     1     -12.410   7.621 -36.242  1.00  0.00    -0.062 A 
HETATM   15  C   UNL     1     -12.714   8.907 -36.951  1.00  0.00     0.048 C 
HETATM   16  C   UNL     1     -13.397   6.635 -36.129  1.00  0.00     0.007 A 
HETATM   17  C   UNL     1     -13.123   5.432 -35.471  1.00  0.00     0.014 A 
ENDBRANCH   9  11
ENDBRANCH   1   5
BRANCH   2  18
HETATM   18  N   UNL     1      -7.583  -0.032 -33.204  1.00  0.00    -0.183 NA
HETATM   19  C   UNL     1      -6.523  -0.024 -33.947  1.00  0.00     0.153 C 
BRANCH  19  20
HETATM   20  C   UNL     1      -5.491  -1.031 -33.761  1.00  0.00     0.018 A 
HETATM   21  C   UNL     1      -5.584  -2.405 -34.166  1.00  0.00     0.004 A 
HETATM   22  C   UNL     1      -4.399  -3.036 -33.792  1.00  0.00     0.043 A 
HETATM   23  C   UNL     1      -6.573  -3.174 -34.817  1.00  0.00     0.014 A 
HETATM   24  C   UNL     1      -4.152  -4.394 -34.029  1.00  0.00     0.030 A 
HETATM   25  N   UNL     1      -3.609  -2.086 -33.193  1.00  0.00    -0.358 N 
HETATM   26  C   UNL     1      -5.149  -5.132 -34.672  1.00  0.00     0.002 A 
HETATM   27  C   UNL     1      -6.343  -4.533 -35.063  1.00  0.00     0.001 A 
HETATM   28  H   UNL     1      -2.685  -2.265 -32.825  1.00  0.00     0.166 HD
HETATM   29  C   UNL     1      -4.246  -0.870 -33.162  1.00  0.00     0.018 A 
HETATM   30  C   UNL     1      -3.594   0.322 -32.558  1.00  0.00     0.069 C 
ENDBRANCH  19  20
ENDBRANCH   2  18
TORSDOF 4
ENDMDL
MODEL 6
REMARK VINA RESULT:      -8.8      3.035      4.139
REMARK  4 active torsions:
REMARK  status: ('A' for Active; 'I' for Inactive)
REMARK    1  A    between atoms: C_5  and  C_6 
REMARK    2  A    between atoms: C_10  and  C_11 
REMARK       I    between atoms: C_11  and  N_12 
REMARK    3  A    between atoms: N_12  and  N_13 
REMARK    4  A    between atoms: C_14  and  C_15 
ROOT
HETATM    1  C   UNL     1      -4.172   5.277 -34.537  1.00  0.00     0.289 C 
HETATM    2  N   UNL     1      -5.169   4.679 -33.776  1.00  0.00    -0.242 N 
HETATM    3  O   UNL     1      -4.104   5.234 -35.762  1.00  0.00    -0.264 OA
HETATM    4  H   UNL     1      -4.998   4.549 -32.786  1.00  0.00     0.192 HD
ENDROOT
BRANCH   1   5
HETATM    5  C   UNL     1      -3.171   5.972 -33.765  1.00  0.00     0.121 A 
HETATM    6  N   UNL     1      -2.317   6.867 -34.346  1.00  0.00    -0.272 N 
HETATM    7  N   UNL     1      -1.449   7.431 -33.494  1.00  0.00    -0.174 NA
HETATM    8  H   UNL     1      -2.283   7.128 -35.327  1.00  0.00     0.189 HD
HETATM    9  C   UNL     1      -1.763   6.916 -32.295  1.00  0.00     0.089 A 
HETATM   10  C   UNL     1      -2.832   5.984 -32.426  1.00  0.00     0.071 A 
BRANCH   9  11
HETATM   11  C   UNL     1      -1.053   7.316 -31.074  1.00  0.00    -0.006 A 
HETATM   12  C   UNL     1       0.232   6.831 -30.789  1.00  0.00     0.014 A 
HETATM   13  C   UNL     1       0.900   7.215 -29.621  1.00  0.00     0.007 A 
HETATM   14  C   UNL     1       0.296   8.090 -28.713  1.00  0.00    -0.062 A 
HETATM   15  C   UNL     1       1.002   8.513 -27.459  1.00  0.00     0.048 C 
HETATM   16  C   UNL     1      -0.986   8.578 -28.992  1.00  0.00     0.007 A 
HETATM   17  C   UNL     1      -1.652   8.191 -30.159  1.00  0.00     0.014 A 
ENDBRANCH   9  11
ENDBRANCH   1   5
BRANCH   2  18
HETATM   18  N   UNL     1      -6.218   3.925 -34.246  1.00  0.00    -0.183 NA
HETATM   19  C   UNL     1      -6.887   3.198 -33.409  1.00  0.00     0.153 C 
BRANCH  19  20
HETATM   20  C   UNL     1      -8.012   2.399 -33.869  1.00  0.00     0.018 A 
HETATM   21  C   UNL     1      -9.397   2.698 -33.636  1.00  0.00     0.004 A 
HETATM   22  C   UNL     1     -10.151   1.684 -34.221  1.00  0.00     0.043 A 
HETATM   23  C   UNL     1     -10.081   3.742 -32.975  1.00  0.00     0.014 A 
HETATM   24  C   UNL     1     -11.551   1.653 -34.178  1.00  0.00     0.030 A 
HETATM   25  N   UNL     1      -9.267   0.806 -34.798  1.00  0.00    -0.358 N 
HETATM   26  C   UNL     1     -12.201   2.696 -33.515  1.00  0.00     0.002 A 
HETATM   27  C   UNL     1     -11.480   3.729 -32.922  1.00  0.00     0.001 A 
HETATM   28  H   UNL     1      -9.539  -0.028 -35.300  1.00  0.00     0.166 HD
HETATM   29  C   UNL     1      -7.971   1.217 -34.598  1.00  0.00     0.018 A 
HETATM   30  C   UNL     1      -6.827   0.428 -35.127  1.00  0.00     0.069 C 
ENDBRANCH  19  20
ENDBRANCH   2  18
TORSDOF 4
ENDMDL
MODEL 7
REMARK VINA RESULT:      -8.7      3.668      5.030
REMARK  4 active torsions:
REMARK  status: ('A' for Active; 'I' for Inactive)
REMARK    1  A    between atoms: C_5  and  C_6 
REMARK    2  A    between atoms: C_10  and  C_11 
REMARK       I    between atoms: C_11  and  N_12 
REMARK    3  A    between atoms: N_12  and  N_13 
REMARK    4  A    between atoms: C_14  and  C_15 
ROOT
HETATM    1  C   UNL     1      -4.411   5.315 -34.504  1.00  0.00     0.289 C 
HETATM    2  N   UNL     1      -5.608   5.223 -33.804  1.00  0.00    -0.242 N 
HETATM    3  O   UNL     1      -4.232   4.899 -35.646  1.00  0.00    -0.264 OA
HETATM    4  H   UNL     1      -5.582   5.353 -32.800  1.00  0.00     0.192 HD
ENDROOT
BRANCH   1   5
HETATM    5  C   UNL     1      -3.340   5.945 -33.771  1.00  0.00     0.121 A 
HETATM    6  N   UNL     1      -2.408   6.724 -34.398  1.00  0.00    -0.272 N 
HETATM    7  N   UNL     1      -1.483   7.240 -33.579  1.00  0.00    -0.174 NA
HETATM    8  H   UNL     1      -2.358   6.933 -35.391  1.00  0.00     0.189 HD
HETATM    9  C   UNL     1      -1.834   6.817 -32.354  1.00  0.00     0.089 A 
HETATM   10  C   UNL     1      -2.990   5.988 -32.436  1.00  0.00     0.071 A 
BRANCH   9  11
HETATM   11  C   UNL     1      -1.078   7.204 -31.158  1.00  0.00    -0.006 A 
HETATM   12  C   UNL     1      -1.620   8.083 -30.209  1.00  0.00     0.014 A 
HETATM   13  C   UNL     1      -0.890   8.449 -29.072  1.00  0.00     0.007 A 
HETATM   14  C   UNL     1       0.398   7.945 -28.863  1.00  0.00    -0.062 A 
HETATM   15  C   UNL     1       1.189   8.325 -27.647  1.00  0.00     0.048 C 
HETATM   16  C   UNL     1       0.943   7.066 -29.806  1.00  0.00     0.007 A 
HETATM   17  C   UNL     1       0.213   6.704 -30.942  1.00  0.00     0.014 A 
ENDBRANCH   9  11
ENDBRANCH   1   5
BRANCH   2  18
HETATM   18  N   UNL     1      -6.772   4.638 -34.244  1.00  0.00    -0.183 NA
HETATM   19  C   UNL     1      -7.864   4.848 -33.580  1.00  0.00     0.153 C 
BRANCH  19  20
HETATM   20  C   UNL     1      -9.116   4.257 -34.024  1.00  0.00     0.018 A 
HETATM   21  C   UNL     1      -9.574   2.935 -33.704  1.00  0.00     0.004 A 
HETATM   22  C   UNL     1     -10.802   2.750 -34.335  1.00  0.00     0.043 A 
HETATM   23  C   UNL     1      -9.052   1.872 -32.934  1.00  0.00     0.014 A 
HETATM   24  C   UNL     1     -11.534   1.559 -34.242  1.00  0.00     0.030 A 
HETATM   25  N   UNL     1     -11.090   3.913 -35.005  1.00  0.00    -0.358 N 
HETATM   26  C   UNL     1     -10.993   0.524 -33.477  1.00  0.00     0.002 A 
HETATM   27  C   UNL     1      -9.770   0.675 -32.829  1.00  0.00     0.001 A 
HETATM   28  H   UNL     1     -11.927   4.063 -35.550  1.00  0.00     0.166 HD
HETATM   29  C   UNL     1     -10.088   4.837 -34.832  1.00  0.00     0.018 A 
HETATM   30  C   UNL     1     -10.166   6.180 -35.464  1.00  0.00     0.069 C 
ENDBRANCH  19  20
ENDBRANCH   2  18
TORSDOF 4
ENDMDL
MODEL 8
REMARK VINA RESULT:      -8.5      1.821      2.047
REMARK  4 active torsions:
REMARK  status: ('A' for Active; 'I' for Inactive)
REMARK    1  A    between atoms: C_5  and  C_6 
REMARK    2  A    between atoms: C_10  and  C_11 
REMARK       I    between atoms: C_11  and  N_12 
REMARK    3  A    between atoms: N_12  and  N_13 
REMARK    4  A    between atoms: C_14  and  C_15 
ROOT
HETATM    1  C   UNL     1      -2.180   4.485 -32.437  1.00  0.00     0.289 C 
HETATM    2  N   UNL     1      -3.091   3.651 -31.801  1.00  0.00    -0.242 N 
HETATM    3  O   UNL     1      -2.033   4.565 -33.654  1.00  0.00    -0.264 OA
HETATM    4  H   UNL     1      -2.957   3.466 -30.813  1.00  0.00     0.192 HD
ENDROOT
BRANCH   1   5
HETATM    5  C   UNL     1      -1.372   5.277 -31.542  1.00  0.00     0.121 A 
HETATM    6  N   UNL     1      -0.013   5.144 -31.501  1.00  0.00    -0.272 N 
HETATM    7  N   UNL     1       0.593   5.953 -30.621  1.00  0.00    -0.174 NA
HETATM    8  H   UNL     1       0.554   4.509 -32.056  1.00  0.00     0.189 HD
HETATM    9  C   UNL     1      -0.400   6.677 -30.081  1.00  0.00     0.089 A 
HETATM   10  C   UNL     1      -1.653   6.270 -30.625  1.00  0.00     0.071 A 
BRANCH   9  11
HETATM   11  C   UNL     1      -0.141   7.718 -29.081  1.00  0.00    -0.006 A 
HETATM   12  C   UNL     1       1.116   7.843 -28.472  1.00  0.00     0.014 A 
HETATM   13  C   UNL     1       1.354   8.837 -27.515  1.00  0.00     0.007 A 
HETATM   14  C   UNL     1       0.338   9.725 -27.148  1.00  0.00    -0.062 A 
HETATM   15  C   UNL     1       0.580  10.798 -26.129  1.00  0.00     0.048 C 
HETATM   16  C   UNL     1      -0.918   9.607 -27.753  1.00  0.00     0.007 A 
HETATM   17  C   UNL     1      -1.153   8.611 -28.706  1.00  0.00     0.014 A 
ENDBRANCH   9  11
ENDBRANCH   1   5
BRANCH   2  18
HETATM   18  N   UNL     1      -3.953   2.765 -32.404  1.00  0.00    -0.183 NA
HETATM   19  C   UNL     1      -4.489   1.831 -31.686  1.00  0.00     0.153 C 
BRANCH  19  20
HETATM   20  C   UNL     1      -5.416   0.886 -32.288  1.00  0.00     0.018 A 
HETATM   21  C   UNL     1      -6.847   1.009 -32.291  1.00  0.00     0.004 A 
HETATM   22  C   UNL     1      -7.364  -0.105 -32.950  1.00  0.00     0.043 A 
HETATM   23  C   UNL     1      -7.754   1.968 -31.789  1.00  0.00     0.014 A 
HETATM   24  C   UNL     1      -8.737  -0.314 -33.129  1.00  0.00     0.030 A 
HETATM   25  N   UNL     1      -6.295  -0.872 -33.343  1.00  0.00    -0.358 N 
HETATM   26  C   UNL     1      -9.611   0.648 -32.620  1.00  0.00     0.002 A 
HETATM   27  C   UNL     1      -9.130   1.776 -31.959  1.00  0.00     0.001 A 
HETATM   28  H   UNL     1      -6.376  -1.743 -33.849  1.00  0.00     0.166 HD
HETATM   29  C   UNL     1      -5.111  -0.294 -32.955  1.00  0.00     0.018 A 
HETATM   30  C   UNL     1      -3.806  -0.938 -33.264  1.00  0.00     0.069 C 
ENDBRANCH  19  20
ENDBRANCH   2  18
TORSDOF 4
ENDMDL
MODEL 9
REMARK VINA RESULT:      -8.5      3.748      4.974
REMARK  4 active torsions:
REMARK  status: ('A' for Active; 'I' for Inactive)
REMARK    1  A    between atoms: C_5  and  C_6 
REMARK    2  A    between atoms: C_10  and  C_11 
REMARK       I    between atoms: C_11  and  N_12 
REMARK    3  A    between atoms: N_12  and  N_13 
REMARK    4  A    between atoms: C_14  and  C_15 
ROOT
HETATM    1  C   UNL     1      -4.275   5.407 -34.560  1.00  0.00     0.289 C 
HETATM    2  N   UNL     1      -5.447   5.151 -33.859  1.00  0.00    -0.242 N 
HETATM    3  O   UNL     1      -4.083   5.115 -35.737  1.00  0.00    -0.264 OA
HETATM    4  H   UNL     1      -5.414   5.189 -32.847  1.00  0.00     0.192 HD
ENDROOT
BRANCH   1   5
HETATM    5  C   UNL     1      -3.246   6.053 -33.782  1.00  0.00     0.121 A 
HETATM    6  N   UNL     1      -2.353   6.915 -34.356  1.00  0.00    -0.272 N 
HETATM    7  N   UNL     1      -1.464   7.435 -33.500  1.00  0.00    -0.174 NA
HETATM    8  H   UNL     1      -2.307   7.180 -35.335  1.00  0.00     0.189 HD
HETATM    9  C   UNL     1      -1.801   6.928 -32.304  1.00  0.00     0.089 A 
HETATM   10  C   UNL     1      -2.909   6.043 -32.443  1.00  0.00     0.071 A 
BRANCH   9  11
HETATM   11  C   UNL     1      -1.077   7.289 -31.080  1.00  0.00    -0.006 A 
HETATM   12  C   UNL     1      -1.631   8.172 -30.142  1.00  0.00     0.014 A 
HETATM   13  C   UNL     1      -0.931   8.514 -28.979  1.00  0.00     0.007 A 
HETATM   14  C   UNL     1       0.338   7.981 -28.732  1.00  0.00    -0.062 A 
HETATM   15  C   UNL     1       1.097   8.334 -27.488  1.00  0.00     0.048 C 
HETATM   16  C   UNL     1       0.895   7.098 -29.664  1.00  0.00     0.007 A 
HETATM   17  C   UNL     1       0.195   6.760 -30.826  1.00  0.00     0.014 A 
ENDBRANCH   9  11
ENDBRANCH   1   5
BRANCH   2  18
HETATM   18  N   UNL     1      -6.567   4.515 -34.339  1.00  0.00    -0.183 NA
HETATM   19  C   UNL     1      -7.634   4.493 -33.605  1.00  0.00     0.153 C 
BRANCH  19  20
HETATM   20  C   UNL     1      -8.841   3.841 -34.087  1.00  0.00     0.018 A 
HETATM   21  C   UNL     1     -10.019   4.513 -34.558  1.00  0.00     0.004 A 
HETATM   22  C   UNL     1     -10.949   3.536 -34.909  1.00  0.00     0.043 A 
HETATM   23  C   UNL     1     -10.384   5.868 -34.715  1.00  0.00     0.014 A 
HETATM   24  C   UNL     1     -12.223   3.841 -35.404  1.00  0.00     0.030 A 
HETATM   25  N   UNL     1     -10.361   2.318 -34.675  1.00  0.00    -0.358 N 
HETATM   26  C   UNL     1     -12.558   5.189 -35.547  1.00  0.00     0.002 A 
HETATM   27  C   UNL     1     -11.653   6.192 -35.209  1.00  0.00     0.001 A 
HETATM   28  H   UNL     1     -10.809   1.429 -34.845  1.00  0.00     0.166 HD
HETATM   29  C   UNL     1      -9.090   2.477 -34.178  1.00  0.00     0.018 A 
HETATM   30  C   UNL     1      -8.247   1.300 -33.841  1.00  0.00     0.069 C 
ENDBRANCH  19  20
ENDBRANCH   2  18
TORSDOF 4
ENDMDL
MODEL 10
REMARK VINA RESULT:      -8.4     18.523     19.646
REMARK  4 active torsions:
REMARK  status: ('A' for Active; 'I' for Inactive)
REMARK    1  A    between atoms: C_5  and  C_6 
REMARK    2  A    between atoms: C_10  and  C_11 
REMARK       I    between atoms: C_11  and  N_12 
REMARK    3  A    between atoms: N_12  and  N_13 
REMARK    4  A    between atoms: C_14  and  C_15 
ROOT
HETATM    1  C   UNL     1      -5.338 -14.911 -33.371  1.00  0.00     0.289 C 
HETATM    2  N   UNL     1      -4.338 -14.901 -34.335  1.00  0.00    -0.242 N 
HETATM    3  O   UNL     1      -6.511 -14.607 -33.573  1.00  0.00    -0.264 OA
HETATM    4  H   UNL     1      -3.375 -14.911 -34.022  1.00  0.00     0.192 HD
ENDROOT
BRANCH   1   5
HETATM    5  C   UNL     1      -4.893 -15.305 -32.057  1.00  0.00     0.121 A 
HETATM    6  N   UNL     1      -5.721 -15.233 -30.972  1.00  0.00    -0.272 N 
HETATM    7  N   UNL     1      -5.160 -15.639 -29.825  1.00  0.00    -0.174 NA
HETATM    8  H   UNL     1      -6.683 -14.908 -30.961  1.00  0.00     0.189 HD
HETATM    9  C   UNL     1      -3.922 -16.030 -30.167  1.00  0.00     0.089 A 
HETATM   10  C   UNL     1      -3.712 -15.822 -31.561  1.00  0.00     0.071 A 
BRANCH   9  11
HETATM   11  C   UNL     1      -2.987 -16.582 -29.181  1.00  0.00    -0.006 A 
HETATM   12  C   UNL     1      -3.355 -17.646 -28.346  1.00  0.00     0.014 A 
HETATM   13  C   UNL     1      -2.457 -18.163 -27.406  1.00  0.00     0.007 A 
HETATM   14  C   UNL     1      -1.172 -17.626 -27.281  1.00  0.00    -0.062 A 
HETATM   15  C   UNL     1      -0.198 -18.174 -26.281  1.00  0.00     0.048 C 
HETATM   16  C   UNL     1      -0.798 -16.565 -28.112  1.00  0.00     0.007 A 
HETATM   17  C   UNL     1      -1.698 -16.048 -29.049  1.00  0.00     0.014 A 
ENDBRANCH   9  11
ENDBRANCH   1   5
BRANCH   2  18
HETATM   18  N   UNL     1      -4.473 -14.531 -35.653  1.00  0.00    -0.183 NA
HETATM   19  C   UNL     1      -4.278 -13.292 -35.975  1.00  0.00     0.153 C 
BRANCH  19  20
HETATM   20  C   UNL     1      -4.398 -12.869 -37.361  1.00  0.00     0.018 A 
HETATM   21  C   UNL     1      -5.628 -12.748 -38.092  1.00  0.00     0.004 A 
HETATM   22  C   UNL     1      -5.311 -12.336 -39.385  1.00  0.00     0.043 A 
HETATM   23  C   UNL     1      -6.987 -12.957 -37.773  1.00  0.00     0.014 A 
HETATM   24  C   UNL     1      -6.278 -12.125 -40.376  1.00  0.00     0.030 A 
HETATM   25  N   UNL     1      -3.946 -12.197 -39.440  1.00  0.00    -0.358 N 
HETATM   26  C   UNL     1      -7.615 -12.342 -40.033  1.00  0.00     0.002 A 
HETATM   27  C   UNL     1      -7.968 -12.751 -38.750  1.00  0.00     0.001 A 
HETATM   28  H   UNL     1      -3.438 -11.904 -40.262  1.00  0.00     0.166 HD
HETATM   29  C   UNL     1      -3.374 -12.513 -38.232  1.00  0.00     0.018 A 
HETATM   30  C   UNL     1      -1.901 -12.444 -38.040  1.00  0.00     0.069 C 
ENDBRANCH  19  20
ENDBRANCH   2  18
TORSDOF 4
ENDMDL
