MODEL 1
REMARK VINA RESULT:      -9.1      0.000      0.000
REMARK  4 active torsions:
REMARK  status: ('A' for Active; 'I' for Inactive)
REMARK    1  A    between atoms: O_2  and  C_3 
REMARK    2  A    between atoms: C_4  and  C_5 
REMARK    3  A    between atoms: C_9  and  N_10 
REMARK    4  A    between atoms: C_13  and  C_14 
ROOT
HETATM    1  C   UNL     1      -7.471  -0.474 -33.600  1.00  0.00     0.167 C 
HETATM    2  N   UNL     1      -6.993   0.214 -32.403  1.00  0.00    -0.074 N 
HETATM    3  C   UNL     1      -7.118   1.563 -32.201  1.00  0.00     0.736 A 
HETATM    4  N   UNL     1      -6.739   1.849 -30.983  1.00  0.00     0.131 NA
HETATM    5  C   UNL     1      -6.436   0.628 -30.460  1.00  0.00     0.753 A 
HETATM    6  N   UNL     1      -6.589  -0.408 -31.279  1.00  0.00     0.037 NA
HETATM    7  N   UNL     1      -7.621   2.379 -33.150  1.00  0.00    -0.214 N 
HETATM    8  C   UNL     1      -8.296   1.830 -34.319  1.00  0.00     0.135 C 
HETATM    9  C   UNL     1      -7.620   0.523 -34.766  1.00  0.00     0.063 C 
HETATM   10  H   UNL     1      -7.926   3.301 -32.849  1.00  0.00     0.178 HD
ENDROOT
BRANCH   1  11
HETATM   11  C   UNL     1      -6.573  -1.642 -33.991  1.00  0.00     0.001 A 
HETATM   12  C   UNL     1      -5.175  -1.494 -34.033  1.00  0.00     0.076 A 
HETATM   13  C   UNL     1      -4.362  -2.585 -34.364  1.00  0.00     0.037 A 
HETATM   14  C   UNL     1      -4.929  -3.818 -34.684  1.00  0.00     0.003 A 
HETATM   15  C   UNL     1      -6.311  -3.971 -34.668  1.00  0.00     0.001 A 
HETATM   16  C   UNL     1      -7.128  -2.894 -34.324  1.00  0.00     0.012 A 
BRANCH  12  17
HETATM   17  O   UNL     1      -4.661  -0.273 -33.680  1.00  0.00    -0.355 OA
HETATM   18  C   UNL     1      -3.425  -0.331 -32.972  1.00  0.00     0.210 C 
ENDBRANCH  12  17
ENDBRANCH   1  11
BRANCH   8  19
HETATM   19  C   UNL     1      -9.802   1.694 -34.141  1.00  0.00    -0.035 A 
HETATM   20  C   UNL     1     -10.631   2.732 -34.610  1.00  0.00     0.010 A 
HETATM   21  C   UNL     1     -12.021   2.655 -34.491  1.00  0.00     0.019 A 
HETATM   22  C   UNL     1     -12.602   1.535 -33.906  1.00  0.00     0.011 A 
HETATM   23 BR   UNL     1     -14.482   1.427 -33.747  1.00  0.00    -0.051 Br
HETATM   24  C   UNL     1     -11.806   0.495 -33.438  1.00  0.00     0.019 A 
HETATM   25  C   UNL     1     -10.415   0.574 -33.554  1.00  0.00     0.010 A 
ENDBRANCH   8  19
BRANCH   5  26
HETATM   26  N   UNL     1      -6.011   0.562 -29.201  1.00  0.00    -0.229 N 
HETATM   27  H   UNL     1      -5.025   0.724 -29.050  1.00  0.00     0.174 HD
HETATM   28  H   UNL     1      -6.415  -0.169 -28.630  1.00  0.00     0.174 HD
ENDBRANCH   5  26
TORSDOF 4
ENDMDL
MODEL 2
REMARK VINA RESULT:      -9.0      3.280      5.164
REMARK  4 active torsions:
REMARK  status: ('A' for Active; 'I' for Inactive)
REMARK    1  A    between atoms: O_2  and  C_3 
REMARK    2  A    between atoms: C_4  and  C_5 
REMARK    3  A    between atoms: C_9  and  N_10 
REMARK    4  A    between atoms: C_13  and  C_14 
ROOT
HETATM    1  C   UNL     1      -6.373   0.074 -32.884  1.00  0.00     0.167 C 
HETATM    2  N   UNL     1      -7.734   0.543 -33.136  1.00  0.00    -0.074 N 
HETATM    3  C   UNL     1      -8.493   1.208 -32.209  1.00  0.00     0.736 A 
HETATM    4  N   UNL     1      -9.592   1.627 -32.779  1.00  0.00     0.131 NA
HETATM    5  C   UNL     1      -9.435   1.235 -34.074  1.00  0.00     0.753 A 
HETATM    6  N   UNL     1      -8.310   0.584 -34.352  1.00  0.00     0.037 NA
HETATM    7  N   UNL     1      -8.061   1.401 -30.945  1.00  0.00    -0.214 N 
HETATM    8  C   UNL     1      -6.671   1.150 -30.589  1.00  0.00     0.135 C 
HETATM    9  C   UNL     1      -6.126  -0.061 -31.368  1.00  0.00     0.063 C 
HETATM   10  H   UNL     1      -8.541   2.111 -30.400  1.00  0.00     0.178 HD
ENDROOT
BRANCH   1  11
HETATM   11  C   UNL     1      -6.071  -1.235 -33.604  1.00  0.00     0.001 A 
HETATM   12  C   UNL     1      -4.746  -1.629 -33.859  1.00  0.00     0.076 A 
HETATM   13  C   UNL     1      -4.484  -2.849 -34.494  1.00  0.00     0.037 A 
HETATM   14  C   UNL     1      -5.533  -3.669 -34.908  1.00  0.00     0.003 A 
HETATM   15  C   UNL     1      -6.849  -3.281 -34.683  1.00  0.00     0.001 A 
HETATM   16  C   UNL     1      -7.118  -2.075 -34.036  1.00  0.00     0.012 A 
BRANCH  12  17
HETATM   17  O   UNL     1      -3.747  -0.806 -33.406  1.00  0.00    -0.355 OA
HETATM   18  C   UNL     1      -3.001  -1.326 -32.307  1.00  0.00     0.210 C 
ENDBRANCH  12  17
ENDBRANCH   1  11
BRANCH   8  19
HETATM   19  C   UNL     1      -5.783   2.381 -30.703  1.00  0.00    -0.035 A 
HETATM   20  C   UNL     1      -4.466   2.220 -31.174  1.00  0.00     0.010 A 
HETATM   21  C   UNL     1      -3.611   3.315 -31.317  1.00  0.00     0.019 A 
HETATM   22  C   UNL     1      -4.064   4.591 -30.993  1.00  0.00     0.011 A 
HETATM   23 BR   UNL     1      -2.910   6.075 -31.188  1.00  0.00    -0.051 Br
HETATM   24  C   UNL     1      -5.361   4.777 -30.528  1.00  0.00     0.019 A 
HETATM   25  C   UNL     1      -6.215   3.679 -30.383  1.00  0.00     0.010 A 
ENDBRANCH   8  19
BRANCH   5  26
HETATM   26  N   UNL     1     -10.399   1.519 -34.946  1.00  0.00    -0.229 N 
HETATM   27  H   UNL     1     -10.480   2.485 -35.229  1.00  0.00     0.174 HD
HETATM   28  H   UNL     1     -11.279   1.038 -34.813  1.00  0.00     0.174 HD
ENDBRANCH   5  26
TORSDOF 4
ENDMDL
MODEL 3
REMARK VINA RESULT:      -8.5     14.590     16.691
REMARK  4 active torsions:
REMARK  status: ('A' for Active; 'I' for Inactive)
REMARK    1  A    between atoms: O_2  and  C_3 
REMARK    2  A    between atoms: C_4  and  C_5 
REMARK    3  A    between atoms: C_9  and  N_10 
REMARK    4  A    between atoms: C_13  and  C_14 
ROOT
HETATM    1  C   UNL     1      -6.797 -13.518 -39.568  1.00  0.00     0.167 C 
HETATM    2  N   UNL     1      -6.021 -13.652 -40.798  1.00  0.00    -0.074 N 
HETATM    3  C   UNL     1      -4.766 -13.128 -40.966  1.00  0.00     0.736 A 
HETATM    4  N   UNL     1      -4.278 -13.545 -42.106  1.00  0.00     0.131 NA
HETATM    5  C   UNL     1      -5.258 -14.366 -42.577  1.00  0.00     0.753 A 
HETATM    6  N   UNL     1      -6.338 -14.482 -41.810  1.00  0.00     0.037 NA
HETATM    7  N   UNL     1      -4.185 -12.361 -40.021  1.00  0.00    -0.214 N 
HETATM    8  C   UNL     1      -4.751 -12.280 -38.680  1.00  0.00     0.135 C 
HETATM    9  C   UNL     1      -6.288 -12.321 -38.742  1.00  0.00     0.063 C 
HETATM   10  H   UNL     1      -3.180 -12.229 -40.091  1.00  0.00     0.178 HD
ENDROOT
BRANCH   1  11
HETATM   11  C   UNL     1      -8.292 -13.398 -39.839  1.00  0.00     0.001 A 
HETATM   12  C   UNL     1      -9.122 -14.533 -39.822  1.00  0.00     0.076 A 
HETATM   13  C   UNL     1     -10.498 -14.403 -40.042  1.00  0.00     0.037 A 
HETATM   14  C   UNL     1     -11.055 -13.153 -40.312  1.00  0.00     0.003 A 
HETATM   15  C   UNL     1     -10.242 -12.025 -40.355  1.00  0.00     0.001 A 
HETATM   16  C   UNL     1      -8.872 -12.145 -40.120  1.00  0.00     0.012 A 
BRANCH  12  17
HETATM   17  O   UNL     1      -8.535 -15.736 -39.521  1.00  0.00    -0.355 OA
HETATM   18  C   UNL     1      -9.411 -16.691 -38.925  1.00  0.00     0.210 C 
ENDBRANCH  12  17
ENDBRANCH   1  11
BRANCH   8  19
HETATM   19  C   UNL     1      -4.164 -13.296 -37.711  1.00  0.00    -0.035 A 
HETATM   20  C   UNL     1      -4.739 -13.414 -36.430  1.00  0.00     0.010 A 
HETATM   21  C   UNL     1      -4.255 -14.341 -35.505  1.00  0.00     0.019 A 
HETATM   22  C   UNL     1      -3.191 -15.169 -35.849  1.00  0.00     0.011 A 
HETATM   23 BR   UNL     1      -2.537 -16.427 -34.599  1.00  0.00    -0.051 Br
HETATM   24  C   UNL     1      -2.608 -15.075 -37.108  1.00  0.00     0.019 A 
HETATM   25  C   UNL     1      -3.091 -14.144 -38.033  1.00  0.00     0.010 A 
ENDBRANCH   8  19
BRANCH   5  26
HETATM   26  N   UNL     1      -5.072 -14.973 -43.747  1.00  0.00    -0.229 N 
HETATM   27  H   UNL     1      -5.126 -14.389 -44.569  1.00  0.00     0.174 HD
HETATM   28  H   UNL     1      -5.487 -15.889 -43.846  1.00  0.00     0.174 HD
ENDBRANCH   5  26
TORSDOF 4
ENDMDL
MODEL 4
REMARK VINA RESULT:      -8.2      3.727      6.918
REMARK  4 active torsions:
REMARK  status: ('A' for Active; 'I' for Inactive)
REMARK    1  A    between atoms: O_2  and  C_3 
REMARK    2  A    between atoms: C_4  and  C_5 
REMARK    3  A    between atoms: C_9  and  N_10 
REMARK    4  A    between atoms: C_13  and  C_14 
ROOT
HETATM    1  C   UNL     1      -5.977   2.454 -31.420  1.00  0.00     0.167 C 
HETATM    2  N   UNL     1      -4.743   3.080 -31.886  1.00  0.00    -0.074 N 
HETATM    3  C   UNL     1      -3.516   2.472 -31.839  1.00  0.00     0.736 A 
HETATM    4  N   UNL     1      -2.645   3.219 -32.465  1.00  0.00     0.131 NA
HETATM    5  C   UNL     1      -3.401   4.255 -32.924  1.00  0.00     0.753 A 
HETATM    6  N   UNL     1      -4.693   4.212 -32.614  1.00  0.00     0.037 NA
HETATM    7  N   UNL     1      -3.345   1.263 -31.264  1.00  0.00    -0.214 N 
HETATM    8  C   UNL     1      -4.495   0.440 -30.913  1.00  0.00     0.135 C 
HETATM    9  C   UNL     1      -5.658   1.321 -30.424  1.00  0.00     0.063 C 
HETATM   10  H   UNL     1      -2.490   0.764 -31.491  1.00  0.00     0.178 HD
ENDROOT
BRANCH   1  11
HETATM   11  C   UNL     1      -6.941   3.463 -30.807  1.00  0.00     0.001 A 
HETATM   12  C   UNL     1      -8.198   3.705 -31.389  1.00  0.00     0.076 A 
HETATM   13  C   UNL     1      -9.085   4.612 -30.797  1.00  0.00     0.037 A 
HETATM   14  C   UNL     1      -8.719   5.308 -29.645  1.00  0.00     0.003 A 
HETATM   15  C   UNL     1      -7.470   5.095 -29.072  1.00  0.00     0.001 A 
HETATM   16  C   UNL     1      -6.587   4.181 -29.647  1.00  0.00     0.012 A 
BRANCH  12  17
HETATM   17  O   UNL     1      -8.526   2.975 -32.502  1.00  0.00    -0.355 OA
HETATM   18  C   UNL     1      -9.546   2.000 -32.295  1.00  0.00     0.210 C 
ENDBRANCH  12  17
ENDBRANCH   1  11
BRANCH   8  19
HETATM   19  C   UNL     1      -4.902  -0.534 -32.010  1.00  0.00    -0.035 A 
HETATM   20  C   UNL     1      -3.941  -1.443 -32.493  1.00  0.00     0.010 A 
HETATM   21  C   UNL     1      -4.261  -2.371 -33.486  1.00  0.00     0.019 A 
HETATM   22  C   UNL     1      -5.551  -2.408 -34.007  1.00  0.00     0.011 A 
HETATM   23 BR   UNL     1      -5.987  -3.665 -35.349  1.00  0.00    -0.051 Br
HETATM   24  C   UNL     1      -6.519  -1.523 -33.545  1.00  0.00     0.019 A 
HETATM   25  C   UNL     1      -6.197  -0.592 -32.553  1.00  0.00     0.010 A 
ENDBRANCH   8  19
BRANCH   5  26
HETATM   26  N   UNL     1      -2.806   5.215 -33.626  1.00  0.00    -0.229 N 
HETATM   27  H   UNL     1      -1.921   4.979 -34.053  1.00  0.00     0.174 HD
HETATM   28  H   UNL     1      -2.857   6.149 -33.240  1.00  0.00     0.174 HD
ENDBRANCH   5  26
TORSDOF 4
ENDMDL
MODEL 5
REMARK VINA RESULT:      -8.2      3.575      6.830
REMARK  4 active torsions:
REMARK  status: ('A' for Active; 'I' for Inactive)
REMARK    1  A    between atoms: O_2  and  C_3 
REMARK    2  A    between atoms: C_4  and  C_5 
REMARK    3  A    between atoms: C_9  and  N_10 
REMARK    4  A    between atoms: C_13  and  C_14 
ROOT
HETATM    1  C   UNL     1      -7.054   3.214 -33.341  1.00  0.00     0.167 C 
HETATM    2  N   UNL     1      -5.761   3.859 -33.555  1.00  0.00    -0.074 N 
HETATM    3  C   UNL     1      -4.610   3.485 -32.914  1.00  0.00     0.736 A 
HETATM    4  N   UNL     1      -3.603   4.142 -33.428  1.00  0.00     0.131 NA
HETATM    5  C   UNL     1      -4.186   4.873 -34.418  1.00  0.00     0.753 A 
HETATM    6  N   UNL     1      -5.501   4.726 -34.552  1.00  0.00     0.037 NA
HETATM    7  N   UNL     1      -4.607   2.535 -31.956  1.00  0.00    -0.214 N 
HETATM    8  C   UNL     1      -5.772   1.683 -31.753  1.00  0.00     0.135 C 
HETATM    9  C   UNL     1      -7.068   2.479 -31.986  1.00  0.00     0.063 C 
HETATM   10  H   UNL     1      -3.708   2.128 -31.716  1.00  0.00     0.178 HD
ENDROOT
BRANCH   1  11
HETATM   11  C   UNL     1      -8.214   4.198 -33.440  1.00  0.00     0.001 A 
HETATM   12  C   UNL     1      -9.415   3.836 -34.074  1.00  0.00     0.076 A 
HETATM   13  C   UNL     1     -10.483   4.740 -34.130  1.00  0.00     0.037 A 
HETATM   14  C   UNL     1     -10.355   6.018 -33.586  1.00  0.00     0.003 A 
HETATM   15  C   UNL     1      -9.164   6.397 -32.975  1.00  0.00     0.001 A 
HETATM   16  C   UNL     1      -8.102   5.496 -32.902  1.00  0.00     0.012 A 
BRANCH  12  17
HETATM   17  O   UNL     1      -9.506   2.560 -34.567  1.00  0.00    -0.355 OA
HETATM   18  C   UNL     1     -10.443   1.726 -33.888  1.00  0.00     0.210 C 
ENDBRANCH  12  17
ENDBRANCH   1  11
BRANCH   8  19
HETATM   19  C   UNL     1      -5.719   0.384 -32.544  1.00  0.00    -0.035 A 
HETATM   20  C   UNL     1      -6.928  -0.174 -33.004  1.00  0.00     0.010 A 
HETATM   21  C   UNL     1      -6.941  -1.354 -33.750  1.00  0.00     0.019 A 
HETATM   22  C   UNL     1      -5.742  -1.993 -34.051  1.00  0.00     0.011 A 
HETATM   23 BR   UNL     1      -5.757  -3.590 -35.063  1.00  0.00    -0.051 Br
HETATM   24  C   UNL     1      -4.534  -1.462 -33.611  1.00  0.00     0.019 A 
HETATM   25  C   UNL     1      -4.523  -0.282 -32.862  1.00  0.00     0.010 A 
ENDBRANCH   8  19
BRANCH   5  26
HETATM   26  N   UNL     1      -3.418   5.669 -35.159  1.00  0.00    -0.229 N 
HETATM   27  H   UNL     1      -3.690   5.783 -36.125  1.00  0.00     0.174 HD
HETATM   28  H   UNL     1      -2.422   5.603 -35.001  1.00  0.00     0.174 HD
ENDBRANCH   5  26
TORSDOF 4
ENDMDL
MODEL 6
REMARK VINA RESULT:      -8.1      8.610     10.929
REMARK  4 active torsions:
REMARK  status: ('A' for Active; 'I' for Inactive)
REMARK    1  A    between atoms: O_2  and  C_3 
REMARK    2  A    between atoms: C_4  and  C_5 
REMARK    3  A    between atoms: C_9  and  N_10 
REMARK    4  A    between atoms: C_13  and  C_14 
ROOT
HETATM    1  C   UNL     1      -1.119   7.390 -29.606  1.00  0.00     0.167 C 
HETATM    2  N   UNL     1      -1.875   8.586 -29.968  1.00  0.00    -0.074 N 
HETATM    3  C   UNL     1      -2.192   8.924 -31.258  1.00  0.00     0.736 A 
HETATM    4  N   UNL     1      -2.998   9.954 -31.243  1.00  0.00     0.131 NA
HETATM    5  C   UNL     1      -3.185  10.179 -29.913  1.00  0.00     0.753 A 
HETATM    6  N   UNL     1      -2.537   9.362 -29.088  1.00  0.00     0.037 NA
HETATM    7  N   UNL     1      -1.742   8.209 -32.309  1.00  0.00    -0.214 N 
HETATM    8  C   UNL     1      -1.128   6.903 -32.110  1.00  0.00     0.135 C 
HETATM    9  C   UNL     1      -0.302   6.889 -30.813  1.00  0.00     0.063 C 
HETATM   10  H   UNL     1      -2.217   8.350 -33.197  1.00  0.00     0.178 HD
ENDROOT
BRANCH   1  11
HETATM   11  C   UNL     1      -0.222   7.620 -28.396  1.00  0.00     0.001 A 
HETATM   12  C   UNL     1      -0.602   7.169 -27.120  1.00  0.00     0.076 A 
HETATM   13  C   UNL     1       0.247   7.360 -26.023  1.00  0.00     0.037 A 
HETATM   14  C   UNL     1       1.463   8.025 -26.179  1.00  0.00     0.003 A 
HETATM   15  C   UNL     1       1.841   8.496 -27.431  1.00  0.00     0.001 A 
HETATM   16  C   UNL     1       1.008   8.296 -28.532  1.00  0.00     0.012 A 
BRANCH  12  17
HETATM   17  O   UNL     1      -1.791   6.493 -27.021  1.00  0.00    -0.355 OA
HETATM   18  C   UNL     1      -2.703   7.032 -26.067  1.00  0.00     0.210 C 
ENDBRANCH  12  17
ENDBRANCH   1  11
BRANCH   8  19
HETATM   19  C   UNL     1      -2.116   5.748 -32.202  1.00  0.00    -0.035 A 
HETATM   20  C   UNL     1      -3.248   5.895 -33.027  1.00  0.00     0.010 A 
HETATM   21  C   UNL     1      -4.180   4.863 -33.165  1.00  0.00     0.019 A 
HETATM   22  C   UNL     1      -3.989   3.666 -32.482  1.00  0.00     0.011 A 
HETATM   23 BR   UNL     1      -5.247   2.268 -32.669  1.00  0.00    -0.051 Br
HETATM   24  C   UNL     1      -2.879   3.495 -31.663  1.00  0.00     0.019 A 
HETATM   25  C   UNL     1      -1.948   4.529 -31.523  1.00  0.00     0.010 A 
ENDBRANCH   8  19
BRANCH   5  26
HETATM   26  N   UNL     1      -3.978  11.181 -29.542  1.00  0.00    -0.229 N 
HETATM   27  H   UNL     1      -4.953  11.100 -29.794  1.00  0.00     0.174 HD
HETATM   28  H   UNL     1      -3.593  12.112 -29.626  1.00  0.00     0.174 HD
ENDBRANCH   5  26
TORSDOF 4
ENDMDL
MODEL 7
REMARK VINA RESULT:      -8.1      4.542      7.054
REMARK  4 active torsions:
REMARK  status: ('A' for Active; 'I' for Inactive)
REMARK    1  A    between atoms: O_2  and  C_3 
REMARK    2  A    between atoms: C_4  and  C_5 
REMARK    3  A    between atoms: C_9  and  N_10 
REMARK    4  A    between atoms: C_13  and  C_14 
ROOT
HETATM    1  C   UNL     1      -7.057   3.080 -31.766  1.00  0.00     0.167 C 
HETATM    2  N   UNL     1      -7.528   3.902 -30.654  1.00  0.00    -0.074 N 
HETATM    3  C   UNL     1      -6.770   4.197 -29.552  1.00  0.00     0.736 A 
HETATM    4  N   UNL     1      -7.407   5.070 -28.817  1.00  0.00     0.131 NA
HETATM    5  C   UNL     1      -8.534   5.318 -29.540  1.00  0.00     0.753 A 
HETATM    6  N   UNL     1      -8.652   4.644 -30.681  1.00  0.00     0.037 NA
HETATM    7  N   UNL     1      -5.544   3.664 -29.371  1.00  0.00    -0.214 N 
HETATM    8  C   UNL     1      -4.868   2.971 -30.460  1.00  0.00     0.135 C 
HETATM    9  C   UNL     1      -5.883   2.190 -31.313  1.00  0.00     0.063 C 
HETATM   10  H   UNL     1      -4.943   4.117 -28.688  1.00  0.00     0.178 HD
ENDROOT
BRANCH   1  11
HETATM   11  C   UNL     1      -8.174   2.242 -32.377  1.00  0.00     0.001 A 
HETATM   12  C   UNL     1      -8.838   2.665 -33.542  1.00  0.00     0.076 A 
HETATM   13  C   UNL     1      -9.841   1.869 -34.109  1.00  0.00     0.037 A 
HETATM   14  C   UNL     1     -10.212   0.666 -33.509  1.00  0.00     0.003 A 
HETATM   15  C   UNL     1      -9.578   0.247 -32.344  1.00  0.00     0.001 A 
HETATM   16  C   UNL     1      -8.567   1.026 -31.782  1.00  0.00     0.012 A 
BRANCH  12  17
HETATM   17  O   UNL     1      -8.419   3.838 -34.114  1.00  0.00    -0.355 OA
HETATM   18  C   UNL     1      -9.446   4.810 -34.296  1.00  0.00     0.210 C 
ENDBRANCH  12  17
ENDBRANCH   1  11
BRANCH   8  19
HETATM   19  C   UNL     1      -3.964   3.875 -31.287  1.00  0.00    -0.035 A 
HETATM   20  C   UNL     1      -3.271   3.316 -32.379  1.00  0.00     0.010 A 
HETATM   21  C   UNL     1      -2.441   4.100 -33.184  1.00  0.00     0.019 A 
HETATM   22  C   UNL     1      -2.296   5.456 -32.912  1.00  0.00     0.011 A 
HETATM   23 BR   UNL     1      -1.177   6.519 -34.002  1.00  0.00    -0.051 Br
HETATM   24  C   UNL     1      -2.972   6.033 -31.841  1.00  0.00     0.019 A 
HETATM   25  C   UNL     1      -3.800   5.247 -31.034  1.00  0.00     0.010 A 
ENDBRANCH   8  19
BRANCH   5  26
HETATM   26  N   UNL     1      -9.420   6.189 -29.063  1.00  0.00    -0.229 N 
HETATM   27  H   UNL     1      -9.324   7.144 -29.377  1.00  0.00     0.174 HD
HETATM   28  H   UNL     1      -9.672   6.083 -28.090  1.00  0.00     0.174 HD
ENDBRANCH   5  26
TORSDOF 4
ENDMDL
MODEL 8
REMARK VINA RESULT:      -7.9      1.544      2.655
REMARK  4 active torsions:
REMARK  status: ('A' for Active; 'I' for Inactive)
REMARK    1  A    between atoms: O_2  and  C_3 
REMARK    2  A    between atoms: C_4  and  C_5 
REMARK    3  A    between atoms: C_9  and  N_10 
REMARK    4  A    between atoms: C_13  and  C_14 
ROOT
HETATM    1  C   UNL     1      -7.100   1.380 -32.741  1.00  0.00     0.167 C 
HETATM    2  N   UNL     1      -7.126   2.478 -31.779  1.00  0.00    -0.074 N 
HETATM    3  C   UNL     1      -7.755   3.674 -32.006  1.00  0.00     0.736 A 
HETATM    4  N   UNL     1      -7.733   4.383 -30.908  1.00  0.00     0.131 NA
HETATM    5  C   UNL     1      -7.120   3.554 -30.018  1.00  0.00     0.753 A 
HETATM    6  N   UNL     1      -6.743   2.370 -30.492  1.00  0.00     0.037 NA
HETATM    7  N   UNL     1      -8.329   3.959 -33.193  1.00  0.00    -0.214 N 
HETATM    8  C   UNL     1      -8.539   2.913 -34.186  1.00  0.00     0.135 C 
HETATM    9  C   UNL     1      -7.374   1.909 -34.163  1.00  0.00     0.063 C 
HETATM   10  H   UNL     1      -8.990   4.731 -33.210  1.00  0.00     0.178 HD
ENDROOT
BRANCH   1  11
HETATM   11  C   UNL     1      -5.792   0.600 -32.691  1.00  0.00     0.001 A 
HETATM   12  C   UNL     1      -5.762  -0.778 -32.971  1.00  0.00     0.076 A 
HETATM   13  C   UNL     1      -4.548  -1.475 -32.951  1.00  0.00     0.037 A 
HETATM   14  C   UNL     1      -3.362  -0.817 -32.625  1.00  0.00     0.003 A 
HETATM   15  C   UNL     1      -3.380   0.540 -32.325  1.00  0.00     0.001 A 
HETATM   16  C   UNL     1      -4.583   1.245 -32.357  1.00  0.00     0.012 A 
BRANCH  12  17
HETATM   17  O   UNL     1      -6.947  -1.375 -33.317  1.00  0.00    -0.355 OA
HETATM   18  C   UNL     1      -6.846  -2.326 -34.375  1.00  0.00     0.210 C 
ENDBRANCH  12  17
ENDBRANCH   1  11
BRANCH   8  19
HETATM   19  C   UNL     1      -9.904   2.248 -34.088  1.00  0.00    -0.035 A 
HETATM   20  C   UNL     1     -11.011   2.892 -34.675  1.00  0.00     0.010 A 
HETATM   21  C   UNL     1     -12.285   2.321 -34.632  1.00  0.00     0.019 A 
HETATM   22  C   UNL     1     -12.470   1.093 -34.005  1.00  0.00     0.011 A 
HETATM   23 BR   UNL     1     -14.192   0.317 -33.948  1.00  0.00    -0.051 Br
HETATM   24  C   UNL     1     -11.393   0.435 -33.420  1.00  0.00     0.019 A 
HETATM   25  C   UNL     1     -10.118   1.009 -33.460  1.00  0.00     0.010 A 
ENDBRANCH   8  19
BRANCH   5  26
HETATM   26  N   UNL     1      -6.939   3.980 -28.771  1.00  0.00    -0.229 N 
HETATM   27  H   UNL     1      -7.034   4.974 -28.617  1.00  0.00     0.174 HD
HETATM   28  H   UNL     1      -6.194   3.537 -28.250  1.00  0.00     0.174 HD
ENDBRANCH   5  26
TORSDOF 4
ENDMDL
MODEL 9
REMARK VINA RESULT:      -7.9     14.058     15.770
REMARK  4 active torsions:
REMARK  status: ('A' for Active; 'I' for Inactive)
REMARK    1  A    between atoms: O_2  and  C_3 
REMARK    2  A    between atoms: C_4  and  C_5 
REMARK    3  A    between atoms: C_9  and  N_10 
REMARK    4  A    between atoms: C_13  and  C_14 
ROOT
HETATM    1  C   UNL     1      -3.444 -14.115 -38.459  1.00  0.00     0.167 C 
HETATM    2  N   UNL     1      -3.592 -14.533 -37.067  1.00  0.00    -0.074 N 
HETATM    3  C   UNL     1      -4.349 -13.858 -36.146  1.00  0.00     0.736 A 
HETATM    4  N   UNL     1      -4.407 -14.559 -35.044  1.00  0.00     0.131 NA
HETATM    5  C   UNL     1      -3.707 -15.684 -35.359  1.00  0.00     0.753 A 
HETATM    6  N   UNL     1      -3.202 -15.730 -36.588  1.00  0.00     0.037 NA
HETATM    7  N   UNL     1      -4.950 -12.687 -36.443  1.00  0.00    -0.214 N 
HETATM    8  C   UNL     1      -5.041 -12.229 -37.824  1.00  0.00     0.135 C 
HETATM    9  C   UNL     1      -3.772 -12.616 -38.604  1.00  0.00     0.063 C 
HETATM   10  H   UNL     1      -5.692 -12.380 -35.821  1.00  0.00     0.178 HD
ENDROOT
BRANCH   1  11
HETATM   11  C   UNL     1      -2.057 -14.426 -39.010  1.00  0.00     0.001 A 
HETATM   12  C   UNL     1      -1.902 -15.172 -40.191  1.00  0.00     0.076 A 
HETATM   13  C   UNL     1      -0.623 -15.423 -40.702  1.00  0.00     0.037 A 
HETATM   14  C   UNL     1       0.509 -14.963 -40.030  1.00  0.00     0.003 A 
HETATM   15  C   UNL     1       0.370 -14.243 -38.848  1.00  0.00     0.001 A 
HETATM   16  C   UNL     1      -0.901 -13.975 -38.341  1.00  0.00     0.012 A 
BRANCH  12  17
HETATM   17  O   UNL     1      -3.043 -15.576 -40.834  1.00  0.00    -0.355 OA
HETATM   18  C   UNL     1      -3.279 -14.934 -42.085  1.00  0.00     0.210 C 
ENDBRANCH  12  17
ENDBRANCH   1  11
BRANCH   8  19
HETATM   19  C   UNL     1      -6.325 -12.657 -38.521  1.00  0.00    -0.035 A 
HETATM   20  C   UNL     1      -7.408 -13.089 -37.731  1.00  0.00     0.010 A 
HETATM   21  C   UNL     1      -8.617 -13.477 -38.313  1.00  0.00     0.019 A 
HETATM   22  C   UNL     1      -8.762 -13.433 -39.696  1.00  0.00     0.011 A 
HETATM   23 BR   UNL     1     -10.398 -13.955 -40.486  1.00  0.00    -0.051 Br
HETATM   24  C   UNL     1      -7.709 -13.008 -40.499  1.00  0.00     0.019 A 
HETATM   25  C   UNL     1      -6.498 -12.623 -39.915  1.00  0.00     0.010 A 
ENDBRANCH   8  19
BRANCH   5  26
HETATM   26  N   UNL     1      -3.576 -16.632 -34.434  1.00  0.00    -0.229 N 
HETATM   27  H   UNL     1      -3.578 -17.586 -34.765  1.00  0.00     0.174 HD
HETATM   28  H   UNL     1      -4.071 -16.481 -33.565  1.00  0.00     0.174 HD
ENDBRANCH   5  26
TORSDOF 4
ENDMDL
MODEL 10
REMARK VINA RESULT:      -7.9      4.126      7.182
REMARK  4 active torsions:
REMARK  status: ('A' for Active; 'I' for Inactive)
REMARK    1  A    between atoms: O_2  and  C_3 
REMARK    2  A    between atoms: C_4  and  C_5 
REMARK    3  A    between atoms: C_9  and  N_10 
REMARK    4  A    between atoms: C_13  and  C_14 
ROOT
HETATM    1  C   UNL     1      -5.771   3.512 -32.280  1.00  0.00     0.167 C 
HETATM    2  N   UNL     1      -4.417   3.929 -32.636  1.00  0.00    -0.074 N 
HETATM    3  C   UNL     1      -3.288   3.250 -32.258  1.00  0.00     0.736 A 
HETATM    4  N   UNL     1      -2.252   3.779 -32.856  1.00  0.00     0.131 NA
HETATM    5  C   UNL     1      -2.807   4.751 -33.632  1.00  0.00     0.753 A 
HETATM    6  N   UNL     1      -4.129   4.876 -33.550  1.00  0.00     0.037 NA
HETATM    7  N   UNL     1      -3.345   2.180 -31.440  1.00  0.00    -0.214 N 
HETATM    8  C   UNL     1      -4.620   1.540 -31.142  1.00  0.00     0.135 C 
HETATM    9  C   UNL     1      -5.739   2.592 -31.044  1.00  0.00     0.063 C 
HETATM   10  H   UNL     1      -2.526   1.579 -31.413  1.00  0.00     0.178 HD
ENDROOT
BRANCH   1  11
HETATM   11  C   UNL     1      -6.699   4.700 -32.053  1.00  0.00     0.001 A 
HETATM   12  C   UNL     1      -7.751   4.973 -32.943  1.00  0.00     0.076 A 
HETATM   13  C   UNL     1      -8.615   6.049 -32.705  1.00  0.00     0.037 A 
HETATM   14  C   UNL     1      -8.421   6.878 -31.600  1.00  0.00     0.003 A 
HETATM   15  C   UNL     1      -7.370   6.632 -30.723  1.00  0.00     0.001 A 
HETATM   16  C   UNL     1      -6.515   5.553 -30.946  1.00  0.00     0.012 A 
BRANCH  12  17
HETATM   17  O   UNL     1      -7.922   4.113 -33.998  1.00  0.00    -0.355 OA
HETATM   18  C   UNL     1      -9.115   3.334 -33.942  1.00  0.00     0.210 C 
ENDBRANCH  12  17
ENDBRANCH   1  11
BRANCH   8  19
HETATM   19  C   UNL     1      -4.958   0.393 -32.083  1.00  0.00    -0.035 A 
HETATM   20  C   UNL     1      -3.903  -0.282 -32.727  1.00  0.00     0.010 A 
HETATM   21  C   UNL     1      -4.151  -1.354 -33.588  1.00  0.00     0.019 A 
HETATM   22  C   UNL     1      -5.459  -1.770 -33.813  1.00  0.00     0.011 A 
HETATM   23 BR   UNL     1      -5.797  -3.221 -34.975  1.00  0.00    -0.051 Br
HETATM   24  C   UNL     1      -6.519  -1.122 -33.187  1.00  0.00     0.019 A 
HETATM   25  C   UNL     1      -6.270  -0.047 -32.328  1.00  0.00     0.010 A 
ENDBRANCH   8  19
BRANCH   5  26
HETATM   26  N   UNL     1      -2.007   5.494 -34.392  1.00  0.00    -0.229 N 
HETATM   27  H   UNL     1      -1.281   6.007 -33.913  1.00  0.00     0.174 HD
HETATM   28  H   UNL     1      -2.448   5.990 -35.154  1.00  0.00     0.174 HD
ENDBRANCH   5  26
TORSDOF 4
ENDMDL
