MODEL 1
REMARK VINA RESULT:      -8.4      0.000      0.000
REMARK  2 active torsions:
REMARK  status: ('A' for Active; 'I' for Inactive)
REMARK    1  A    between atoms: C_5  and  C_7 
REMARK    2  A    between atoms: C_5  and  O_6 
ROOT
HETATM    1  C   UNL     1      -5.185   5.493 -30.928  1.00  0.00     0.050 C 
HETATM    2  C   UNL     1      -5.545   4.397 -31.880  1.00  0.00    -0.035 A 
HETATM    3  C   UNL     1      -5.741   3.078 -31.502  1.00  0.00     0.051 A 
HETATM    4  C   UNL     1      -6.083   2.074 -32.419  1.00  0.00     0.018 A 
HETATM    5  C   UNL     1      -6.289   0.764 -31.686  1.00  0.00     0.199 A 
HETATM    6  C   UNL     1      -5.915   1.166 -30.219  1.00  0.00     0.266 A 
HETATM    7  O   UNL     1      -5.906   0.473 -29.213  1.00  0.00    -0.269 OA
HETATM    8  N   UNL     1      -5.648   2.537 -30.225  1.00  0.00    -0.323 N 
HETATM    9  C   UNL     1      -6.248   2.373 -33.763  1.00  0.00     0.013 A 
HETATM   10  C   UNL     1      -6.048   3.690 -34.174  1.00  0.00     0.001 A 
HETATM   11  C   UNL     1      -5.702   4.688 -33.245  1.00  0.00     0.009 A 
HETATM   12  H   UNL     1      -5.402   3.033 -29.383  1.00  0.00     0.169 HD
ENDROOT
BRANCH   5  13
HETATM   13  C   UNL     1      -5.356  -0.259 -32.294  1.00  0.00     0.025 A 
HETATM   14  C   UNL     1      -5.686  -1.299 -33.248  1.00  0.00     0.003 A 
HETATM   15  C   UNL     1      -4.512  -1.992 -33.544  1.00  0.00     0.043 A 
HETATM   16  C   UNL     1      -6.871  -1.719 -33.894  1.00  0.00     0.014 A 
HETATM   17  C   UNL     1      -4.459  -3.066 -34.441  1.00  0.00     0.030 A 
HETATM   18  N   UNL     1      -3.506  -1.416 -32.812  1.00  0.00    -0.359 N 
HETATM   19  C   UNL     1      -5.646  -3.453 -35.064  1.00  0.00     0.002 A 
HETATM   20  C   UNL     1      -6.837  -2.790 -34.795  1.00  0.00     0.001 A 
HETATM   21  H   UNL     1      -2.541  -1.713 -32.843  1.00  0.00     0.166 HD
HETATM   22  C   UNL     1      -3.987  -0.382 -32.052  1.00  0.00     0.016 A 
HETATM   23  C   UNL     1      -3.072   0.403 -31.180  1.00  0.00     0.069 C 
ENDBRANCH   5  13
BRANCH   5  24
HETATM   24  O   UNL     1      -7.669   0.410 -31.771  1.00  0.00    -0.371 OA
HETATM   25  H   UNL     1      -7.719  -0.546 -31.611  1.00  0.00     0.212 HD
ENDBRANCH   5  24
TORSDOF 2
ENDMDL
MODEL 2
REMARK VINA RESULT:      -8.2      1.842      2.626
REMARK  2 active torsions:
REMARK  status: ('A' for Active; 'I' for Inactive)
REMARK    1  A    between atoms: C_5  and  C_7 
REMARK    2  A    between atoms: C_5  and  O_6 
ROOT
HETATM    1  C   UNL     1      -2.398   4.216 -31.874  1.00  0.00     0.050 C 
HETATM    2  C   UNL     1      -3.742   3.930 -32.468  1.00  0.00    -0.035 A 
HETATM    3  C   UNL     1      -4.648   3.030 -31.931  1.00  0.00     0.051 A 
HETATM    4  C   UNL     1      -5.902   2.788 -32.510  1.00  0.00     0.018 A 
HETATM    5  C   UNL     1      -6.678   1.808 -31.654  1.00  0.00     0.199 A 
HETATM    6  C   UNL     1      -5.624   1.460 -30.547  1.00  0.00     0.266 A 
HETATM    7  O   UNL     1      -5.734   0.701 -29.596  1.00  0.00    -0.269 OA
HETATM    8  N   UNL     1      -4.500   2.252 -30.789  1.00  0.00    -0.323 N 
HETATM    9  C   UNL     1      -6.290   3.460 -33.659  1.00  0.00     0.013 A 
HETATM   10  C   UNL     1      -5.394   4.365 -34.227  1.00  0.00     0.001 A 
HETATM   11  C   UNL     1      -4.138   4.597 -33.639  1.00  0.00     0.009 A 
HETATM   12  H   UNL     1      -3.689   2.219 -30.191  1.00  0.00     0.169 HD
ENDROOT
BRANCH   5  13
HETATM   13  C   UNL     1      -7.059   0.631 -32.524  1.00  0.00     0.025 A 
HETATM   14  C   UNL     1      -6.179  -0.372 -33.087  1.00  0.00     0.003 A 
HETATM   15  C   UNL     1      -6.966  -1.274 -33.804  1.00  0.00     0.043 A 
HETATM   16  C   UNL     1      -4.785  -0.605 -33.056  1.00  0.00     0.014 A 
HETATM   17  C   UNL     1      -6.442  -2.383 -34.480  1.00  0.00     0.030 A 
HETATM   18  N   UNL     1      -8.265  -0.853 -33.694  1.00  0.00    -0.359 N 
HETATM   19  C   UNL     1      -5.063  -2.586 -34.427  1.00  0.00     0.002 A 
HETATM   20  C   UNL     1      -4.243  -1.710 -33.725  1.00  0.00     0.001 A 
HETATM   21  H   UNL     1      -9.053  -1.332 -34.108  1.00  0.00     0.166 HD
HETATM   22  C   UNL     1      -8.346   0.287 -32.939  1.00  0.00     0.016 A 
HETATM   23  C   UNL     1      -9.665   0.925 -32.673  1.00  0.00     0.069 C 
ENDBRANCH   5  13
BRANCH   5  24
HETATM   24  O   UNL     1      -7.794   2.489 -31.083  1.00  0.00    -0.371 OA
HETATM   25  H   UNL     1      -7.822   2.237 -30.146  1.00  0.00     0.212 HD
ENDBRANCH   5  24
TORSDOF 2
ENDMDL
MODEL 3
REMARK VINA RESULT:      -8.1     15.082     16.727
REMARK  2 active torsions:
REMARK  status: ('A' for Active; 'I' for Inactive)
REMARK    1  A    between atoms: C_5  and  C_7 
REMARK    2  A    between atoms: C_5  and  O_6 
ROOT
HETATM    1  C   UNL     1      -0.839 -14.969 -40.950  1.00  0.00     0.050 C 
HETATM    2  C   UNL     1      -2.261 -14.641 -41.280  1.00  0.00    -0.035 A 
HETATM    3  C   UNL     1      -3.084 -13.872 -40.473  1.00  0.00     0.051 A 
HETATM    4  C   UNL     1      -4.412 -13.578 -40.815  1.00  0.00     0.018 A 
HETATM    5  C   UNL     1      -5.018 -12.668 -39.766  1.00  0.00     0.199 A 
HETATM    6  C   UNL     1      -3.849 -12.570 -38.726  1.00  0.00     0.266 A 
HETATM    7  O   UNL     1      -3.812 -11.954 -37.672  1.00  0.00    -0.269 OA
HETATM    8  N   UNL     1      -2.769 -13.278 -39.257  1.00  0.00    -0.323 N 
HETATM    9  C   UNL     1      -4.958 -14.052 -41.998  1.00  0.00     0.013 A 
HETATM   10  C   UNL     1      -4.156 -14.837 -42.825  1.00  0.00     0.001 A 
HETATM   11  C   UNL     1      -2.826 -15.127 -42.471  1.00  0.00     0.009 A 
HETATM   12  H   UNL     1      -1.887 -13.341 -38.773  1.00  0.00     0.169 HD
ENDROOT
BRANCH   5  13
HETATM   13  C   UNL     1      -6.259 -13.343 -39.226  1.00  0.00     0.025 A 
HETATM   14  C   UNL     1      -7.640 -13.007 -39.505  1.00  0.00     0.003 A 
HETATM   15  C   UNL     1      -8.446 -13.907 -38.807  1.00  0.00     0.043 A 
HETATM   16  C   UNL     1      -8.288 -12.024 -40.288  1.00  0.00     0.014 A 
HETATM   17  C   UNL     1      -9.846 -13.879 -38.852  1.00  0.00     0.030 A 
HETATM   18  N   UNL     1      -7.611 -14.756 -38.129  1.00  0.00    -0.359 N 
HETATM   19  C   UNL     1     -10.453 -12.899 -39.636  1.00  0.00     0.002 A 
HETATM   20  C   UNL     1      -9.686 -11.982 -40.346  1.00  0.00     0.001 A 
HETATM   21  H   UNL     1      -7.929 -15.520 -37.549  1.00  0.00     0.166 HD
HETATM   22  C   UNL     1      -6.299 -14.435 -38.358  1.00  0.00     0.016 A 
HETATM   23  C   UNL     1      -5.207 -15.230 -37.732  1.00  0.00     0.069 C 
ENDBRANCH   5  13
BRANCH   5  24
HETATM   24  O   UNL     1      -5.265 -11.395 -40.360  1.00  0.00    -0.371 OA
HETATM   25  H   UNL     1      -4.605 -11.285 -41.063  1.00  0.00     0.212 HD
ENDBRANCH   5  24
TORSDOF 2
ENDMDL
MODEL 4
REMARK VINA RESULT:      -8.1      2.409      3.469
REMARK  2 active torsions:
REMARK  status: ('A' for Active; 'I' for Inactive)
REMARK    1  A    between atoms: C_5  and  C_7 
REMARK    2  A    between atoms: C_5  and  O_6 
ROOT
HETATM    1  C   UNL     1      -1.064   5.092 -32.339  1.00  0.00     0.050 C 
HETATM    2  C   UNL     1      -2.367   4.917 -33.054  1.00  0.00    -0.035 A 
HETATM    3  C   UNL     1      -3.472   4.288 -32.502  1.00  0.00     0.051 A 
HETATM    4  C   UNL     1      -4.681   4.145 -33.197  1.00  0.00     0.018 A 
HETATM    5  C   UNL     1      -5.707   3.477 -32.303  1.00  0.00     0.199 A 
HETATM    6  C   UNL     1      -4.854   3.179 -31.022  1.00  0.00     0.266 A 
HETATM    7  O   UNL     1      -5.198   2.638 -29.982  1.00  0.00    -0.269 OA
HETATM    8  N   UNL     1      -3.587   3.723 -31.238  1.00  0.00    -0.323 N 
HETATM    9  C   UNL     1      -4.819   4.644 -34.483  1.00  0.00     0.013 A 
HETATM   10  C   UNL     1      -3.721   5.274 -35.067  1.00  0.00     0.001 A 
HETATM   11  C   UNL     1      -2.511   5.409 -34.362  1.00  0.00     0.009 A 
HETATM   12  H   UNL     1      -2.862   3.674 -30.539  1.00  0.00     0.169 HD
ENDROOT
BRANCH   5  13
HETATM   13  C   UNL     1      -6.200   2.235 -33.010  1.00  0.00     0.025 A 
HETATM   14  C   UNL     1      -5.509   0.970 -33.159  1.00  0.00     0.003 A 
HETATM   15  C   UNL     1      -6.348   0.108 -33.865  1.00  0.00     0.043 A 
HETATM   16  C   UNL     1      -4.248   0.471 -32.760  1.00  0.00     0.014 A 
HETATM   17  C   UNL     1      -6.002  -1.211 -34.185  1.00  0.00     0.030 A 
HETATM   18  N   UNL     1      -7.499   0.799 -34.140  1.00  0.00    -0.359 N 
HETATM   19  C   UNL     1      -4.751  -1.673 -33.774  1.00  0.00     0.002 A 
HETATM   20  C   UNL     1      -3.884  -0.846 -33.071  1.00  0.00     0.001 A 
HETATM   21  H   UNL     1      -8.290   0.409 -34.634  1.00  0.00     0.166 HD
HETATM   22  C   UNL     1      -7.432   2.075 -33.646  1.00  0.00     0.016 A 
HETATM   23  C   UNL     1      -8.575   3.013 -33.816  1.00  0.00     0.069 C 
ENDBRANCH   5  13
BRANCH   5  24
HETATM   24  O   UNL     1      -6.735   4.422 -32.009  1.00  0.00    -0.371 OA
HETATM   25  H   UNL     1      -7.349   4.404 -32.761  1.00  0.00     0.212 HD
ENDBRANCH   5  24
TORSDOF 2
ENDMDL
MODEL 5
REMARK VINA RESULT:      -7.9      1.826      5.896
REMARK  2 active torsions:
REMARK  status: ('A' for Active; 'I' for Inactive)
REMARK    1  A    between atoms: C_5  and  C_7 
REMARK    2  A    between atoms: C_5  and  O_6 
ROOT
HETATM    1  C   UNL     1      -5.298  -2.733 -34.446  1.00  0.00     0.050 C 
HETATM    2  C   UNL     1      -5.672  -1.296 -34.254  1.00  0.00    -0.035 A 
HETATM    3  C   UNL     1      -5.035  -0.444 -33.367  1.00  0.00     0.051 A 
HETATM    4  C   UNL     1      -5.407   0.899 -33.215  1.00  0.00     0.018 A 
HETATM    5  C   UNL     1      -4.481   1.576 -32.224  1.00  0.00     0.199 A 
HETATM    6  C   UNL     1      -3.583   0.374 -31.769  1.00  0.00     0.266 A 
HETATM    7  O   UNL     1      -2.664   0.367 -30.964  1.00  0.00    -0.269 OA
HETATM    8  N   UNL     1      -3.972  -0.736 -32.521  1.00  0.00    -0.323 N 
HETATM    9  C   UNL     1      -6.442   1.434 -33.967  1.00  0.00     0.013 A 
HETATM   10  C   UNL     1      -7.108   0.597 -34.861  1.00  0.00     0.001 A 
HETATM   11  C   UNL     1      -6.728  -0.750 -35.003  1.00  0.00     0.009 A 
HETATM   12  H   UNL     1      -3.520  -1.631 -32.419  1.00  0.00     0.169 HD
ENDROOT
BRANCH   5  13
HETATM   13  C   UNL     1      -5.330   2.157 -31.117  1.00  0.00     0.025 A 
HETATM   14  C   UNL     1      -5.440   3.547 -30.724  1.00  0.00     0.003 A 
HETATM   15  C   UNL     1      -6.351   3.620 -29.671  1.00  0.00     0.043 A 
HETATM   16  C   UNL     1      -4.853   4.755 -31.163  1.00  0.00     0.014 A 
HETATM   17  C   UNL     1      -6.706   4.821 -29.044  1.00  0.00     0.030 A 
HETATM   18  N   UNL     1      -6.785   2.344 -29.421  1.00  0.00    -0.359 N 
HETATM   19  C   UNL     1      -6.111   5.996 -29.504  1.00  0.00     0.002 A 
HETATM   20  C   UNL     1      -5.196   5.966 -30.549  1.00  0.00     0.001 A 
HETATM   21  H   UNL     1      -7.464   2.105 -28.712  1.00  0.00     0.166 HD
HETATM   22  C   UNL     1      -6.184   1.451 -30.268  1.00  0.00     0.016 A 
HETATM   23  C   UNL     1      -6.509  -0.000 -30.190  1.00  0.00     0.069 C 
ENDBRANCH   5  13
BRANCH   5  24
HETATM   24  O   UNL     1      -3.700   2.544 -32.923  1.00  0.00    -0.371 OA
HETATM   25  H   UNL     1      -2.885   2.094 -33.200  1.00  0.00     0.212 HD
ENDBRANCH   5  24
TORSDOF 2
ENDMDL
MODEL 6
REMARK VINA RESULT:      -7.6      2.866      3.802
REMARK  2 active torsions:
REMARK  status: ('A' for Active; 'I' for Inactive)
REMARK    1  A    between atoms: C_5  and  C_7 
REMARK    2  A    between atoms: C_5  and  O_6 
ROOT
HETATM    1  C   UNL     1      -2.243   7.979 -32.001  1.00  0.00     0.050 C 
HETATM    2  C   UNL     1      -2.619   6.866 -32.929  1.00  0.00    -0.035 A 
HETATM    3  C   UNL     1      -3.765   6.099 -32.790  1.00  0.00     0.051 A 
HETATM    4  C   UNL     1      -4.091   5.065 -33.680  1.00  0.00     0.018 A 
HETATM    5  C   UNL     1      -5.429   4.466 -33.296  1.00  0.00     0.199 A 
HETATM    6  C   UNL     1      -5.763   5.263 -31.988  1.00  0.00     0.266 A 
HETATM    7  O   UNL     1      -6.740   5.168 -31.262  1.00  0.00    -0.269 OA
HETATM    8  N   UNL     1      -4.746   6.204 -31.812  1.00  0.00    -0.323 N 
HETATM    9  C   UNL     1      -3.266   4.774 -34.755  1.00  0.00     0.013 A 
HETATM   10  C   UNL     1      -2.101   5.524 -34.915  1.00  0.00     0.001 A 
HETATM   11  C   UNL     1      -1.783   6.556 -34.014  1.00  0.00     0.009 A 
HETATM   12  H   UNL     1      -4.753   6.854 -31.041  1.00  0.00     0.169 HD
ENDROOT
BRANCH   5  13
HETATM   13  C   UNL     1      -5.226   2.985 -33.071  1.00  0.00     0.025 A 
HETATM   14  C   UNL     1      -5.943   1.891 -33.695  1.00  0.00     0.003 A 
HETATM   15  C   UNL     1      -5.410   0.699 -33.204  1.00  0.00     0.043 A 
HETATM   16  C   UNL     1      -6.994   1.795 -34.634  1.00  0.00     0.014 A 
HETATM   17  C   UNL     1      -5.863  -0.566 -33.598  1.00  0.00     0.030 A 
HETATM   18  N   UNL     1      -4.416   1.033 -32.321  1.00  0.00    -0.359 N 
HETATM   19  C   UNL     1      -6.900  -0.625 -34.529  1.00  0.00     0.002 A 
HETATM   20  C   UNL     1      -7.461   0.539 -35.042  1.00  0.00     0.001 A 
HETATM   21  H   UNL     1      -3.849   0.360 -31.824  1.00  0.00     0.166 HD
HETATM   22  C   UNL     1      -4.292   2.394 -32.220  1.00  0.00     0.016 A 
HETATM   23  C   UNL     1      -3.265   2.994 -31.324  1.00  0.00     0.069 C 
ENDBRANCH   5  13
BRANCH   5  24
HETATM   24  O   UNL     1      -6.372   4.772 -34.321  1.00  0.00    -0.371 OA
HETATM   25  H   UNL     1      -6.387   5.739 -34.403  1.00  0.00     0.212 HD
ENDBRANCH   5  24
TORSDOF 2
ENDMDL
MODEL 7
REMARK VINA RESULT:      -7.5      2.192      3.220
REMARK  2 active torsions:
REMARK  status: ('A' for Active; 'I' for Inactive)
REMARK    1  A    between atoms: C_5  and  C_7 
REMARK    2  A    between atoms: C_5  and  O_6 
ROOT
HETATM    1  C   UNL     1      -8.497   4.603 -32.898  1.00  0.00     0.050 C 
HETATM    2  C   UNL     1      -8.330   3.166 -32.514  1.00  0.00    -0.035 A 
HETATM    3  C   UNL     1      -7.110   2.508 -32.497  1.00  0.00     0.051 A 
HETATM    4  C   UNL     1      -6.986   1.161 -32.127  1.00  0.00     0.018 A 
HETATM    5  C   UNL     1      -5.525   0.760 -32.147  1.00  0.00     0.199 A 
HETATM    6  C   UNL     1      -4.850   2.070 -32.681  1.00  0.00     0.266 A 
HETATM    7  O   UNL     1      -3.668   2.290 -32.894  1.00  0.00    -0.269 OA
HETATM    8  N   UNL     1      -5.860   3.025 -32.815  1.00  0.00    -0.323 N 
HETATM    9  C   UNL     1      -8.101   0.428 -31.751  1.00  0.00     0.013 A 
HETATM   10  C   UNL     1      -9.343   1.061 -31.767  1.00  0.00     0.001 A 
HETATM   11  C   UNL     1      -9.455   2.412 -32.143  1.00  0.00     0.009 A 
HETATM   12  H   UNL     1      -5.664   3.963 -33.127  1.00  0.00     0.169 HD
ENDROOT
BRANCH   5  13
HETATM   13  C   UNL     1      -5.382  -0.422 -33.079  1.00  0.00     0.025 A 
HETATM   14  C   UNL     1      -4.589  -1.617 -32.875  1.00  0.00     0.003 A 
HETATM   15  C   UNL     1      -4.772  -2.444 -33.983  1.00  0.00     0.043 A 
HETATM   16  C   UNL     1      -3.730  -2.080 -31.852  1.00  0.00     0.014 A 
HETATM   17  C   UNL     1      -4.155  -3.694 -34.120  1.00  0.00     0.030 A 
HETATM   18  N   UNL     1      -5.633  -1.798 -34.831  1.00  0.00    -0.359 N 
HETATM   19  C   UNL     1      -3.317  -4.123 -33.091  1.00  0.00     0.002 A 
HETATM   20  C   UNL     1      -3.105  -3.328 -31.970  1.00  0.00     0.001 A 
HETATM   21  H   UNL     1      -5.952  -2.178 -35.712  1.00  0.00     0.166 HD
HETATM   22  C   UNL     1      -6.006  -0.585 -34.316  1.00  0.00     0.016 A 
HETATM   23  C   UNL     1      -6.950   0.294 -35.061  1.00  0.00     0.069 C 
ENDBRANCH   5  13
BRANCH   5  24
HETATM   24  O   UNL     1      -5.110   0.494 -30.808  1.00  0.00    -0.371 OA
HETATM   25  H   UNL     1      -5.328  -0.435 -30.631  1.00  0.00     0.212 HD
ENDBRANCH   5  24
TORSDOF 2
ENDMDL
MODEL 8
REMARK VINA RESULT:      -7.4      2.560      5.773
REMARK  2 active torsions:
REMARK  status: ('A' for Active; 'I' for Inactive)
REMARK    1  A    between atoms: C_5  and  C_7 
REMARK    2  A    between atoms: C_5  and  O_6 
ROOT
HETATM    1  C   UNL     1      -9.924  -0.226 -32.683  1.00  0.00     0.050 C 
HETATM    2  C   UNL     1      -8.498   0.123 -32.972  1.00  0.00    -0.035 A 
HETATM    3  C   UNL     1      -7.811   1.150 -32.343  1.00  0.00     0.051 A 
HETATM    4  C   UNL     1      -6.472   1.448 -32.633  1.00  0.00     0.018 A 
HETATM    5  C   UNL     1      -5.995   2.573 -31.737  1.00  0.00     0.199 A 
HETATM    6  C   UNL     1      -7.308   2.928 -30.959  1.00  0.00     0.266 A 
HETATM    7  O   UNL     1      -7.484   3.782 -30.103  1.00  0.00    -0.269 OA
HETATM    8  N   UNL     1      -8.285   2.017 -31.366  1.00  0.00    -0.323 N 
HETATM    9  C   UNL     1      -5.772   0.707 -33.573  1.00  0.00     0.013 A 
HETATM   10  C   UNL     1      -6.440  -0.327 -34.228  1.00  0.00     0.001 A 
HETATM   11  C   UNL     1      -7.784  -0.615 -33.931  1.00  0.00     0.009 A 
HETATM   12  H   UNL     1      -9.218   2.033 -30.985  1.00  0.00     0.169 HD
ENDROOT
BRANCH   5  13
HETATM   13  C   UNL     1      -5.491   3.690 -32.622  1.00  0.00     0.025 A 
HETATM   14  C   UNL     1      -4.132   4.177 -32.742  1.00  0.00     0.003 A 
HETATM   15  C   UNL     1      -4.129   5.201 -33.689  1.00  0.00     0.043 A 
HETATM   16  C   UNL     1      -2.897   3.845 -32.139  1.00  0.00     0.014 A 
HETATM   17  C   UNL     1      -2.974   5.900 -34.063  1.00  0.00     0.030 A 
HETATM   18  N   UNL     1      -5.417   5.344 -34.134  1.00  0.00    -0.359 N 
HETATM   19  C   UNL     1      -1.772   5.546 -33.450  1.00  0.00     0.002 A 
HETATM   20  C   UNL     1      -1.731   4.532 -32.500  1.00  0.00     0.001 A 
HETATM   21  H   UNL     1      -5.703   6.011 -34.838  1.00  0.00     0.166 HD
HETATM   22  C   UNL     1      -6.251   4.457 -33.506  1.00  0.00     0.016 A 
HETATM   23  C   UNL     1      -7.702   4.420 -33.837  1.00  0.00     0.069 C 
ENDBRANCH   5  13
BRANCH   5  24
HETATM   24  O   UNL     1      -5.011   2.054 -30.844  1.00  0.00    -0.371 OA
HETATM   25  H   UNL     1      -5.483   1.491 -30.210  1.00  0.00     0.212 HD
ENDBRANCH   5  24
TORSDOF 2
ENDMDL
MODEL 9
REMARK VINA RESULT:      -7.2      2.212      3.518
REMARK  2 active torsions:
REMARK  status: ('A' for Active; 'I' for Inactive)
REMARK    1  A    between atoms: C_5  and  C_7 
REMARK    2  A    between atoms: C_5  and  O_6 
ROOT
HETATM    1  C   UNL     1      -5.054   6.657 -29.048  1.00  0.00     0.050 C 
HETATM    2  C   UNL     1      -5.738   5.387 -29.446  1.00  0.00    -0.035 A 
HETATM    3  C   UNL     1      -5.160   4.417 -30.251  1.00  0.00     0.051 A 
HETATM    4  C   UNL     1      -5.827   3.235 -30.601  1.00  0.00     0.018 A 
HETATM    5  C   UNL     1      -4.908   2.358 -31.429  1.00  0.00     0.199 A 
HETATM    6  C   UNL     1      -3.647   3.277 -31.570  1.00  0.00     0.266 A 
HETATM    7  O   UNL     1      -2.598   3.054 -32.156  1.00  0.00    -0.269 OA
HETATM    8  N   UNL     1      -3.893   4.429 -30.820  1.00  0.00    -0.323 N 
HETATM    9  C   UNL     1      -7.110   2.985 -30.140  1.00  0.00     0.013 A 
HETATM   10  C   UNL     1      -7.721   3.947 -29.336  1.00  0.00     0.001 A 
HETATM   11  C   UNL     1      -7.043   5.131 -28.994  1.00  0.00     0.009 A 
HETATM   12  H   UNL     1      -3.210   5.167 -30.741  1.00  0.00     0.169 HD
ENDROOT
BRANCH   5  13
HETATM   13  C   UNL     1      -5.601   2.068 -32.740  1.00  0.00     0.025 A 
HETATM   14  C   UNL     1      -5.991   0.776 -33.267  1.00  0.00     0.003 A 
HETATM   15  C   UNL     1      -6.617   0.988 -34.495  1.00  0.00     0.043 A 
HETATM   16  C   UNL     1      -5.876  -0.559 -32.817  1.00  0.00     0.014 A 
HETATM   17  C   UNL     1      -7.130  -0.048 -35.286  1.00  0.00     0.030 A 
HETATM   18  N   UNL     1      -6.615   2.340 -34.722  1.00  0.00    -0.359 N 
HETATM   19  C   UNL     1      -7.002  -1.353 -34.812  1.00  0.00     0.002 A 
HETATM   20  C   UNL     1      -6.383  -1.608 -33.594  1.00  0.00     0.001 A 
HETATM   21  H   UNL     1      -7.019   2.778 -35.538  1.00  0.00     0.166 HD
HETATM   22  C   UNL     1      -6.008   3.006 -33.691  1.00  0.00     0.016 A 
HETATM   23  C   UNL     1      -5.897   4.491 -33.711  1.00  0.00     0.069 C 
ENDBRANCH   5  13
BRANCH   5  24
HETATM   24  O   UNL     1      -4.592   1.191 -30.671  1.00  0.00    -0.371 OA
HETATM   25  H   UNL     1      -4.869   0.431 -31.207  1.00  0.00     0.212 HD
ENDBRANCH   5  24
TORSDOF 2
ENDMDL
MODEL 10
REMARK VINA RESULT:      -7.2      2.506      5.682
REMARK  2 active torsions:
REMARK  status: ('A' for Active; 'I' for Inactive)
REMARK    1  A    between atoms: C_5  and  C_7 
REMARK    2  A    between atoms: C_5  and  O_6 
ROOT
HETATM    1  C   UNL     1      -3.742  -2.909 -33.443  1.00  0.00     0.050 C 
HETATM    2  C   UNL     1      -4.937  -2.071 -33.774  1.00  0.00    -0.035 A 
HETATM    3  C   UNL     1      -5.067  -0.738 -33.420  1.00  0.00     0.051 A 
HETATM    4  C   UNL     1      -6.199   0.022 -33.751  1.00  0.00     0.018 A 
HETATM    5  C   UNL     1      -6.008   1.450 -33.282  1.00  0.00     0.199 A 
HETATM    6  C   UNL     1      -4.626   1.354 -32.548  1.00  0.00     0.266 A 
HETATM    7  O   UNL     1      -4.000   2.233 -31.975  1.00  0.00    -0.269 OA
HETATM    8  N   UNL     1      -4.160   0.050 -32.722  1.00  0.00    -0.323 N 
HETATM    9  C   UNL     1      -7.244  -0.543 -34.464  1.00  0.00     0.013 A 
HETATM   10  C   UNL     1      -7.145  -1.886 -34.827  1.00  0.00     0.001 A 
HETATM   11  C   UNL     1      -6.006  -2.639 -34.487  1.00  0.00     0.009 A 
HETATM   12  H   UNL     1      -3.271  -0.250 -32.352  1.00  0.00     0.169 HD
ENDROOT
BRANCH   5  13
HETATM   13  C   UNL     1      -7.161   1.797 -32.368  1.00  0.00     0.025 A 
HETATM   14  C   UNL     1      -8.287   2.662 -32.654  1.00  0.00     0.003 A 
HETATM   15  C   UNL     1      -9.111   2.674 -31.529  1.00  0.00     0.043 A 
HETATM   16  C   UNL     1      -8.690   3.437 -33.765  1.00  0.00     0.014 A 
HETATM   17  C   UNL     1     -10.303   3.406 -31.457  1.00  0.00     0.030 A 
HETATM   18  N   UNL     1      -8.529   1.861 -30.592  1.00  0.00    -0.359 N 
HETATM   19  C   UNL     1     -10.673   4.159 -32.572  1.00  0.00     0.002 A 
HETATM   20  C   UNL     1      -9.879   4.176 -33.712  1.00  0.00     0.001 A 
HETATM   21  H   UNL     1      -8.922   1.675 -29.680  1.00  0.00     0.166 HD
HETATM   22  C   UNL     1      -7.359   1.330 -31.067  1.00  0.00     0.016 A 
HETATM   23  C   UNL     1      -6.552   0.404 -30.225  1.00  0.00     0.069 C 
ENDBRANCH   5  13
BRANCH   5  24
HETATM   24  O   UNL     1      -5.906   2.293 -34.428  1.00  0.00    -0.371 OA
HETATM   25  H   UNL     1      -6.112   1.739 -35.198  1.00  0.00     0.212 HD
ENDBRANCH   5  24
TORSDOF 2
ENDMDL
