MODEL 1
REMARK VINA RESULT:      -8.1      0.000      0.000
REMARK  6 active torsions:
REMARK  status: ('A' for Active; 'I' for Inactive)
REMARK    1  A    between atoms: C_9  and  C_10 
REMARK       I    between atoms: C_10  and  N_11 
REMARK    2  A    between atoms: N_11  and  C_12 
REMARK    3  A    between atoms: C_12  and  C_13 
REMARK    4  A    between atoms: C_13  and  O_14 
REMARK    5  A    between atoms: C_13  and  C_15 
REMARK    6  A    between atoms: C_18  and  O_19 
ROOT
HETATM    1  C   UNL     1      -3.925   2.371 -31.807  1.00  0.00     0.258 C 
HETATM    2  N   UNL     1      -3.609   1.321 -32.638  1.00  0.00    -0.350 N 
HETATM    3  O   UNL     1      -4.482   2.216 -30.725  1.00  0.00    -0.267 OA
HETATM    4  H   UNL     1      -3.068   1.545 -33.472  1.00  0.00     0.163 HD
ENDROOT
BRANCH   2   5
HETATM    5  C   UNL     1      -3.811  -0.086 -32.302  1.00  0.00     0.114 C 
HETATM    6  C   UNL     1      -2.492  -0.737 -31.873  1.00  0.00     0.035 C 
BRANCH   5   7
HETATM    7  C   UNL     1      -4.531  -0.900 -33.421  1.00  0.00     0.173 C 
BRANCH   7   8
HETATM    8  O   UNL     1      -4.516  -2.300 -33.114  1.00  0.00    -0.389 OA
HETATM    9  H   UNL     1      -4.339  -2.761 -33.952  1.00  0.00     0.210 HD
ENDBRANCH   7   8
BRANCH   7  10
HETATM   10  C   UNL     1      -5.976  -0.467 -33.600  1.00  0.00    -0.028 A 
HETATM   11  C   UNL     1      -6.785  -0.229 -32.480  1.00  0.00     0.012 A 
HETATM   12  C   UNL     1      -8.119   0.156 -32.635  1.00  0.00     0.037 A 
HETATM   13  C   UNL     1      -8.668   0.327 -33.906  1.00  0.00     0.068 A 
HETATM   14  C   UNL     1      -7.879   0.077 -35.028  1.00  0.00     0.037 A 
HETATM   15  C   UNL     1      -6.544  -0.320 -34.875  1.00  0.00     0.012 A 
BRANCH  13  16
HETATM   16  O   UNL     1      -9.977   0.723 -33.921  1.00  0.00    -0.356 OA
HETATM   17  C   UNL     1     -10.218   2.090 -34.235  1.00  0.00     0.210 C 
ENDBRANCH  13  16
ENDBRANCH   7  10
ENDBRANCH   5   7
ENDBRANCH   2   5
BRANCH   1  18
HETATM   18  C   UNL     1      -3.520   3.681 -32.290  1.00  0.00     0.105 A 
HETATM   19  C   UNL     1      -2.409   4.415 -31.912  1.00  0.00     0.169 A 
HETATM   20  N   UNL     1      -1.402   4.141 -31.021  1.00  0.00    -0.233 NA
HETATM   21  N   UNL     1      -2.460   5.613 -32.632  1.00  0.00    -0.219 N 
HETATM   22  C   UNL     1      -0.485   5.056 -30.881  1.00  0.00     0.035 A 
HETATM   23  C   UNL     1       0.638   4.805 -29.909  1.00  0.00     0.070 C 
HETATM   24  C   UNL     1      -0.464   6.367 -31.603  1.00  0.00     0.053 A 
HETATM   25  C   UNL     1      -1.471   6.593 -32.465  1.00  0.00     0.036 A 
HETATM   26  C   UNL     1      -1.590   7.858 -33.258  1.00  0.00     0.070 C 
HETATM   27  N   UNL     1      -3.541   5.657 -33.448  1.00  0.00    -0.170 NA
HETATM   28  C   UNL     1      -4.179   4.501 -33.243  1.00  0.00     0.071 A 
HETATM   29  C   UNL     1      -5.435   4.208 -33.981  1.00  0.00     0.073 C 
ENDBRANCH   1  18
TORSDOF 6
ENDMDL
MODEL 2
REMARK VINA RESULT:      -7.9      2.694      7.900
REMARK  6 active torsions:
REMARK  status: ('A' for Active; 'I' for Inactive)
REMARK    1  A    between atoms: C_9  and  C_10 
REMARK       I    between atoms: C_10  and  N_11 
REMARK    2  A    between atoms: N_11  and  C_12 
REMARK    3  A    between atoms: C_12  and  C_13 
REMARK    4  A    between atoms: C_13  and  O_14 
REMARK    5  A    between atoms: C_13  and  C_15 
REMARK    6  A    between atoms: C_18  and  O_19 
ROOT
HETATM    1  C   UNL     1      -5.922   0.927 -32.889  1.00  0.00     0.258 C 
HETATM    2  N   UNL     1      -5.819   2.042 -33.688  1.00  0.00    -0.350 N 
HETATM    3  O   UNL     1      -5.932   0.987 -31.663  1.00  0.00    -0.267 OA
HETATM    4  H   UNL     1      -5.910   1.894 -34.692  1.00  0.00     0.163 HD
ENDROOT
BRANCH   2   5
HETATM    5  C   UNL     1      -5.802   3.415 -33.189  1.00  0.00     0.114 C 
HETATM    6  C   UNL     1      -7.228   3.939 -32.993  1.00  0.00     0.035 C 
BRANCH   5   7
HETATM    7  C   UNL     1      -4.934   4.382 -34.050  1.00  0.00     0.173 C 
BRANCH   7   8
HETATM    8  O   UNL     1      -5.600   5.640 -34.221  1.00  0.00    -0.389 OA
HETATM    9  H   UNL     1      -5.102   6.123 -34.902  1.00  0.00     0.210 HD
ENDBRANCH   7   8
BRANCH   7  10
HETATM   10  C   UNL     1      -3.576   4.644 -33.420  1.00  0.00    -0.028 A 
HETATM   11  C   UNL     1      -3.274   4.121 -32.155  1.00  0.00     0.012 A 
HETATM   12  C   UNL     1      -2.034   4.368 -31.561  1.00  0.00     0.037 A 
HETATM   13  C   UNL     1      -1.066   5.125 -32.222  1.00  0.00     0.068 A 
HETATM   14  C   UNL     1      -1.360   5.664 -33.474  1.00  0.00     0.037 A 
HETATM   15  C   UNL     1      -2.608   5.427 -34.066  1.00  0.00     0.012 A 
BRANCH  13  16
HETATM   16  O   UNL     1       0.111   5.277 -31.542  1.00  0.00    -0.356 OA
HETATM   17  C   UNL     1       0.461   6.608 -31.179  1.00  0.00     0.210 C 
ENDBRANCH  13  16
ENDBRANCH   7  10
ENDBRANCH   5   7
ENDBRANCH   2   5
BRANCH   1  18
HETATM   18  C   UNL     1      -6.052  -0.332 -33.603  1.00  0.00     0.105 A 
HETATM   19  C   UNL     1      -5.292  -1.478 -33.443  1.00  0.00     0.169 A 
HETATM   20  N   UNL     1      -4.246  -1.761 -32.601  1.00  0.00    -0.233 NA
HETATM   21  N   UNL     1      -5.778  -2.411 -34.365  1.00  0.00    -0.219 N 
HETATM   22  C   UNL     1      -3.728  -2.953 -32.699  1.00  0.00     0.035 A 
HETATM   23  C   UNL     1      -2.572  -3.310 -31.800  1.00  0.00     0.070 C 
HETATM   24  C   UNL     1      -4.179  -4.009 -33.659  1.00  0.00     0.053 A 
HETATM   25  C   UNL     1      -5.205  -3.687 -34.465  1.00  0.00     0.036 A 
HETATM   26  C   UNL     1      -5.767  -4.634 -35.480  1.00  0.00     0.070 C 
HETATM   27  N   UNL     1      -6.811  -1.908 -35.083  1.00  0.00    -0.170 NA
HETATM   28  C   UNL     1      -6.975  -0.661 -34.630  1.00  0.00     0.071 A 
HETATM   29  C   UNL     1      -8.036   0.204 -35.210  1.00  0.00     0.073 C 
ENDBRANCH   1  18
TORSDOF 6
ENDMDL
MODEL 3
REMARK VINA RESULT:      -7.9      3.682      7.270
REMARK  6 active torsions:
REMARK  status: ('A' for Active; 'I' for Inactive)
REMARK    1  A    between atoms: C_9  and  C_10 
REMARK       I    between atoms: C_10  and  N_11 
REMARK    2  A    between atoms: N_11  and  C_12 
REMARK    3  A    between atoms: C_12  and  C_13 
REMARK    4  A    between atoms: C_13  and  O_14 
REMARK    5  A    between atoms: C_13  and  C_15 
REMARK    6  A    between atoms: C_18  and  O_19 
ROOT
HETATM    1  C   UNL     1      -8.176   2.601 -32.017  1.00  0.00     0.258 C 
HETATM    2  N   UNL     1      -6.951   2.170 -32.471  1.00  0.00    -0.350 N 
HETATM    3  O   UNL     1      -8.466   2.642 -30.826  1.00  0.00    -0.267 OA
HETATM    4  H   UNL     1      -6.777   2.259 -33.471  1.00  0.00     0.163 HD
ENDROOT
BRANCH   2   5
HETATM    5  C   UNL     1      -5.835   1.801 -31.604  1.00  0.00     0.114 C 
HETATM    6  C   UNL     1      -4.497   2.162 -32.259  1.00  0.00     0.035 C 
BRANCH   5   7
HETATM    7  C   UNL     1      -5.875   0.317 -31.130  1.00  0.00     0.173 C 
BRANCH   7   8
HETATM    8  O   UNL     1      -7.066   0.061 -30.373  1.00  0.00    -0.389 OA
HETATM    9  H   UNL     1      -7.625   0.850 -30.470  1.00  0.00     0.210 HD
ENDBRANCH   7   8
BRANCH   7  10
HETATM   10  C   UNL     1      -5.834  -0.656 -32.296  1.00  0.00    -0.028 A 
HETATM   11  C   UNL     1      -4.634  -1.294 -32.640  1.00  0.00     0.012 A 
HETATM   12  C   UNL     1      -4.583  -2.180 -33.720  1.00  0.00     0.037 A 
HETATM   13  C   UNL     1      -5.729  -2.460 -34.465  1.00  0.00     0.068 A 
HETATM   14  C   UNL     1      -6.924  -1.820 -34.143  1.00  0.00     0.037 A 
HETATM   15  C   UNL     1      -6.975  -0.922 -33.068  1.00  0.00     0.012 A 
BRANCH  13  16
HETATM   16  O   UNL     1      -5.550  -3.357 -35.482  1.00  0.00    -0.356 OA
HETATM   17  C   UNL     1      -6.382  -4.511 -35.457  1.00  0.00     0.210 C 
ENDBRANCH  13  16
ENDBRANCH   7  10
ENDBRANCH   5   7
ENDBRANCH   2   5
BRANCH   1  18
HETATM   18  C   UNL     1      -9.097   3.039 -33.054  1.00  0.00     0.105 A 
HETATM   19  C   UNL     1     -10.228   2.386 -33.512  1.00  0.00     0.169 A 
HETATM   20  N   UNL     1     -10.799   1.195 -33.140  1.00  0.00    -0.233 NA
HETATM   21  N   UNL     1     -10.768   3.187 -34.524  1.00  0.00    -0.219 N 
HETATM   22  C   UNL     1     -11.880   0.845 -33.778  1.00  0.00     0.035 A 
HETATM   23  C   UNL     1     -12.541  -0.458 -33.411  1.00  0.00     0.070 C 
HETATM   24  C   UNL     1     -12.521   1.634 -34.877  1.00  0.00     0.053 A 
HETATM   25  C   UNL     1     -11.927   2.793 -35.208  1.00  0.00     0.036 A 
HETATM   26  C   UNL     1     -12.446   3.691 -36.288  1.00  0.00     0.070 C 
HETATM   27  N   UNL     1     -10.035   4.311 -34.712  1.00  0.00    -0.170 NA
HETATM   28  C   UNL     1      -9.032   4.223 -33.833  1.00  0.00     0.071 A 
HETATM   29  C   UNL     1      -8.011   5.302 -33.767  1.00  0.00     0.073 C 
ENDBRANCH   1  18
TORSDOF 6
ENDMDL
MODEL 4
REMARK VINA RESULT:      -7.8      2.488      3.248
REMARK  6 active torsions:
REMARK  status: ('A' for Active; 'I' for Inactive)
REMARK    1  A    between atoms: C_9  and  C_10 
REMARK       I    between atoms: C_10  and  N_11 
REMARK    2  A    between atoms: N_11  and  C_12 
REMARK    3  A    between atoms: C_12  and  C_13 
REMARK    4  A    between atoms: C_13  and  O_14 
REMARK    5  A    between atoms: C_13  and  C_15 
REMARK    6  A    between atoms: C_18  and  O_19 
ROOT
HETATM    1  C   UNL     1      -3.946   3.731 -31.803  1.00  0.00     0.258 C 
HETATM    2  N   UNL     1      -4.153   2.715 -30.900  1.00  0.00    -0.350 N 
HETATM    3  O   UNL     1      -4.127   3.595 -33.009  1.00  0.00    -0.267 OA
HETATM    4  H   UNL     1      -4.062   2.954 -29.914  1.00  0.00     0.163 HD
ENDROOT
BRANCH   2   5
HETATM    5  C   UNL     1      -4.688   1.401 -31.247  1.00  0.00     0.114 C 
HETATM    6  C   UNL     1      -5.420   0.780 -30.052  1.00  0.00     0.035 C 
BRANCH   5   7
HETATM    7  C   UNL     1      -3.628   0.432 -31.854  1.00  0.00     0.173 C 
BRANCH   7   8
HETATM    8  O   UNL     1      -2.940  -0.277 -30.816  1.00  0.00    -0.389 OA
HETATM    9  H   UNL     1      -2.070  -0.515 -31.178  1.00  0.00     0.210 HD
ENDBRANCH   7   8
BRANCH   7  10
HETATM   10  C   UNL     1      -4.256  -0.586 -32.791  1.00  0.00    -0.028 A 
HETATM   11  C   UNL     1      -5.390  -0.248 -33.541  1.00  0.00     0.012 A 
HETATM   12  C   UNL     1      -5.983  -1.183 -34.395  1.00  0.00     0.037 A 
HETATM   13  C   UNL     1      -5.447  -2.464 -34.529  1.00  0.00     0.068 A 
HETATM   14  C   UNL     1      -4.329  -2.817 -33.776  1.00  0.00     0.037 A 
HETATM   15  C   UNL     1      -3.741  -1.886 -32.911  1.00  0.00     0.012 A 
BRANCH  13  16
HETATM   16  O   UNL     1      -6.109  -3.276 -35.409  1.00  0.00    -0.356 OA
HETATM   17  C   UNL     1      -6.574  -4.518 -34.893  1.00  0.00     0.210 C 
ENDBRANCH  13  16
ENDBRANCH   7  10
ENDBRANCH   5   7
ENDBRANCH   2   5
BRANCH   1  18
HETATM   18  C   UNL     1      -3.529   4.996 -31.220  1.00  0.00     0.105 A 
HETATM   19  C   UNL     1      -2.243   5.396 -30.899  1.00  0.00     0.169 A 
HETATM   20  N   UNL     1      -1.035   4.757 -31.033  1.00  0.00    -0.233 NA
HETATM   21  N   UNL     1      -2.350   6.677 -30.348  1.00  0.00    -0.219 N 
HETATM   22  C   UNL     1       0.015   5.410 -30.624  1.00  0.00     0.035 A 
HETATM   23  C   UNL     1       1.364   4.749 -30.743  1.00  0.00     0.070 C 
HETATM   24  C   UNL     1      -0.008   6.778 -30.015  1.00  0.00     0.053 A 
HETATM   25  C   UNL     1      -1.212   7.364 -29.903  1.00  0.00     0.036 A 
HETATM   26  C   UNL     1      -1.398   8.728 -29.313  1.00  0.00     0.070 C 
HETATM   27  N   UNL     1      -3.637   7.100 -30.320  1.00  0.00    -0.170 NA
HETATM   28  C   UNL     1      -4.345   6.093 -30.841  1.00  0.00     0.071 A 
HETATM   29  C   UNL     1      -5.822   6.211 -30.959  1.00  0.00     0.073 C 
ENDBRANCH   1  18
TORSDOF 6
ENDMDL
MODEL 5
REMARK VINA RESULT:      -7.8      2.460      3.908
REMARK  6 active torsions:
REMARK  status: ('A' for Active; 'I' for Inactive)
REMARK    1  A    between atoms: C_9  and  C_10 
REMARK       I    between atoms: C_10  and  N_11 
REMARK    2  A    between atoms: N_11  and  C_12 
REMARK    3  A    between atoms: C_12  and  C_13 
REMARK    4  A    between atoms: C_13  and  O_14 
REMARK    5  A    between atoms: C_13  and  C_15 
REMARK    6  A    between atoms: C_18  and  O_19 
ROOT
HETATM    1  C   UNL     1      -6.212   4.580 -33.127  1.00  0.00     0.258 C 
HETATM    2  N   UNL     1      -6.298   3.480 -32.306  1.00  0.00    -0.350 N 
HETATM    3  O   UNL     1      -6.779   4.644 -34.214  1.00  0.00    -0.267 OA
HETATM    4  H   UNL     1      -5.866   3.561 -31.387  1.00  0.00     0.163 HD
ENDROOT
BRANCH   2   5
HETATM    5  C   UNL     1      -7.132   2.312 -32.579  1.00  0.00     0.114 C 
HETATM    6  C   UNL     1      -8.612   2.636 -32.350  1.00  0.00     0.035 C 
BRANCH   5   7
HETATM    7  C   UNL     1      -6.685   1.031 -31.810  1.00  0.00     0.173 C 
BRANCH   7   8
HETATM    8  O   UNL     1      -7.707   0.609 -30.897  1.00  0.00    -0.389 OA
HETATM    9  H   UNL     1      -7.291   0.577 -30.019  1.00  0.00     0.210 HD
ENDBRANCH   7   8
BRANCH   7  10
HETATM   10  C   UNL     1      -6.382  -0.122 -32.751  1.00  0.00    -0.028 A 
HETATM   11  C   UNL     1      -5.063  -0.569 -32.917  1.00  0.00     0.012 A 
HETATM   12  C   UNL     1      -4.773  -1.620 -33.790  1.00  0.00     0.037 A 
HETATM   13  C   UNL     1      -5.791  -2.257 -34.501  1.00  0.00     0.068 A 
HETATM   14  C   UNL     1      -7.103  -1.811 -34.358  1.00  0.00     0.037 A 
HETATM   15  C   UNL     1      -7.395  -0.750 -33.491  1.00  0.00     0.012 A 
BRANCH  13  16
HETATM   16  O   UNL     1      -5.377  -3.282 -35.307  1.00  0.00    -0.356 OA
HETATM   17  C   UNL     1      -6.204  -4.440 -35.327  1.00  0.00     0.210 C 
ENDBRANCH  13  16
ENDBRANCH   7  10
ENDBRANCH   5   7
ENDBRANCH   2   5
BRANCH   1  18
HETATM   18  C   UNL     1      -5.424   5.682 -32.599  1.00  0.00     0.105 A 
HETATM   19  C   UNL     1      -4.130   6.037 -32.941  1.00  0.00     0.169 A 
HETATM   20  N   UNL     1      -3.248   5.491 -33.840  1.00  0.00    -0.233 NA
HETATM   21  N   UNL     1      -3.800   7.144 -32.152  1.00  0.00    -0.219 N 
HETATM   22  C   UNL     1      -2.081   6.063 -33.927  1.00  0.00     0.035 A 
HETATM   23  C   UNL     1      -1.075   5.496 -34.896  1.00  0.00     0.070 C 
HETATM   24  C   UNL     1      -1.640   7.243 -33.119  1.00  0.00     0.053 A 
HETATM   25  C   UNL     1      -2.536   7.743 -32.251  1.00  0.00     0.036 A 
HETATM   26  C   UNL     1      -2.242   8.918 -31.370  1.00  0.00     0.070 C 
HETATM   27  N   UNL     1      -4.827   7.503 -31.344  1.00  0.00    -0.170 NA
HETATM   28  C   UNL     1      -5.800   6.626 -31.609  1.00  0.00     0.071 A 
HETATM   29  C   UNL     1      -7.095   6.718 -30.885  1.00  0.00     0.073 C 
ENDBRANCH   1  18
TORSDOF 6
ENDMDL
MODEL 6
REMARK VINA RESULT:      -7.6      3.015      7.036
REMARK  6 active torsions:
REMARK  status: ('A' for Active; 'I' for Inactive)
REMARK    1  A    between atoms: C_9  and  C_10 
REMARK       I    between atoms: C_10  and  N_11 
REMARK    2  A    between atoms: N_11  and  C_12 
REMARK    3  A    between atoms: C_12  and  C_13 
REMARK    4  A    between atoms: C_13  and  O_14 
REMARK    5  A    between atoms: C_13  and  C_15 
REMARK    6  A    between atoms: C_18  and  O_19 
ROOT
HETATM    1  C   UNL     1      -6.846   1.659 -30.807  1.00  0.00     0.258 C 
HETATM    2  N   UNL     1      -7.086   2.922 -31.297  1.00  0.00    -0.350 N 
HETATM    3  O   UNL     1      -6.662   1.434 -29.614  1.00  0.00    -0.267 OA
HETATM    4  H   UNL     1      -7.316   2.991 -32.287  1.00  0.00     0.163 HD
ENDROOT
BRANCH   2   5
HETATM    5  C   UNL     1      -7.239   4.113 -30.466  1.00  0.00     0.114 C 
HETATM    6  C   UNL     1      -8.186   5.120 -31.129  1.00  0.00     0.035 C 
BRANCH   5   7
HETATM    7  C   UNL     1      -5.885   4.766 -30.052  1.00  0.00     0.173 C 
BRANCH   7   8
HETATM    8  O   UNL     1      -5.341   4.110 -28.898  1.00  0.00    -0.389 OA
HETATM    9  H   UNL     1      -4.483   4.532 -28.724  1.00  0.00     0.210 HD
ENDBRANCH   7   8
BRANCH   7  10
HETATM   10  C   UNL     1      -4.855   4.698 -31.167  1.00  0.00    -0.028 A 
HETATM   11  C   UNL     1      -3.908   3.665 -31.190  1.00  0.00     0.012 A 
HETATM   12  C   UNL     1      -2.948   3.603 -32.203  1.00  0.00     0.037 A 
HETATM   13  C   UNL     1      -2.925   4.556 -33.221  1.00  0.00     0.068 A 
HETATM   14  C   UNL     1      -3.851   5.597 -33.201  1.00  0.00     0.037 A 
HETATM   15  C   UNL     1      -4.807   5.669 -32.179  1.00  0.00     0.012 A 
BRANCH  13  16
HETATM   16  O   UNL     1      -1.949   4.372 -34.162  1.00  0.00    -0.356 OA
HETATM   17  C   UNL     1      -1.367   5.551 -34.706  1.00  0.00     0.210 C 
ENDBRANCH  13  16
ENDBRANCH   7  10
ENDBRANCH   5   7
ENDBRANCH   2   5
BRANCH   1  18
HETATM   18  C   UNL     1      -6.859   0.600 -31.802  1.00  0.00     0.105 A 
HETATM   19  C   UNL     1      -5.811  -0.226 -32.172  1.00  0.00     0.169 A 
HETATM   20  N   UNL     1      -4.514  -0.297 -31.730  1.00  0.00    -0.233 NA
HETATM   21  N   UNL     1      -6.302  -1.066 -33.177  1.00  0.00    -0.219 N 
HETATM   22  C   UNL     1      -3.758  -1.196 -32.293  1.00  0.00     0.035 A 
HETATM   23  C   UNL     1      -2.323  -1.309 -31.847  1.00  0.00     0.070 C 
HETATM   24  C   UNL     1      -4.196  -2.129 -33.379  1.00  0.00     0.053 A 
HETATM   25  C   UNL     1      -5.474  -2.023 -33.781  1.00  0.00     0.036 A 
HETATM   26  C   UNL     1      -6.059  -2.883 -34.858  1.00  0.00     0.070 C 
HETATM   27  N   UNL     1      -7.607  -0.812 -33.444  1.00  0.00    -0.170 NA
HETATM   28  C   UNL     1      -7.941   0.188 -32.622  1.00  0.00     0.071 A 
HETATM   29  C   UNL     1      -9.322   0.736 -32.649  1.00  0.00     0.073 C 
ENDBRANCH   1  18
TORSDOF 6
ENDMDL
MODEL 7
REMARK VINA RESULT:      -7.6      2.368      8.334
REMARK  6 active torsions:
REMARK  status: ('A' for Active; 'I' for Inactive)
REMARK    1  A    between atoms: C_9  and  C_10 
REMARK       I    between atoms: C_10  and  N_11 
REMARK    2  A    between atoms: N_11  and  C_12 
REMARK    3  A    between atoms: C_12  and  C_13 
REMARK    4  A    between atoms: C_13  and  O_14 
REMARK    5  A    between atoms: C_13  and  C_15 
REMARK    6  A    between atoms: C_18  and  O_19 
ROOT
HETATM    1  C   UNL     1      -3.943   1.622 -32.040  1.00  0.00     0.258 C 
HETATM    2  N   UNL     1      -4.478   2.650 -32.781  1.00  0.00    -0.350 N 
HETATM    3  O   UNL     1      -3.344   1.806 -30.985  1.00  0.00    -0.267 OA
HETATM    4  H   UNL     1      -5.034   2.387 -33.593  1.00  0.00     0.163 HD
ENDROOT
BRANCH   2   5
HETATM    5  C   UNL     1      -4.478   4.051 -32.367  1.00  0.00     0.114 C 
HETATM    6  C   UNL     1      -5.910   4.589 -32.272  1.00  0.00     0.035 C 
BRANCH   5   7
HETATM    7  C   UNL     1      -3.565   4.962 -33.242  1.00  0.00     0.173 C 
BRANCH   7   8
HETATM    8  O   UNL     1      -4.319   6.050 -33.794  1.00  0.00    -0.389 OA
HETATM    9  H   UNL     1      -4.143   6.046 -34.750  1.00  0.00     0.210 HD
ENDBRANCH   7   8
BRANCH   7  10
HETATM   10  C   UNL     1      -2.407   5.542 -32.446  1.00  0.00    -0.028 A 
HETATM   11  C   UNL     1      -2.206   6.928 -32.403  1.00  0.00     0.012 A 
HETATM   12  C   UNL     1      -1.136   7.470 -31.686  1.00  0.00     0.037 A 
HETATM   13  C   UNL     1      -0.258   6.643 -30.984  1.00  0.00     0.068 A 
HETATM   14  C   UNL     1      -0.438   5.261 -31.033  1.00  0.00     0.037 A 
HETATM   15  C   UNL     1      -1.503   4.716 -31.761  1.00  0.00     0.012 A 
BRANCH  13  16
HETATM   16  O   UNL     1       0.735   7.297 -30.308  1.00  0.00    -0.356 OA
HETATM   17  C   UNL     1       0.470   7.606 -28.945  1.00  0.00     0.210 C 
ENDBRANCH  13  16
ENDBRANCH   7  10
ENDBRANCH   5   7
ENDBRANCH   2   5
BRANCH   1  18
HETATM   18  C   UNL     1      -4.169   0.292 -32.581  1.00  0.00     0.105 A 
HETATM   19  C   UNL     1      -5.232  -0.137 -33.358  1.00  0.00     0.169 A 
HETATM   20  N   UNL     1      -6.333   0.530 -33.834  1.00  0.00    -0.233 NA
HETATM   21  N   UNL     1      -5.016  -1.495 -33.613  1.00  0.00    -0.219 N 
HETATM   22  C   UNL     1      -7.171  -0.168 -34.545  1.00  0.00     0.035 A 
HETATM   23  C   UNL     1      -8.400   0.517 -35.085  1.00  0.00     0.070 C 
HETATM   24  C   UNL     1      -7.025  -1.624 -34.861  1.00  0.00     0.053 A 
HETATM   25  C   UNL     1      -5.932  -2.236 -34.373  1.00  0.00     0.036 A 
HETATM   26  C   UNL     1      -5.648  -3.689 -34.600  1.00  0.00     0.070 C 
HETATM   27  N   UNL     1      -3.867  -1.932 -33.044  1.00  0.00    -0.170 NA
HETATM   28  C   UNL     1      -3.358  -0.862 -32.423  1.00  0.00     0.071 A 
HETATM   29  C   UNL     1      -2.080  -0.981 -31.673  1.00  0.00     0.073 C 
ENDBRANCH   1  18
TORSDOF 6
ENDMDL
MODEL 8
REMARK VINA RESULT:      -7.5      2.098      3.957
REMARK  6 active torsions:
REMARK  status: ('A' for Active; 'I' for Inactive)
REMARK    1  A    between atoms: C_9  and  C_10 
REMARK       I    between atoms: C_10  and  N_11 
REMARK    2  A    between atoms: N_11  and  C_12 
REMARK    3  A    between atoms: C_12  and  C_13 
REMARK    4  A    between atoms: C_13  and  O_14 
REMARK    5  A    between atoms: C_13  and  C_15 
REMARK    6  A    between atoms: C_18  and  O_19 
ROOT
HETATM    1  C   UNL     1      -5.911   3.382 -30.877  1.00  0.00     0.258 C 
HETATM    2  N   UNL     1      -6.645   3.100 -32.006  1.00  0.00    -0.350 N 
HETATM    3  O   UNL     1      -6.351   3.222 -29.743  1.00  0.00    -0.267 OA
HETATM    4  H   UNL     1      -6.160   3.182 -32.898  1.00  0.00     0.163 HD
ENDROOT
BRANCH   2   5
HETATM    5  C   UNL     1      -7.978   2.502 -31.995  1.00  0.00     0.114 C 
HETATM    6  C   UNL     1      -8.967   3.394 -31.237  1.00  0.00     0.035 C 
BRANCH   5   7
HETATM    7  C   UNL     1      -7.999   1.031 -31.479  1.00  0.00     0.173 C 
BRANCH   7   8
HETATM    8  O   UNL     1      -9.347   0.594 -31.258  1.00  0.00    -0.389 OA
HETATM    9  H   UNL     1      -9.841   1.374 -30.955  1.00  0.00     0.210 HD
ENDBRANCH   7   8
BRANCH   7  10
HETATM   10  C   UNL     1      -7.343   0.074 -32.460  1.00  0.00    -0.028 A 
HETATM   11  C   UNL     1      -6.117  -0.529 -32.143  1.00  0.00     0.012 A 
HETATM   12  C   UNL     1      -5.499  -1.400 -33.044  1.00  0.00     0.037 A 
HETATM   13  C   UNL     1      -6.098  -1.701 -34.268  1.00  0.00     0.068 A 
HETATM   14  C   UNL     1      -7.308  -1.095 -34.601  1.00  0.00     0.037 A 
HETATM   15  C   UNL     1      -7.924  -0.213 -33.704  1.00  0.00     0.012 A 
BRANCH  13  16
HETATM   16  O   UNL     1      -5.401  -2.581 -35.050  1.00  0.00    -0.356 OA
HETATM   17  C   UNL     1      -4.367  -3.315 -34.404  1.00  0.00     0.210 C 
ENDBRANCH  13  16
ENDBRANCH   7  10
ENDBRANCH   5   7
ENDBRANCH   2   5
BRANCH   1  18
HETATM   18  C   UNL     1      -4.559   3.855 -31.125  1.00  0.00     0.105 A 
HETATM   19  C   UNL     1      -4.117   5.165 -31.179  1.00  0.00     0.169 A 
HETATM   20  N   UNL     1      -4.784   6.354 -31.017  1.00  0.00    -0.233 NA
HETATM   21  N   UNL     1      -2.749   5.113 -31.464  1.00  0.00    -0.219 N 
HETATM   22  C   UNL     1      -4.074   7.439 -31.137  1.00  0.00     0.035 A 
HETATM   23  C   UNL     1      -4.762   8.770 -30.974  1.00  0.00     0.070 C 
HETATM   24  C   UNL     1      -2.610   7.477 -31.447  1.00  0.00     0.053 A 
HETATM   25  C   UNL     1      -1.999   6.290 -31.599  1.00  0.00     0.036 A 
HETATM   26  C   UNL     1      -0.541   6.164 -31.915  1.00  0.00     0.070 C 
HETATM   27  N   UNL     1      -2.314   3.835 -31.579  1.00  0.00    -0.170 NA
HETATM   28  C   UNL     1      -3.398   3.079 -31.378  1.00  0.00     0.071 A 
HETATM   29  C   UNL     1      -3.288   1.598 -31.440  1.00  0.00     0.073 C 
ENDBRANCH   1  18
TORSDOF 6
ENDMDL
MODEL 9
REMARK VINA RESULT:      -7.4      2.963      8.226
REMARK  6 active torsions:
REMARK  status: ('A' for Active; 'I' for Inactive)
REMARK    1  A    between atoms: C_9  and  C_10 
REMARK       I    between atoms: C_10  and  N_11 
REMARK    2  A    between atoms: N_11  and  C_12 
REMARK    3  A    between atoms: C_12  and  C_13 
REMARK    4  A    between atoms: C_13  and  O_14 
REMARK    5  A    between atoms: C_13  and  C_15 
REMARK    6  A    between atoms: C_18  and  O_19 
ROOT
HETATM    1  C   UNL     1      -4.132   4.281 -31.987  1.00  0.00     0.258 C 
HETATM    2  N   UNL     1      -2.935   4.576 -32.597  1.00  0.00    -0.350 N 
HETATM    3  O   UNL     1      -4.514   4.846 -30.967  1.00  0.00    -0.267 OA
HETATM    4  H   UNL     1      -2.751   4.117 -33.488  1.00  0.00     0.163 HD
ENDROOT
BRANCH   2   5
HETATM    5  C   UNL     1      -2.030   5.639 -32.167  1.00  0.00     0.114 C 
HETATM    6  C   UNL     1      -1.215   6.171 -33.351  1.00  0.00     0.035 C 
BRANCH   5   7
HETATM    7  C   UNL     1      -1.124   5.240 -30.963  1.00  0.00     0.173 C 
BRANCH   7   8
HETATM    8  O   UNL     1       0.138   4.741 -31.425  1.00  0.00    -0.389 OA
HETATM    9  H   UNL     1       0.266   3.879 -30.994  1.00  0.00     0.210 HD
ENDBRANCH   7   8
BRANCH   7  10
HETATM   10  C   UNL     1      -0.861   6.413 -30.034  1.00  0.00    -0.028 A 
HETATM   11  C   UNL     1      -1.907   7.273 -29.671  1.00  0.00     0.012 A 
HETATM   12  C   UNL     1      -1.672   8.363 -28.828  1.00  0.00     0.037 A 
HETATM   13  C   UNL     1      -0.396   8.605 -28.317  1.00  0.00     0.068 A 
HETATM   14  C   UNL     1       0.655   7.767 -28.684  1.00  0.00     0.037 A 
HETATM   15  C   UNL     1       0.424   6.681 -29.538  1.00  0.00     0.012 A 
BRANCH  13  16
HETATM   16  O   UNL     1      -0.303   9.691 -27.490  1.00  0.00    -0.356 OA
HETATM   17  C   UNL     1      -1.416  10.578 -27.488  1.00  0.00     0.210 C 
ENDBRANCH  13  16
ENDBRANCH   7  10
ENDBRANCH   5   7
ENDBRANCH   2   5
BRANCH   1  18
HETATM   18  C   UNL     1      -4.933   3.272 -32.660  1.00  0.00     0.105 A 
HETATM   19  C   UNL     1      -4.702   1.908 -32.717  1.00  0.00     0.169 A 
HETATM   20  N   UNL     1      -3.703   1.135 -32.179  1.00  0.00    -0.233 NA
HETATM   21  N   UNL     1      -5.730   1.362 -33.493  1.00  0.00    -0.219 N 
HETATM   22  C   UNL     1      -3.764  -0.143 -32.422  1.00  0.00     0.035 A 
HETATM   23  C   UNL     1      -2.687  -1.033 -31.859  1.00  0.00     0.070 C 
HETATM   24  C   UNL     1      -4.820  -0.811 -33.246  1.00  0.00     0.053 A 
HETATM   25  C   UNL     1      -5.777  -0.015 -33.754  1.00  0.00     0.036 A 
HETATM   26  C   UNL     1      -6.898  -0.533 -34.600  1.00  0.00     0.070 C 
HETATM   27  N   UNL     1      -6.596   2.315 -33.912  1.00  0.00    -0.170 NA
HETATM   28  C   UNL     1      -6.119   3.461 -33.415  1.00  0.00     0.071 A 
HETATM   29  C   UNL     1      -6.829   4.738 -33.690  1.00  0.00     0.073 C 
ENDBRANCH   1  18
TORSDOF 6
ENDMDL
MODEL 10
REMARK VINA RESULT:      -7.4      3.874      7.126
REMARK  6 active torsions:
REMARK  status: ('A' for Active; 'I' for Inactive)
REMARK    1  A    between atoms: C_9  and  C_10 
REMARK       I    between atoms: C_10  and  N_11 
REMARK    2  A    between atoms: N_11  and  C_12 
REMARK    3  A    between atoms: C_12  and  C_13 
REMARK    4  A    between atoms: C_13  and  O_14 
REMARK    5  A    between atoms: C_13  and  C_15 
REMARK    6  A    between atoms: C_18  and  O_19 
ROOT
HETATM    1  C   UNL     1      -6.524   0.869 -34.087  1.00  0.00     0.258 C 
HETATM    2  N   UNL     1      -7.095   1.727 -33.176  1.00  0.00    -0.350 N 
HETATM    3  O   UNL     1      -6.789   0.902 -35.285  1.00  0.00    -0.267 OA
HETATM    4  H   UNL     1      -6.743   1.679 -32.221  1.00  0.00     0.163 HD
ENDROOT
BRANCH   2   5
HETATM    5  C   UNL     1      -7.999   2.819 -33.526  1.00  0.00     0.114 C 
HETATM    6  C   UNL     1      -7.222   4.125 -33.723  1.00  0.00     0.035 C 
BRANCH   5   7
HETATM    7  C   UNL     1      -9.190   2.989 -32.534  1.00  0.00     0.173 C 
BRANCH   7   8
HETATM    8  O   UNL     1      -9.353   4.366 -32.172  1.00  0.00    -0.389 OA
HETATM    9  H   UNL     1      -8.515   4.642 -31.763  1.00  0.00     0.210 HD
ENDBRANCH   7   8
BRANCH   7  10
HETATM   10  C   UNL     1     -10.499   2.494 -33.126  1.00  0.00    -0.028 A 
HETATM   11  C   UNL     1     -10.664   1.137 -33.435  1.00  0.00     0.012 A 
HETATM   12  C   UNL     1     -11.860   0.675 -33.992  1.00  0.00     0.037 A 
HETATM   13  C   UNL     1     -12.918   1.552 -34.235  1.00  0.00     0.068 A 
HETATM   14  C   UNL     1     -12.760   2.906 -33.946  1.00  0.00     0.037 A 
HETATM   15  C   UNL     1     -11.558   3.373 -33.399  1.00  0.00     0.012 A 
BRANCH  13  16
HETATM   16  O   UNL     1     -14.038   0.972 -34.764  1.00  0.00    -0.356 OA
HETATM   17  C   UNL     1     -15.207   1.003 -33.952  1.00  0.00     0.210 C 
ENDBRANCH  13  16
ENDBRANCH   7  10
ENDBRANCH   5   7
ENDBRANCH   2   5
BRANCH   1  18
HETATM   18  C   UNL     1      -5.555  -0.062 -33.533  1.00  0.00     0.105 A 
HETATM   19  C   UNL     1      -5.422  -1.411 -33.812  1.00  0.00     0.169 A 
HETATM   20  N   UNL     1      -6.123  -2.234 -34.657  1.00  0.00    -0.233 NA
HETATM   21  N   UNL     1      -4.368  -1.879 -33.021  1.00  0.00    -0.219 N 
HETATM   22  C   UNL     1      -5.751  -3.482 -34.692  1.00  0.00     0.035 A 
HETATM   23  C   UNL     1      -6.494  -4.428 -35.600  1.00  0.00     0.070 C 
HETATM   24  C   UNL     1      -4.642  -4.071 -33.877  1.00  0.00     0.053 A 
HETATM   25  C   UNL     1      -3.984  -3.228 -33.062  1.00  0.00     0.036 A 
HETATM   26  C   UNL     1      -2.855  -3.666 -32.183  1.00  0.00     0.070 C 
HETATM   27  N   UNL     1      -3.829  -0.887 -32.272  1.00  0.00    -0.170 NA
HETATM   28  C   UNL     1      -4.541   0.203 -32.576  1.00  0.00     0.071 A 
HETATM   29  C   UNL     1      -4.224   1.499 -31.921  1.00  0.00     0.073 C 
ENDBRANCH   1  18
TORSDOF 6
ENDMDL
