MODEL 1
REMARK VINA RESULT:      -9.9      0.000      0.000
REMARK  8 active torsions:
REMARK  status: ('A' for Active; 'I' for Inactive)
REMARK    1  A    between atoms: C_2  and  N_3 
REMARK       I    between atoms: N_3  and  C_4 
REMARK       I    between atoms: C_4  and  N_5 
REMARK    2  A    between atoms: N_5  and  C_6 
REMARK    3  A    between atoms: N_5  and  C_22 
REMARK    4  A    between atoms: C_6  and  C_7 
REMARK    5  A    between atoms: C_8  and  O_9 
REMARK    6  A    between atoms: C_22  and  C_23 
REMARK    7  A    between atoms: C_23  and  C_24 
REMARK    8  A    between atoms: C_24  and  N_25 
ROOT
HETATM    1  N   UNL     1      -7.116  -0.931 -33.689  1.00  0.00    -0.309 N 
HETATM    2  C   UNL     1      -7.046   0.295 -34.304  1.00  0.00     0.323 C 
HETATM    3  N   UNL     1      -7.639   1.341 -33.591  1.00  0.00    -0.330 N 
HETATM    4  O   UNL     1      -6.478   0.516 -35.371  1.00  0.00    -0.247 OA
HETATM    5  H   UNL     1      -7.949  -1.095 -33.142  1.00  0.00     0.170 HD
ENDROOT
BRANCH   3   6
HETATM    6  C   UNL     1      -7.677   2.653 -34.250  1.00  0.00     0.170 C 
BRANCH   6   7
HETATM    7  C   UNL     1      -6.710   3.640 -33.667  1.00  0.00     0.013 A 
HETATM    8  C   UNL     1      -6.938   5.009 -33.693  1.00  0.00     0.170 A 
HETATM    9  N   UNL     1      -6.063   5.937 -33.271  1.00  0.00    -0.224 NA
HETATM   10  C   UNL     1      -4.889   5.525 -32.771  1.00  0.00     0.072 A 
HETATM   11  C   UNL     1      -4.559   4.156 -32.665  1.00  0.00    -0.004 A 
HETATM   12  C   UNL     1      -3.961   6.465 -32.349  1.00  0.00     0.072 A 
HETATM   13  C   UNL     1      -5.497   3.215 -33.116  1.00  0.00     0.027 A 
HETATM   14  C   UNL     1      -3.313   3.766 -32.145  1.00  0.00     0.053 A 
HETATM   15  C   UNL     1      -2.392   4.730 -31.749  1.00  0.00     0.103 A 
HETATM   16  C   UNL     1      -2.723   6.081 -31.831  1.00  0.00     0.104 A 
HETATM   17  O   UNL     1      -1.183   4.278 -31.291  1.00  0.00    -0.346 OA
HETATM   18  O   UNL     1      -1.879   7.088 -31.439  1.00  0.00    -0.346 OA
HETATM   19  C   UNL     1      -0.795   6.589 -30.647  1.00  0.00     0.202 C 
HETATM   20  C   UNL     1      -0.209   5.331 -31.267  1.00  0.00     0.202 C 
BRANCH   8  21
HETATM   21  O   UNL     1      -8.095   5.524 -34.198  1.00  0.00    -0.344 OA
HETATM   22  H   UNL     1      -8.114   6.469 -33.940  1.00  0.00     0.219 HD
ENDBRANCH   8  21
ENDBRANCH   6   7
ENDBRANCH   3   6
BRANCH   3  23
HETATM   23  C   UNL     1      -7.973   1.286 -32.166  1.00  0.00     0.129 C 
BRANCH  23  24
HETATM   24  C   UNL     1      -9.486   1.315 -31.894  1.00  0.00     0.048 C 
BRANCH  24  25
HETATM   25  C   UNL     1     -10.271   0.377 -32.807  1.00  0.00     0.236 C 
BRANCH  25  26
HETATM   26  N   UNL     1     -11.582   1.001 -33.242  1.00  0.00    -0.067 N 
HETATM   27  H   UNL     1     -11.938   1.570 -32.461  1.00  0.00     0.280 HD
HETATM   28  C   UNL     1     -11.364   1.965 -34.416  1.00  0.00     0.261 C 
HETATM   29  C   UNL     1     -12.699   2.587 -34.834  1.00  0.00     0.195 C 
HETATM   30  O   UNL     1     -13.646   1.571 -35.181  1.00  0.00    -0.388 OA
HETATM   31  C   UNL     1     -13.926   0.708 -34.076  1.00  0.00     0.195 C 
HETATM   32  C   UNL     1     -12.658  -0.019 -33.612  1.00  0.00     0.261 C 
ENDBRANCH  25  26
ENDBRANCH  24  25
ENDBRANCH  23  24
ENDBRANCH   3  23
BRANCH   1  33
HETATM   33  C   UNL     1      -6.379  -2.089 -34.017  1.00  0.00     0.036 A 
HETATM   34  C   UNL     1      -5.001  -2.217 -33.806  1.00  0.00     0.032 A 
HETATM   35  C   UNL     1      -4.344  -3.409 -34.126  1.00  0.00     0.044 A 
HETATM   36  C   UNL     1      -5.066  -4.476 -34.643  1.00  0.00     0.116 A 
HETATM   37  C   UNL     1      -6.435  -4.373 -34.852  1.00  0.00     0.044 A 
HETATM   38  F   UNL     1      -4.437  -5.621 -34.938  1.00  0.00    -0.206 F 
HETATM   39  C   UNL     1      -7.092  -3.180 -34.539  1.00  0.00     0.032 A 
ENDBRANCH   1  33
TORSDOF 8
ENDMDL
MODEL 2
REMARK VINA RESULT:      -9.7      1.908      2.214
REMARK  8 active torsions:
REMARK  status: ('A' for Active; 'I' for Inactive)
REMARK    1  A    between atoms: C_2  and  N_3 
REMARK       I    between atoms: N_3  and  C_4 
REMARK       I    between atoms: C_4  and  N_5 
REMARK    2  A    between atoms: N_5  and  C_6 
REMARK    3  A    between atoms: N_5  and  C_22 
REMARK    4  A    between atoms: C_6  and  C_7 
REMARK    5  A    between atoms: C_8  and  O_9 
REMARK    6  A    between atoms: C_22  and  C_23 
REMARK    7  A    between atoms: C_23  and  C_24 
REMARK    8  A    between atoms: C_24  and  N_25 
ROOT
HETATM    1  N   UNL     1      -6.697  -0.708 -34.055  1.00  0.00    -0.309 N 
HETATM    2  C   UNL     1      -6.879  -0.080 -32.847  1.00  0.00     0.323 C 
HETATM    3  N   UNL     1      -7.736   1.024 -32.887  1.00  0.00    -0.330 N 
HETATM    4  O   UNL     1      -6.389  -0.447 -31.781  1.00  0.00    -0.247 OA
HETATM    5  H   UNL     1      -6.714  -0.106 -34.865  1.00  0.00     0.170 HD
ENDROOT
BRANCH   3   6
HETATM    6  C   UNL     1      -7.887   1.790 -31.643  1.00  0.00     0.170 C 
BRANCH   6   7
HETATM    7  C   UNL     1      -6.766   2.756 -31.400  1.00  0.00     0.013 A 
HETATM    8  C   UNL     1      -6.524   3.317 -30.153  1.00  0.00     0.170 A 
HETATM    9  N   UNL     1      -5.598   4.257 -29.905  1.00  0.00    -0.224 NA
HETATM   10  C   UNL     1      -4.832   4.681 -30.921  1.00  0.00     0.072 A 
HETATM   11  C   UNL     1      -4.965   4.160 -32.227  1.00  0.00    -0.004 A 
HETATM   12  C   UNL     1      -3.882   5.665 -30.694  1.00  0.00     0.072 A 
HETATM   13  C   UNL     1      -5.944   3.180 -32.449  1.00  0.00     0.027 A 
HETATM   14  C   UNL     1      -4.151   4.639 -33.267  1.00  0.00     0.053 A 
HETATM   15  C   UNL     1      -3.220   5.643 -33.016  1.00  0.00     0.103 A 
HETATM   16  C   UNL     1      -3.071   6.142 -31.725  1.00  0.00     0.104 A 
HETATM   17  O   UNL     1      -2.490   6.089 -34.086  1.00  0.00    -0.346 OA
HETATM   18  O   UNL     1      -2.161   7.114 -31.395  1.00  0.00    -0.346 OA
HETATM   19  C   UNL     1      -1.187   7.298 -32.428  1.00  0.00     0.202 C 
HETATM   20  C   UNL     1      -1.853   7.341 -33.793  1.00  0.00     0.202 C 
BRANCH   8  21
HETATM   21  O   UNL     1      -7.262   2.962 -29.063  1.00  0.00    -0.344 OA
HETATM   22  H   UNL     1      -8.185   2.853 -29.376  1.00  0.00     0.219 HD
ENDBRANCH   8  21
ENDBRANCH   6   7
ENDBRANCH   3   6
BRANCH   3  23
HETATM   23  C   UNL     1      -8.675   1.303 -33.976  1.00  0.00     0.129 C 
BRANCH  23  24
HETATM   24  C   UNL     1     -10.113   0.850 -33.669  1.00  0.00     0.048 C 
BRANCH  24  25
HETATM   25  C   UNL     1     -11.091   2.016 -33.562  1.00  0.00     0.236 C 
BRANCH  25  26
HETATM   26  N   UNL     1     -12.488   1.535 -33.227  1.00  0.00    -0.067 N 
HETATM   27  H   UNL     1     -12.423   0.912 -32.410  1.00  0.00     0.280 HD
HETATM   28  C   UNL     1     -13.384   2.708 -32.808  1.00  0.00     0.261 C 
HETATM   29  C   UNL     1     -14.787   2.197 -32.469  1.00  0.00     0.195 C 
HETATM   30  O   UNL     1     -15.355   1.499 -33.582  1.00  0.00    -0.388 OA
HETATM   31  C   UNL     1     -14.579   0.353 -33.939  1.00  0.00     0.195 C 
HETATM   32  C   UNL     1     -13.162   0.759 -34.359  1.00  0.00     0.261 C 
ENDBRANCH  25  26
ENDBRANCH  24  25
ENDBRANCH  23  24
ENDBRANCH   3  23
BRANCH   1  33
HETATM   33  C   UNL     1      -6.133  -1.985 -34.271  1.00  0.00     0.036 A 
HETATM   34  C   UNL     1      -4.772  -2.268 -34.112  1.00  0.00     0.032 A 
HETATM   35  C   UNL     1      -4.291  -3.567 -34.311  1.00  0.00     0.044 A 
HETATM   36  C   UNL     1      -5.173  -4.582 -34.655  1.00  0.00     0.116 A 
HETATM   37  C   UNL     1      -6.528  -4.323 -34.808  1.00  0.00     0.044 A 
HETATM   38  F   UNL     1      -4.713  -5.826 -34.833  1.00  0.00    -0.206 F 
HETATM   39  C   UNL     1      -7.009  -3.026 -34.616  1.00  0.00     0.032 A 
ENDBRANCH   1  33
TORSDOF 8
ENDMDL
MODEL 3
REMARK VINA RESULT:      -9.7      2.663      5.887
REMARK  8 active torsions:
REMARK  status: ('A' for Active; 'I' for Inactive)
REMARK    1  A    between atoms: C_2  and  N_3 
REMARK       I    between atoms: N_3  and  C_4 
REMARK       I    between atoms: C_4  and  N_5 
REMARK    2  A    between atoms: N_5  and  C_6 
REMARK    3  A    between atoms: N_5  and  C_22 
REMARK    4  A    between atoms: C_6  and  C_7 
REMARK    5  A    between atoms: C_8  and  O_9 
REMARK    6  A    between atoms: C_22  and  C_23 
REMARK    7  A    between atoms: C_23  and  C_24 
REMARK    8  A    between atoms: C_24  and  N_25 
ROOT
HETATM    1  N   UNL     1     -10.414   1.517 -33.075  1.00  0.00    -0.309 N 
HETATM    2  C   UNL     1      -9.505   2.078 -33.939  1.00  0.00     0.323 C 
HETATM    3  N   UNL     1      -8.179   1.685 -33.727  1.00  0.00    -0.330 N 
HETATM    4  O   UNL     1      -9.787   2.832 -34.867  1.00  0.00    -0.247 OA
HETATM    5  H   UNL     1     -10.077   1.347 -32.139  1.00  0.00     0.170 HD
ENDROOT
BRANCH   3   6
HETATM    6  C   UNL     1      -7.156   2.331 -34.560  1.00  0.00     0.170 C 
BRANCH   6   7
HETATM    7  C   UNL     1      -6.328   3.333 -33.812  1.00  0.00     0.013 A 
HETATM    8  C   UNL     1      -6.672   4.676 -33.741  1.00  0.00     0.170 A 
HETATM    9  N   UNL     1      -5.917   5.628 -33.167  1.00  0.00    -0.224 NA
HETATM   10  C   UNL     1      -4.755   5.267 -32.605  1.00  0.00     0.072 A 
HETATM   11  C   UNL     1      -4.315   3.925 -32.589  1.00  0.00    -0.004 A 
HETATM   12  C   UNL     1      -3.948   6.235 -32.025  1.00  0.00     0.072 A 
HETATM   13  C   UNL     1      -5.130   2.958 -33.198  1.00  0.00     0.027 A 
HETATM   14  C   UNL     1      -3.085   3.589 -31.999  1.00  0.00     0.053 A 
HETATM   15  C   UNL     1      -2.286   4.583 -31.443  1.00  0.00     0.103 A 
HETATM   16  C   UNL     1      -2.727   5.904 -31.437  1.00  0.00     0.104 A 
HETATM   17  O   UNL     1      -1.082   4.188 -30.923  1.00  0.00    -0.346 OA
HETATM   18  O   UNL     1      -2.006   6.935 -30.890  1.00  0.00    -0.346 OA
HETATM   19  C   UNL     1      -0.949   6.453 -30.052  1.00  0.00     0.202 C 
HETATM   20  C   UNL     1      -0.209   5.310 -30.725  1.00  0.00     0.202 C 
BRANCH   8  21
HETATM   21  O   UNL     1      -7.826   5.141 -34.298  1.00  0.00    -0.344 OA
HETATM   22  H   UNL     1      -7.681   6.093 -34.482  1.00  0.00     0.219 HD
ENDBRANCH   8  21
ENDBRANCH   6   7
ENDBRANCH   3   6
BRANCH   3  23
HETATM   23  C   UNL     1      -7.780   0.512 -32.945  1.00  0.00     0.129 C 
BRANCH  23  24
HETATM   24  C   UNL     1      -7.424  -0.706 -33.815  1.00  0.00     0.048 C 
BRANCH  24  25
HETATM   25  C   UNL     1      -5.921  -0.865 -34.026  1.00  0.00     0.236 C 
BRANCH  25  26
HETATM   26  N   UNL     1      -5.585  -2.233 -34.585  1.00  0.00    -0.067 N 
HETATM   27  H   UNL     1      -5.227  -2.106 -35.542  1.00  0.00     0.280 HD
HETATM   28  C   UNL     1      -4.452  -2.887 -33.782  1.00  0.00     0.261 C 
HETATM   29  C   UNL     1      -4.126  -4.263 -34.368  1.00  0.00     0.195 C 
HETATM   30  O   UNL     1      -5.288  -5.099 -34.379  1.00  0.00    -0.388 OA
HETATM   31  C   UNL     1      -6.329  -4.547 -35.188  1.00  0.00     0.195 C 
HETATM   32  C   UNL     1      -6.779  -3.184 -34.650  1.00  0.00     0.261 C 
ENDBRANCH  25  26
ENDBRANCH  24  25
ENDBRANCH  23  24
ENDBRANCH   3  23
BRANCH   1  33
HETATM   33  C   UNL     1     -11.819   1.498 -33.217  1.00  0.00     0.036 A 
HETATM   34  C   UNL     1     -12.637   2.609 -32.981  1.00  0.00     0.032 A 
HETATM   35  C   UNL     1     -14.019   2.523 -33.176  1.00  0.00     0.044 A 
HETATM   36  C   UNL     1     -14.580   1.334 -33.619  1.00  0.00     0.116 A 
HETATM   37  C   UNL     1     -13.785   0.224 -33.868  1.00  0.00     0.044 A 
HETATM   38  F   UNL     1     -15.902   1.258 -33.816  1.00  0.00    -0.206 F 
HETATM   39  C   UNL     1     -12.404   0.305 -33.668  1.00  0.00     0.032 A 
ENDBRANCH   1  33
TORSDOF 8
ENDMDL
MODEL 4
REMARK VINA RESULT:      -9.6      3.239      7.564
REMARK  8 active torsions:
REMARK  status: ('A' for Active; 'I' for Inactive)
REMARK    1  A    between atoms: C_2  and  N_3 
REMARK       I    between atoms: N_3  and  C_4 
REMARK       I    between atoms: C_4  and  N_5 
REMARK    2  A    between atoms: N_5  and  C_6 
REMARK    3  A    between atoms: N_5  and  C_22 
REMARK    4  A    between atoms: C_6  and  C_7 
REMARK    5  A    between atoms: C_8  and  O_9 
REMARK    6  A    between atoms: C_22  and  C_23 
REMARK    7  A    between atoms: C_23  and  C_24 
REMARK    8  A    between atoms: C_24  and  N_25 
ROOT
HETATM    1  N   UNL     1      -3.735   4.364 -31.557  1.00  0.00    -0.309 N 
HETATM    2  C   UNL     1      -4.478   4.151 -32.692  1.00  0.00     0.323 C 
HETATM    3  N   UNL     1      -5.721   3.548 -32.471  1.00  0.00    -0.330 N 
HETATM    4  O   UNL     1      -4.146   4.486 -33.826  1.00  0.00    -0.247 OA
HETATM    5  H   UNL     1      -3.842   3.671 -30.830  1.00  0.00     0.170 HD
ENDROOT
BRANCH   3   6
HETATM    6  C   UNL     1      -6.513   3.209 -33.661  1.00  0.00     0.170 C 
BRANCH   6   7
HETATM    7  C   UNL     1      -6.443   1.757 -34.027  1.00  0.00     0.013 A 
HETATM    8  C   UNL     1      -7.434   1.128 -34.769  1.00  0.00     0.170 A 
HETATM    9  N   UNL     1      -7.466  -0.187 -35.041  1.00  0.00    -0.224 NA
HETATM   10  C   UNL     1      -6.466  -0.957 -34.586  1.00  0.00     0.072 A 
HETATM   11  C   UNL     1      -5.387  -0.424 -33.847  1.00  0.00    -0.004 A 
HETATM   12  C   UNL     1      -6.488  -2.321 -34.836  1.00  0.00     0.072 A 
HETATM   13  C   UNL     1      -5.388   0.954 -33.581  1.00  0.00     0.027 A 
HETATM   14  C   UNL     1      -4.365  -1.266 -33.378  1.00  0.00     0.053 A 
HETATM   15  C   UNL     1      -4.423  -2.634 -33.625  1.00  0.00     0.103 A 
HETATM   16  C   UNL     1      -5.474  -3.159 -34.373  1.00  0.00     0.104 A 
HETATM   17  O   UNL     1      -3.414  -3.399 -33.102  1.00  0.00    -0.346 OA
HETATM   18  O   UNL     1      -5.588  -4.492 -34.677  1.00  0.00    -0.346 OA
HETATM   19  C   UNL     1      -4.364  -5.195 -34.436  1.00  0.00     0.202 C 
HETATM   20  C   UNL     1      -3.765  -4.790 -33.100  1.00  0.00     0.202 C 
BRANCH   8  21
HETATM   21  O   UNL     1      -8.498   1.824 -35.260  1.00  0.00    -0.344 OA
HETATM   22  H   UNL     1      -9.005   2.141 -34.483  1.00  0.00     0.219 HD
ENDBRANCH   8  21
ENDBRANCH   6   7
ENDBRANCH   3   6
BRANCH   3  23
HETATM   23  C   UNL     1      -6.386   3.479 -31.168  1.00  0.00     0.129 C 
BRANCH  23  24
HETATM   24  C   UNL     1      -7.904   3.718 -31.247  1.00  0.00     0.048 C 
BRANCH  24  25
HETATM   25  C   UNL     1      -8.702   2.760 -30.368  1.00  0.00     0.236 C 
BRANCH  25  26
HETATM   26  N   UNL     1      -9.682   1.946 -31.188  1.00  0.00    -0.067 N 
HETATM   27  H   UNL     1     -10.485   1.715 -30.587  1.00  0.00     0.280 HD
HETATM   28  C   UNL     1     -10.237   2.775 -32.354  1.00  0.00     0.261 C 
HETATM   29  C   UNL     1     -11.229   1.935 -33.164  1.00  0.00     0.195 C 
HETATM   30  O   UNL     1     -10.606   0.739 -33.645  1.00  0.00    -0.388 OA
HETATM   31  C   UNL     1     -10.153  -0.089 -32.571  1.00  0.00     0.195 C 
HETATM   32  C   UNL     1      -9.102   0.638 -31.724  1.00  0.00     0.261 C 
ENDBRANCH  25  26
ENDBRANCH  24  25
ENDBRANCH  23  24
ENDBRANCH   3  23
BRANCH   1  33
HETATM   33  C   UNL     1      -2.597   5.190 -31.431  1.00  0.00     0.036 A 
HETATM   34  C   UNL     1      -2.647   6.516 -30.989  1.00  0.00     0.032 A 
HETATM   35  C   UNL     1      -1.472   7.263 -30.857  1.00  0.00     0.044 A 
HETATM   36  C   UNL     1      -0.248   6.680 -31.154  1.00  0.00     0.116 A 
HETATM   37  C   UNL     1      -0.176   5.362 -31.586  1.00  0.00     0.044 A 
HETATM   38  F   UNL     1       0.877   7.393 -31.016  1.00  0.00    -0.206 F 
HETATM   39  C   UNL     1      -1.349   4.617 -31.725  1.00  0.00     0.032 A 
ENDBRANCH   1  33
TORSDOF 8
ENDMDL
MODEL 5
REMARK VINA RESULT:      -9.6      3.110      6.032
REMARK  8 active torsions:
REMARK  status: ('A' for Active; 'I' for Inactive)
REMARK    1  A    between atoms: C_2  and  N_3 
REMARK       I    between atoms: N_3  and  C_4 
REMARK       I    between atoms: C_4  and  N_5 
REMARK    2  A    between atoms: N_5  and  C_6 
REMARK    3  A    between atoms: N_5  and  C_22 
REMARK    4  A    between atoms: C_6  and  C_7 
REMARK    5  A    between atoms: C_8  and  O_9 
REMARK    6  A    between atoms: C_22  and  C_23 
REMARK    7  A    between atoms: C_23  and  C_24 
REMARK    8  A    between atoms: C_24  and  N_25 
ROOT
HETATM    1  N   UNL     1      -9.823   0.592 -33.478  1.00  0.00    -0.309 N 
HETATM    2  C   UNL     1      -8.982   0.595 -32.393  1.00  0.00     0.323 C 
HETATM    3  N   UNL     1      -7.621   0.543 -32.709  1.00  0.00    -0.330 N 
HETATM    4  O   UNL     1      -9.343   0.683 -31.222  1.00  0.00    -0.247 OA
HETATM    5  H   UNL     1      -9.506   0.057 -34.274  1.00  0.00     0.170 HD
ENDROOT
BRANCH   3   6
HETATM    6  C   UNL     1      -6.683   0.445 -31.583  1.00  0.00     0.170 C 
BRANCH   6   7
HETATM    7  C   UNL     1      -5.906   1.705 -31.345  1.00  0.00     0.013 A 
HETATM    8  C   UNL     1      -6.294   2.651 -30.406  1.00  0.00     0.170 A 
HETATM    9  N   UNL     1      -5.689   3.837 -30.222  1.00  0.00    -0.224 NA
HETATM   10  C   UNL     1      -4.623   4.133 -30.980  1.00  0.00     0.072 A 
HETATM   11  C   UNL     1      -4.119   3.236 -31.946  1.00  0.00    -0.004 A 
HETATM   12  C   UNL     1      -3.995   5.360 -30.823  1.00  0.00     0.072 A 
HETATM   13  C   UNL     1      -4.776   2.007 -32.112  1.00  0.00     0.027 A 
HETATM   14  C   UNL     1      -3.006   3.589 -32.729  1.00  0.00     0.053 A 
HETATM   15  C   UNL     1      -2.408   4.834 -32.565  1.00  0.00     0.103 A 
HETATM   16  C   UNL     1      -2.890   5.713 -31.597  1.00  0.00     0.104 A 
HETATM   17  O   UNL     1      -1.354   5.126 -33.390  1.00  0.00    -0.346 OA
HETATM   18  O   UNL     1      -2.340   6.947 -31.361  1.00  0.00    -0.346 OA
HETATM   19  C   UNL     1      -1.049   7.075 -31.970  1.00  0.00     0.202 C 
HETATM   20  C   UNL     1      -1.068   6.532 -33.389  1.00  0.00     0.202 C 
BRANCH   8  21
HETATM   21  O   UNL     1      -7.374   2.447 -29.601  1.00  0.00    -0.344 OA
HETATM   22  H   UNL     1      -8.138   2.289 -30.196  1.00  0.00     0.219 HD
ENDBRANCH   8  21
ENDBRANCH   6   7
ENDBRANCH   3   6
BRANCH   3  23
HETATM   23  C   UNL     1      -7.067   0.844 -34.032  1.00  0.00     0.129 C 
BRANCH  23  24
HETATM   24  C   UNL     1      -6.610  -0.409 -34.799  1.00  0.00     0.048 C 
BRANCH  24  25
HETATM   25  C   UNL     1      -5.344  -1.031 -34.217  1.00  0.00     0.236 C 
BRANCH  25  26
HETATM   26  N   UNL     1      -5.493  -2.529 -34.051  1.00  0.00    -0.067 N 
HETATM   27  H   UNL     1      -5.759  -2.717 -33.074  1.00  0.00     0.280 HD
HETATM   28  C   UNL     1      -6.638  -3.064 -34.922  1.00  0.00     0.261 C 
HETATM   29  C   UNL     1      -6.773  -4.577 -34.734  1.00  0.00     0.195 C 
HETATM   30  O   UNL     1      -5.544  -5.240 -35.050  1.00  0.00    -0.388 OA
HETATM   31  C   UNL     1      -4.480  -4.816 -34.195  1.00  0.00     0.195 C 
HETATM   32  C   UNL     1      -4.216  -3.314 -34.350  1.00  0.00     0.261 C 
ENDBRANCH  25  26
ENDBRANCH  24  25
ENDBRANCH  23  24
ENDBRANCH   3  23
BRANCH   1  33
HETATM   33  C   UNL     1     -11.197   0.918 -33.488  1.00  0.00     0.036 A 
HETATM   34  C   UNL     1     -11.683   2.230 -33.507  1.00  0.00     0.032 A 
HETATM   35  C   UNL     1     -13.059   2.475 -33.550  1.00  0.00     0.044 A 
HETATM   36  C   UNL     1     -13.947   1.409 -33.588  1.00  0.00     0.116 A 
HETATM   37  C   UNL     1     -13.485   0.099 -33.579  1.00  0.00     0.044 A 
HETATM   38  F   UNL     1     -15.264   1.645 -33.641  1.00  0.00    -0.206 F 
HETATM   39  C   UNL     1     -12.111  -0.147 -33.530  1.00  0.00     0.032 A 
ENDBRANCH   1  33
TORSDOF 8
ENDMDL
MODEL 6
REMARK VINA RESULT:      -9.3      3.470      8.504
REMARK  8 active torsions:
REMARK  status: ('A' for Active; 'I' for Inactive)
REMARK    1  A    between atoms: C_2  and  N_3 
REMARK       I    between atoms: N_3  and  C_4 
REMARK       I    between atoms: C_4  and  N_5 
REMARK    2  A    between atoms: N_5  and  C_6 
REMARK    3  A    between atoms: N_5  and  C_22 
REMARK    4  A    between atoms: C_6  and  C_7 
REMARK    5  A    between atoms: C_8  and  O_9 
REMARK    6  A    between atoms: C_22  and  C_23 
REMARK    7  A    between atoms: C_23  and  C_24 
REMARK    8  A    between atoms: C_24  and  N_25 
ROOT
HETATM    1  N   UNL     1      -3.110   3.103 -32.374  1.00  0.00    -0.309 N 
HETATM    2  C   UNL     1      -4.070   2.694 -31.481  1.00  0.00     0.323 C 
HETATM    3  N   UNL     1      -4.584   1.415 -31.722  1.00  0.00    -0.330 N 
HETATM    4  O   UNL     1      -4.448   3.340 -30.508  1.00  0.00    -0.247 OA
HETATM    5  H   UNL     1      -3.226   2.770 -33.320  1.00  0.00     0.170 HD
ENDROOT
BRANCH   3   6
HETATM    6  C   UNL     1      -5.683   0.970 -30.855  1.00  0.00     0.170 C 
BRANCH   6   7
HETATM    7  C   UNL     1      -7.001   1.598 -31.197  1.00  0.00     0.013 A 
HETATM    8  C   UNL     1      -7.624   2.518 -30.364  1.00  0.00     0.170 A 
HETATM    9  N   UNL     1      -8.845   3.036 -30.576  1.00  0.00    -0.224 NA
HETATM   10  C   UNL     1      -9.514   2.660 -31.677  1.00  0.00     0.072 A 
HETATM   11  C   UNL     1      -8.968   1.755 -32.613  1.00  0.00    -0.004 A 
HETATM   12  C   UNL     1     -10.785   3.166 -31.907  1.00  0.00     0.072 A 
HETATM   13  C   UNL     1      -7.690   1.234 -32.357  1.00  0.00     0.027 A 
HETATM   14  C   UNL     1      -9.706   1.378 -33.747  1.00  0.00     0.053 A 
HETATM   15  C   UNL     1     -10.987   1.884 -33.944  1.00  0.00     0.103 A 
HETATM   16  C   UNL     1     -11.520   2.794 -33.033  1.00  0.00     0.104 A 
HETATM   17  O   UNL     1     -11.664   1.441 -35.049  1.00  0.00    -0.346 OA
HETATM   18  O   UNL     1     -12.765   3.353 -33.170  1.00  0.00    -0.346 OA
HETATM   19  C   UNL     1     -13.289   3.158 -34.488  1.00  0.00     0.202 C 
HETATM   20  C   UNL     1     -13.065   1.728 -34.950  1.00  0.00     0.202 C 
BRANCH   8  21
HETATM   21  O   UNL     1      -7.030   2.947 -29.215  1.00  0.00    -0.344 OA
HETATM   22  H   UNL     1      -7.017   3.927 -29.258  1.00  0.00     0.219 HD
ENDBRANCH   8  21
ENDBRANCH   6   7
ENDBRANCH   3   6
BRANCH   3  23
HETATM   23  C   UNL     1      -3.941   0.413 -32.576  1.00  0.00     0.129 C 
BRANCH  23  24
HETATM   24  C   UNL     1      -4.721  -0.911 -32.652  1.00  0.00     0.048 C 
BRANCH  24  25
HETATM   25  C   UNL     1      -5.439  -1.100 -33.985  1.00  0.00     0.236 C 
BRANCH  25  26
HETATM   26  N   UNL     1      -5.187  -2.482 -34.554  1.00  0.00    -0.067 N 
HETATM   27  H   UNL     1      -4.722  -2.371 -35.466  1.00  0.00     0.280 HD
HETATM   28  C   UNL     1      -4.215  -3.269 -33.665  1.00  0.00     0.261 C 
HETATM   29  C   UNL     1      -3.972  -4.658 -34.262  1.00  0.00     0.195 C 
HETATM   30  O   UNL     1      -5.205  -5.368 -34.416  1.00  0.00    -0.388 OA
HETATM   31  C   UNL     1      -6.097  -4.692 -35.306  1.00  0.00     0.195 C 
HETATM   32  C   UNL     1      -6.459  -3.302 -34.769  1.00  0.00     0.261 C 
ENDBRANCH  25  26
ENDBRANCH  24  25
ENDBRANCH  23  24
ENDBRANCH   3  23
BRANCH   1  33
HETATM   33  C   UNL     1      -2.225   4.194 -32.228  1.00  0.00     0.036 A 
HETATM   34  C   UNL     1      -1.508   4.459 -31.056  1.00  0.00     0.032 A 
HETATM   35  C   UNL     1      -0.623   5.540 -30.998  1.00  0.00     0.044 A 
HETATM   36  C   UNL     1      -0.447   6.347 -32.113  1.00  0.00     0.116 A 
HETATM   37  C   UNL     1      -1.143   6.096 -33.288  1.00  0.00     0.044 A 
HETATM   38  F   UNL     1       0.409   7.375 -32.059  1.00  0.00    -0.206 F 
HETATM   39  C   UNL     1      -2.032   5.020 -33.346  1.00  0.00     0.032 A 
ENDBRANCH   1  33
TORSDOF 8
ENDMDL
MODEL 7
REMARK VINA RESULT:      -9.2      2.867      7.638
REMARK  8 active torsions:
REMARK  status: ('A' for Active; 'I' for Inactive)
REMARK    1  A    between atoms: C_2  and  N_3 
REMARK       I    between atoms: N_3  and  C_4 
REMARK       I    between atoms: C_4  and  N_5 
REMARK    2  A    between atoms: N_5  and  C_6 
REMARK    3  A    between atoms: N_5  and  C_22 
REMARK    4  A    between atoms: C_6  and  C_7 
REMARK    5  A    between atoms: C_8  and  O_9 
REMARK    6  A    between atoms: C_22  and  C_23 
REMARK    7  A    between atoms: C_23  and  C_24 
REMARK    8  A    between atoms: C_24  and  N_25 
ROOT
HETATM    1  N   UNL     1      -5.012  -0.292 -32.935  1.00  0.00    -0.309 N 
HETATM    2  C   UNL     1      -5.592   0.191 -31.788  1.00  0.00     0.323 C 
HETATM    3  N   UNL     1      -5.325   1.538 -31.522  1.00  0.00    -0.330 N 
HETATM    4  O   UNL     1      -6.331  -0.452 -31.047  1.00  0.00    -0.247 OA
HETATM    5  H   UNL     1      -4.113   0.105 -33.169  1.00  0.00     0.170 HD
ENDROOT
BRANCH   3   6
HETATM    6  C   UNL     1      -5.840   2.078 -30.257  1.00  0.00     0.170 C 
BRANCH   6   7
HETATM    7  C   UNL     1      -7.086   2.895 -30.423  1.00  0.00     0.013 A 
HETATM    8  C   UNL     1      -7.354   4.010 -29.640  1.00  0.00     0.170 A 
HETATM    9  N   UNL     1      -8.495   4.718 -29.684  1.00  0.00    -0.224 NA
HETATM   10  C   UNL     1      -9.445   4.343 -30.554  1.00  0.00     0.072 A 
HETATM   11  C   UNL     1      -9.272   3.244 -31.424  1.00  0.00    -0.004 A 
HETATM   12  C   UNL     1     -10.640   5.045 -30.603  1.00  0.00     0.072 A 
HETATM   13  C   UNL     1      -8.068   2.528 -31.349  1.00  0.00     0.027 A 
HETATM   14  C   UNL     1     -10.296   2.876 -32.313  1.00  0.00     0.053 A 
HETATM   15  C   UNL     1     -11.493   3.585 -32.327  1.00  0.00     0.103 A 
HETATM   16  C   UNL     1     -11.658   4.683 -31.486  1.00  0.00     0.104 A 
HETATM   17  O   UNL     1     -12.462   3.145 -33.190  1.00  0.00    -0.346 OA
HETATM   18  O   UNL     1     -12.799   5.444 -31.457  1.00  0.00    -0.346 OA
HETATM   19  C   UNL     1     -13.630   5.192 -32.596  1.00  0.00     0.202 C 
HETATM   20  C   UNL     1     -13.743   3.700 -32.859  1.00  0.00     0.202 C 
BRANCH   8  21
HETATM   21  O   UNL     1      -6.457   4.457 -28.716  1.00  0.00    -0.344 OA
HETATM   22  H   UNL     1      -5.667   4.752 -29.217  1.00  0.00     0.219 HD
ENDBRANCH   8  21
ENDBRANCH   6   7
ENDBRANCH   3   6
BRANCH   3  23
HETATM   23  C   UNL     1      -4.816   2.492 -32.512  1.00  0.00     0.129 C 
BRANCH  23  24
HETATM   24  C   UNL     1      -3.325   2.821 -32.328  1.00  0.00     0.048 C 
BRANCH  24  25
HETATM   25  C   UNL     1      -3.095   4.139 -31.594  1.00  0.00     0.236 C 
BRANCH  25  26
HETATM   26  N   UNL     1      -2.152   5.041 -32.365  1.00  0.00    -0.067 N 
HETATM   27  H   UNL     1      -1.192   4.838 -32.053  1.00  0.00     0.280 HD
HETATM   28  C   UNL     1      -2.197   4.721 -33.865  1.00  0.00     0.261 C 
HETATM   29  C   UNL     1      -1.233   5.639 -34.622  1.00  0.00     0.195 C 
HETATM   30  O   UNL     1      -1.553   7.015 -34.388  1.00  0.00    -0.388 OA
HETATM   31  C   UNL     1      -1.439   7.356 -33.004  1.00  0.00     0.195 C 
HETATM   32  C   UNL     1      -2.413   6.532 -32.154  1.00  0.00     0.261 C 
ENDBRANCH  25  26
ENDBRANCH  24  25
ENDBRANCH  23  24
ENDBRANCH   3  23
BRANCH   1  33
HETATM   33  C   UNL     1      -5.324  -1.498 -33.601  1.00  0.00     0.036 A 
HETATM   34  C   UNL     1      -6.566  -1.760 -34.189  1.00  0.00     0.032 A 
HETATM   35  C   UNL     1      -6.790  -2.966 -34.861  1.00  0.00     0.044 A 
HETATM   36  C   UNL     1      -5.769  -3.901 -34.957  1.00  0.00     0.116 A 
HETATM   37  C   UNL     1      -4.527  -3.656 -34.388  1.00  0.00     0.044 A 
HETATM   38  F   UNL     1      -5.982  -5.050 -35.611  1.00  0.00    -0.206 F 
HETATM   39  C   UNL     1      -4.303  -2.455 -33.710  1.00  0.00     0.032 A 
ENDBRANCH   1  33
TORSDOF 8
ENDMDL
MODEL 8
REMARK VINA RESULT:      -9.1      2.044      2.490
REMARK  8 active torsions:
REMARK  status: ('A' for Active; 'I' for Inactive)
REMARK    1  A    between atoms: C_2  and  N_3 
REMARK       I    between atoms: N_3  and  C_4 
REMARK       I    between atoms: C_4  and  N_5 
REMARK    2  A    between atoms: N_5  and  C_6 
REMARK    3  A    between atoms: N_5  and  C_22 
REMARK    4  A    between atoms: C_6  and  C_7 
REMARK    5  A    between atoms: C_8  and  O_9 
REMARK    6  A    between atoms: C_22  and  C_23 
REMARK    7  A    between atoms: C_23  and  C_24 
REMARK    8  A    between atoms: C_24  and  N_25 
ROOT
HETATM    1  N   UNL     1      -7.095  -0.800 -33.546  1.00  0.00    -0.309 N 
HETATM    2  C   UNL     1      -7.057   0.425 -34.167  1.00  0.00     0.323 C 
HETATM    3  N   UNL     1      -7.537   1.486 -33.392  1.00  0.00    -0.330 N 
HETATM    4  O   UNL     1      -6.606   0.632 -35.290  1.00  0.00    -0.247 OA
HETATM    5  H   UNL     1      -7.866  -0.942 -32.910  1.00  0.00     0.170 HD
ENDROOT
BRANCH   3   6
HETATM    6  C   UNL     1      -7.610   2.800 -34.043  1.00  0.00     0.170 C 
BRANCH   6   7
HETATM    7  C   UNL     1      -6.598   3.777 -33.525  1.00  0.00     0.013 A 
HETATM    8  C   UNL     1      -6.770   5.151 -33.626  1.00  0.00     0.170 A 
HETATM    9  N   UNL     1      -5.854   6.065 -33.265  1.00  0.00    -0.224 NA
HETATM   10  C   UNL     1      -4.692   5.633 -32.753  1.00  0.00     0.072 A 
HETATM   11  C   UNL     1      -4.416   4.260 -32.573  1.00  0.00    -0.004 A 
HETATM   12  C   UNL     1      -3.722   6.557 -32.392  1.00  0.00     0.072 A 
HETATM   13  C   UNL     1      -5.397   3.335 -32.962  1.00  0.00     0.027 A 
HETATM   14  C   UNL     1      -3.181   3.849 -32.043  1.00  0.00     0.053 A 
HETATM   15  C   UNL     1      -2.218   4.795 -31.709  1.00  0.00     0.103 A 
HETATM   16  C   UNL     1      -2.495   6.152 -31.864  1.00  0.00     0.104 A 
HETATM   17  O   UNL     1      -1.023   4.320 -31.237  1.00  0.00    -0.346 OA
HETATM   18  O   UNL     1      -1.606   7.143 -31.537  1.00  0.00    -0.346 OA
HETATM   19  C   UNL     1      -0.535   6.646 -30.727  1.00  0.00     0.202 C 
HETATM   20  C   UNL     1      -0.008   5.333 -31.281  1.00  0.00     0.202 C 
BRANCH   8  21
HETATM   21  O   UNL     1      -7.911   5.684 -34.149  1.00  0.00    -0.344 OA
HETATM   22  H   UNL     1      -8.396   4.943 -34.570  1.00  0.00     0.219 HD
ENDBRANCH   8  21
ENDBRANCH   6   7
ENDBRANCH   3   6
BRANCH   3  23
HETATM   23  C   UNL     1      -7.712   1.436 -31.938  1.00  0.00     0.129 C 
BRANCH  23  24
HETATM   24  C   UNL     1      -9.075   1.972 -31.471  1.00  0.00     0.048 C 
BRANCH  24  25
HETATM   25  C   UNL     1      -8.954   3.006 -30.354  1.00  0.00     0.236 C 
BRANCH  25  26
HETATM   26  N   UNL     1      -9.656   4.297 -30.721  1.00  0.00    -0.067 N 
HETATM   27  H   UNL     1     -10.374   4.484 -30.007  1.00  0.00     0.280 HD
HETATM   28  C   UNL     1      -8.680   5.481 -30.673  1.00  0.00     0.261 C 
HETATM   29  C   UNL     1      -9.412   6.775 -31.041  1.00  0.00     0.195 C 
HETATM   30  O   UNL     1     -10.013   6.667 -32.335  1.00  0.00    -0.388 OA
HETATM   31  C   UNL     1     -10.987   5.621 -32.380  1.00  0.00     0.195 C 
HETATM   32  C   UNL     1     -10.345   4.261 -32.085  1.00  0.00     0.261 C 
ENDBRANCH  25  26
ENDBRANCH  24  25
ENDBRANCH  23  24
ENDBRANCH   3  23
BRANCH   1  33
HETATM   33  C   UNL     1      -6.432  -1.979 -33.955  1.00  0.00     0.036 A 
HETATM   34  C   UNL     1      -5.045  -2.150 -33.890  1.00  0.00     0.032 A 
HETATM   35  C   UNL     1      -4.463  -3.360 -34.281  1.00  0.00     0.044 A 
HETATM   36  C   UNL     1      -5.268  -4.401 -34.723  1.00  0.00     0.116 A 
HETATM   37  C   UNL     1      -6.647  -4.254 -34.786  1.00  0.00     0.044 A 
HETATM   38  F   UNL     1      -4.710  -5.562 -35.086  1.00  0.00    -0.206 F 
HETATM   39  C   UNL     1      -7.230  -3.044 -34.402  1.00  0.00     0.032 A 
ENDBRANCH   1  33
TORSDOF 8
ENDMDL
MODEL 9
REMARK VINA RESULT:      -9.0      2.158      8.005
REMARK  8 active torsions:
REMARK  status: ('A' for Active; 'I' for Inactive)
REMARK    1  A    between atoms: C_2  and  N_3 
REMARK       I    between atoms: N_3  and  C_4 
REMARK       I    between atoms: C_4  and  N_5 
REMARK    2  A    between atoms: N_5  and  C_6 
REMARK    3  A    between atoms: N_5  and  C_22 
REMARK    4  A    between atoms: C_6  and  C_7 
REMARK    5  A    between atoms: C_8  and  O_9 
REMARK    6  A    between atoms: C_22  and  C_23 
REMARK    7  A    between atoms: C_23  and  C_24 
REMARK    8  A    between atoms: C_24  and  N_25 
ROOT
HETATM    1  N   UNL     1      -4.346   0.067 -32.705  1.00  0.00    -0.309 N 
HETATM    2  C   UNL     1      -5.285   0.617 -31.867  1.00  0.00     0.323 C 
HETATM    3  N   UNL     1      -5.611   1.947 -32.150  1.00  0.00    -0.330 N 
HETATM    4  O   UNL     1      -5.857   0.019 -30.959  1.00  0.00    -0.247 OA
HETATM    5  H   UNL     1      -3.640   0.703 -33.044  1.00  0.00     0.170 HD
ENDROOT
BRANCH   3   6
HETATM    6  C   UNL     1      -6.537   2.613 -31.225  1.00  0.00     0.170 C 
BRANCH   6   7
HETATM    7  C   UNL     1      -7.930   2.741 -31.766  1.00  0.00     0.013 A 
HETATM    8  C   UNL     1      -8.609   3.951 -31.794  1.00  0.00     0.170 A 
HETATM    9  N   UNL     1      -9.887   4.102 -32.179  1.00  0.00    -0.224 NA
HETATM   10  C   UNL     1     -10.562   3.016 -32.584  1.00  0.00     0.072 A 
HETATM   11  C   UNL     1      -9.966   1.736 -32.629  1.00  0.00    -0.004 A 
HETATM   12  C   UNL     1     -11.889   3.142 -32.967  1.00  0.00     0.072 A 
HETATM   13  C   UNL     1      -8.629   1.618 -32.219  1.00  0.00     0.027 A 
HETATM   14  C   UNL     1     -10.711   0.622 -33.049  1.00  0.00     0.053 A 
HETATM   15  C   UNL     1     -12.047   0.773 -33.407  1.00  0.00     0.103 A 
HETATM   16  C   UNL     1     -12.631   2.037 -33.386  1.00  0.00     0.104 A 
HETATM   17  O   UNL     1     -12.723  -0.363 -33.766  1.00  0.00    -0.346 OA
HETATM   18  O   UNL     1     -13.934   2.269 -33.745  1.00  0.00    -0.346 OA
HETATM   19  C   UNL     1     -14.496   1.153 -34.446  1.00  0.00     0.202 C 
HETATM   20  C   UNL     1     -14.141  -0.151 -33.751  1.00  0.00     0.202 C 
BRANCH   8  21
HETATM   21  O   UNL     1      -8.011   5.107 -31.386  1.00  0.00    -0.344 OA
HETATM   22  H   UNL     1      -7.675   4.940 -30.481  1.00  0.00     0.219 HD
ENDBRANCH   8  21
ENDBRANCH   6   7
ENDBRANCH   3   6
BRANCH   3  23
HETATM   23  C   UNL     1      -5.316   2.619 -33.418  1.00  0.00     0.129 C 
BRANCH  23  24
HETATM   24  C   UNL     1      -5.111   4.137 -33.269  1.00  0.00     0.048 C 
BRANCH  24  25
HETATM   25  C   UNL     1      -4.744   4.818 -34.584  1.00  0.00     0.236 C 
BRANCH  25  26
HETATM   26  N   UNL     1      -3.531   5.710 -34.422  1.00  0.00    -0.067 N 
HETATM   27  H   UNL     1      -3.645   6.520 -35.048  1.00  0.00     0.280 HD
HETATM   28  C   UNL     1      -3.454   6.274 -32.996  1.00  0.00     0.261 C 
HETATM   29  C   UNL     1      -2.225   7.176 -32.858  1.00  0.00     0.195 C 
HETATM   30  O   UNL     1      -1.030   6.459 -33.184  1.00  0.00    -0.388 OA
HETATM   31  C   UNL     1      -1.044   5.994 -34.535  1.00  0.00     0.195 C 
HETATM   32  C   UNL     1      -2.209   5.026 -34.771  1.00  0.00     0.261 C 
ENDBRANCH  25  26
ENDBRANCH  24  25
ENDBRANCH  23  24
ENDBRANCH   3  23
BRANCH   1  33
HETATM   33  C   UNL     1      -4.034  -1.303 -32.845  1.00  0.00     0.036 A 
HETATM   34  C   UNL     1      -3.275  -2.024 -31.917  1.00  0.00     0.032 A 
HETATM   35  C   UNL     1      -3.035  -3.389 -32.106  1.00  0.00     0.044 A 
HETATM   36  C   UNL     1      -3.565  -4.034 -33.216  1.00  0.00     0.116 A 
HETATM   37  C   UNL     1      -4.327  -3.338 -34.144  1.00  0.00     0.044 A 
HETATM   38  F   UNL     1      -3.344  -5.343 -33.390  1.00  0.00    -0.206 F 
HETATM   39  C   UNL     1      -4.563  -1.973 -33.959  1.00  0.00     0.032 A 
ENDBRANCH   1  33
TORSDOF 8
ENDMDL
MODEL 10
REMARK VINA RESULT:      -9.0      3.076      7.672
REMARK  8 active torsions:
REMARK  status: ('A' for Active; 'I' for Inactive)
REMARK    1  A    between atoms: C_2  and  N_3 
REMARK       I    between atoms: N_3  and  C_4 
REMARK       I    between atoms: C_4  and  N_5 
REMARK    2  A    between atoms: N_5  and  C_6 
REMARK    3  A    between atoms: N_5  and  C_22 
REMARK    4  A    between atoms: C_6  and  C_7 
REMARK    5  A    between atoms: C_8  and  O_9 
REMARK    6  A    between atoms: C_22  and  C_23 
REMARK    7  A    between atoms: C_23  and  C_24 
REMARK    8  A    between atoms: C_24  and  N_25 
ROOT
HETATM    1  N   UNL     1      -4.834  -0.415 -32.862  1.00  0.00    -0.309 N 
HETATM    2  C   UNL     1      -5.365   0.010 -31.668  1.00  0.00     0.323 C 
HETATM    3  N   UNL     1      -5.058   1.333 -31.332  1.00  0.00    -0.330 N 
HETATM    4  O   UNL     1      -6.093  -0.661 -30.941  1.00  0.00    -0.247 OA
HETATM    5  H   UNL     1      -3.935  -0.024 -33.102  1.00  0.00     0.170 HD
ENDROOT
BRANCH   3   6
HETATM    6  C   UNL     1      -5.519   1.806 -30.020  1.00  0.00     0.170 C 
BRANCH   6   7
HETATM    7  C   UNL     1      -6.566   2.876 -30.108  1.00  0.00     0.013 A 
HETATM    8  C   UNL     1      -6.400   4.128 -29.532  1.00  0.00     0.170 A 
HETATM    9  N   UNL     1      -7.343   5.085 -29.500  1.00  0.00    -0.224 NA
HETATM   10  C   UNL     1      -8.527   4.832 -30.077  1.00  0.00     0.072 A 
HETATM   11  C   UNL     1      -8.800   3.606 -30.722  1.00  0.00    -0.004 A 
HETATM   12  C   UNL     1      -9.523   5.797 -30.039  1.00  0.00     0.072 A 
HETATM   13  C   UNL     1      -7.792   2.630 -30.735  1.00  0.00     0.027 A 
HETATM   14  C   UNL     1     -10.057   3.377 -31.305  1.00  0.00     0.053 A 
HETATM   15  C   UNL     1     -11.046   4.354 -31.234  1.00  0.00     0.103 A 
HETATM   16  C   UNL     1     -10.772   5.573 -30.618  1.00  0.00     0.104 A 
HETATM   17  O   UNL     1     -12.260   4.045 -31.788  1.00  0.00    -0.346 OA
HETATM   18  O   UNL     1     -11.686   6.592 -30.528  1.00  0.00    -0.346 OA
HETATM   19  C   UNL     1     -12.795   6.386 -31.411  1.00  0.00     0.202 C 
HETATM   20  C   UNL     1     -13.280   4.948 -31.338  1.00  0.00     0.202 C 
BRANCH   8  21
HETATM   21  O   UNL     1      -5.238   4.471 -28.908  1.00  0.00    -0.344 OA
HETATM   22  H   UNL     1      -4.671   4.890 -29.588  1.00  0.00     0.219 HD
ENDBRANCH   8  21
ENDBRANCH   6   7
ENDBRANCH   3   6
BRANCH   3  23
HETATM   23  C   UNL     1      -4.562   2.333 -32.281  1.00  0.00     0.129 C 
BRANCH  23  24
HETATM   24  C   UNL     1      -3.263   3.016 -31.819  1.00  0.00     0.048 C 
BRANCH  24  25
HETATM   25  C   UNL     1      -3.362   4.539 -31.820  1.00  0.00     0.236 C 
BRANCH  25  26
HETATM   26  N   UNL     1      -2.525   5.146 -30.712  1.00  0.00    -0.067 N 
HETATM   27  H   UNL     1      -2.667   4.584 -29.861  1.00  0.00     0.280 HD
HETATM   28  C   UNL     1      -1.030   5.055 -31.046  1.00  0.00     0.261 C 
HETATM   29  C   UNL     1      -0.204   5.668 -29.911  1.00  0.00     0.195 C 
HETATM   30  O   UNL     1      -0.590   7.027 -29.680  1.00  0.00    -0.388 OA
HETATM   31  C   UNL     1      -1.961   7.129 -29.289  1.00  0.00     0.195 C 
HETATM   32  C   UNL     1      -2.887   6.595 -30.387  1.00  0.00     0.261 C 
ENDBRANCH  25  26
ENDBRANCH  24  25
ENDBRANCH  23  24
ENDBRANCH   3  23
BRANCH   1  33
HETATM   33  C   UNL     1      -5.196  -1.572 -33.586  1.00  0.00     0.036 A 
HETATM   34  C   UNL     1      -4.325  -2.643 -33.821  1.00  0.00     0.032 A 
HETATM   35  C   UNL     1      -4.766  -3.773 -34.518  1.00  0.00     0.044 A 
HETATM   36  C   UNL     1      -6.077  -3.836 -34.968  1.00  0.00     0.116 A 
HETATM   37  C   UNL     1      -6.959  -2.789 -34.737  1.00  0.00     0.044 A 
HETATM   38  F   UNL     1      -6.500  -4.924 -35.625  1.00  0.00    -0.206 F 
HETATM   39  C   UNL     1      -6.519  -1.657 -34.046  1.00  0.00     0.032 A 
ENDBRANCH   1  33
TORSDOF 8
ENDMDL
