MODEL 1
REMARK VINA RESULT:      -8.8      0.000      0.000
REMARK  4 active torsions:
REMARK  status: ('A' for Active; 'I' for Inactive)
REMARK    1  A    between atoms: C_3  and  C_4 
REMARK    2  A    between atoms: C_5  and  C_6 
REMARK       I    between atoms: C_6  and  N_7 
REMARK    3  A    between atoms: N_7  and  C_8 
REMARK    4  A    between atoms: C_15  and  C_16 
REMARK       I    between atoms: C_16  and  N_17 
ROOT
HETATM    1  C   UNL     1      -5.261   2.618 -31.604  1.00  0.00     0.035 A 
HETATM    2  C   UNL     1      -4.012   3.170 -31.916  1.00  0.00     0.046 A 
HETATM    3  C   UNL     1      -3.612   4.383 -31.312  1.00  0.00     0.030 A 
HETATM    4  C   UNL     1      -4.474   5.000 -30.414  1.00  0.00     0.063 A 
HETATM    5  N   UNL     1      -3.826   6.133 -30.010  1.00  0.00    -0.277 N 
HETATM    6  H   UNL     1      -4.160   6.832 -29.357  1.00  0.00     0.189 HD
HETATM    7  N   UNL     1      -2.613   6.308 -30.560  1.00  0.00    -0.168 NA
HETATM    8  C   UNL     1      -2.466   5.231 -31.368  1.00  0.00     0.156 A 
HETATM    9  C   UNL     1      -5.722   4.476 -30.073  1.00  0.00     0.034 A 
HETATM   10  C   UNL     1      -6.094   3.271 -30.685  1.00  0.00     0.032 A 
ENDROOT
BRANCH   1  11
HETATM   11  N   UNL     1      -5.756   1.423 -32.171  1.00  0.00    -0.327 N 
HETATM   12  C   UNL     1      -6.634   1.298 -33.227  1.00  0.00     0.227 C 
HETATM   13  O   UNL     1      -7.123   2.204 -33.884  1.00  0.00    -0.273 OA
HETATM   14  H   UNL     1      -5.465   0.569 -31.719  1.00  0.00     0.169 HD
BRANCH  12  15
HETATM   15  C   UNL     1      -7.051  -0.093 -33.573  1.00  0.00     0.087 A 
HETATM   16  C   UNL     1      -6.462  -0.775 -34.805  1.00  0.00     0.034 A 
HETATM   17  C   UNL     1      -7.944  -0.492 -34.712  1.00  0.00     0.025 A 
BRANCH  16  18
HETATM   18  C   UNL     1      -5.893  -2.173 -34.653  1.00  0.00    -0.031 A 
HETATM   19  C   UNL     1      -6.673  -3.282 -35.041  1.00  0.00     0.009 A 
HETATM   20  C   UNL     1      -6.215  -4.594 -34.901  1.00  0.00     0.001 A 
HETATM   21  C   UNL     1      -4.957  -4.835 -34.360  1.00  0.00     0.002 A 
HETATM   22  C   UNL     1      -4.166  -3.763 -33.952  1.00  0.00     0.024 A 
HETATM   23  C   UNL     1      -4.633  -2.450 -34.089  1.00  0.00     0.040 A 
HETATM   24 CL   UNL     1      -3.612  -1.178 -33.510  1.00  0.00    -0.084 Cl
ENDBRANCH  16  18
ENDBRANCH  12  15
ENDBRANCH   1  11
BRANCH   8  25
HETATM   25  C   UNL     1      -1.247   5.041 -32.166  1.00  0.00     0.270 C 
HETATM   26  N   UNL     1      -1.438   5.159 -33.516  1.00  0.00    -0.365 N 
HETATM   27  H   UNL     1      -2.368   5.367 -33.858  1.00  0.00     0.159 HD
HETATM   28  H   UNL     1      -0.655   5.050 -34.141  1.00  0.00     0.159 HD
HETATM   29  O   UNL     1      -0.137   4.797 -31.702  1.00  0.00    -0.266 OA
ENDBRANCH   8  25
TORSDOF 4
ENDMDL
MODEL 2
REMARK VINA RESULT:      -8.6      1.844      2.617
REMARK  4 active torsions:
REMARK  status: ('A' for Active; 'I' for Inactive)
REMARK    1  A    between atoms: C_3  and  C_4 
REMARK    2  A    between atoms: C_5  and  C_6 
REMARK       I    between atoms: C_6  and  N_7 
REMARK    3  A    between atoms: N_7  and  C_8 
REMARK    4  A    between atoms: C_15  and  C_16 
REMARK       I    between atoms: C_16  and  N_17 
ROOT
HETATM    1  C   UNL     1      -3.638   3.752 -32.704  1.00  0.00     0.035 A 
HETATM    2  C   UNL     1      -2.483   3.934 -31.933  1.00  0.00     0.046 A 
HETATM    3  C   UNL     1      -1.743   5.131 -32.053  1.00  0.00     0.030 A 
HETATM    4  C   UNL     1      -2.184   6.105 -32.939  1.00  0.00     0.063 A 
HETATM    5  N   UNL     1      -1.275   7.122 -32.840  1.00  0.00    -0.277 N 
HETATM    6  H   UNL     1      -1.278   7.999 -33.348  1.00  0.00     0.189 HD
HETATM    7  N   UNL     1      -0.283   6.900 -31.963  1.00  0.00    -0.168 NA
HETATM    8  C   UNL     1      -0.559   5.671 -31.466  1.00  0.00     0.156 A 
HETATM    9  C   UNL     1      -3.333   5.962 -33.718  1.00  0.00     0.034 A 
HETATM   10  C   UNL     1      -4.051   4.767 -33.579  1.00  0.00     0.032 A 
ENDROOT
BRANCH   1  11
HETATM   11  N   UNL     1      -4.432   2.584 -32.668  1.00  0.00    -0.327 N 
HETATM   12  C   UNL     1      -5.208   2.132 -31.622  1.00  0.00     0.227 C 
HETATM   13  O   UNL     1      -5.372   2.679 -30.542  1.00  0.00    -0.273 OA
HETATM   14  H   UNL     1      -4.385   1.995 -33.486  1.00  0.00     0.169 HD
BRANCH  12  15
HETATM   15  C   UNL     1      -5.888   0.818 -31.828  1.00  0.00     0.087 A 
HETATM   16  C   UNL     1      -6.352   0.419 -33.225  1.00  0.00     0.034 A 
HETATM   17  C   UNL     1      -7.348   0.611 -32.105  1.00  0.00     0.025 A 
BRANCH  16  18
HETATM   18  C   UNL     1      -5.974  -0.955 -33.747  1.00  0.00    -0.031 A 
HETATM   19  C   UNL     1      -6.990  -1.831 -34.181  1.00  0.00     0.009 A 
HETATM   20  C   UNL     1      -6.707  -3.117 -34.647  1.00  0.00     0.001 A 
HETATM   21  C   UNL     1      -5.392  -3.568 -34.685  1.00  0.00     0.002 A 
HETATM   22  C   UNL     1      -4.366  -2.733 -34.248  1.00  0.00     0.024 A 
HETATM   23  C   UNL     1      -4.655  -1.446 -33.777  1.00  0.00     0.040 A 
HETATM   24 CL   UNL     1      -3.331  -0.492 -33.204  1.00  0.00    -0.084 Cl
ENDBRANCH  16  18
ENDBRANCH  12  15
ENDBRANCH   1  11
BRANCH   8  25
HETATM   25  C   UNL     1       0.306   5.049 -30.454  1.00  0.00     0.270 C 
HETATM   26  N   UNL     1      -0.057   5.325 -29.163  1.00  0.00    -0.365 N 
HETATM   27  H   UNL     1      -0.867   5.911 -29.002  1.00  0.00     0.159 HD
HETATM   28  H   UNL     1       0.475   4.935 -28.402  1.00  0.00     0.159 HD
HETATM   29  O   UNL     1       1.275   4.339 -30.701  1.00  0.00    -0.266 OA
ENDBRANCH   8  25
TORSDOF 4
ENDMDL
MODEL 3
REMARK VINA RESULT:      -8.5      1.685      2.647
REMARK  4 active torsions:
REMARK  status: ('A' for Active; 'I' for Inactive)
REMARK    1  A    between atoms: C_3  and  C_4 
REMARK    2  A    between atoms: C_5  and  C_6 
REMARK       I    between atoms: C_6  and  N_7 
REMARK    3  A    between atoms: N_7  and  C_8 
REMARK    4  A    between atoms: C_15  and  C_16 
REMARK       I    between atoms: C_16  and  N_17 
ROOT
HETATM    1  C   UNL     1      -4.497   2.740 -32.037  1.00  0.00     0.035 A 
HETATM    2  C   UNL     1      -4.978   3.608 -31.048  1.00  0.00     0.046 A 
HETATM    3  C   UNL     1      -4.259   4.784 -30.739  1.00  0.00     0.030 A 
HETATM    4  C   UNL     1      -3.085   5.053 -31.432  1.00  0.00     0.063 A 
HETATM    5  N   UNL     1      -2.622   6.231 -30.917  1.00  0.00    -0.277 N 
HETATM    6  H   UNL     1      -1.781   6.729 -31.183  1.00  0.00     0.189 HD
HETATM    7  N   UNL     1      -3.394   6.759 -29.953  1.00  0.00    -0.168 NA
HETATM    8  C   UNL     1      -4.412   5.875 -29.832  1.00  0.00     0.156 A 
HETATM    9  C   UNL     1      -2.580   4.216 -32.428  1.00  0.00     0.034 A 
HETATM   10  C   UNL     1      -3.313   3.057 -32.717  1.00  0.00     0.032 A 
ENDROOT
BRANCH   1  11
HETATM   11  N   UNL     1      -5.135   1.534 -32.402  1.00  0.00    -0.327 N 
HETATM   12  C   UNL     1      -6.253   1.384 -33.195  1.00  0.00     0.227 C 
HETATM   13  O   UNL     1      -6.880   2.272 -33.751  1.00  0.00    -0.273 OA
HETATM   14  H   UNL     1      -4.750   0.694 -31.995  1.00  0.00     0.169 HD
BRANCH  12  15
HETATM   15  C   UNL     1      -6.762  -0.010 -33.355  1.00  0.00     0.087 A 
HETATM   16  C   UNL     1      -6.508  -0.763 -34.658  1.00  0.00     0.034 A 
HETATM   17  C   UNL     1      -7.916  -0.438 -34.214  1.00  0.00     0.025 A 
BRANCH  16  18
HETATM   18  C   UNL     1      -5.939  -2.167 -34.581  1.00  0.00    -0.031 A 
HETATM   19  C   UNL     1      -6.756  -3.263 -34.926  1.00  0.00     0.009 A 
HETATM   20  C   UNL     1      -6.297  -4.580 -34.851  1.00  0.00     0.001 A 
HETATM   21  C   UNL     1      -5.000  -4.839 -34.420  1.00  0.00     0.002 A 
HETATM   22  C   UNL     1      -4.172  -3.780 -34.056  1.00  0.00     0.024 A 
HETATM   23  C   UNL     1      -4.639  -2.462 -34.128  1.00  0.00     0.040 A 
HETATM   24 CL   UNL     1      -3.565  -1.208 -33.609  1.00  0.00    -0.084 Cl
ENDBRANCH  16  18
ENDBRANCH  12  15
ENDBRANCH   1  11
BRANCH   8  25
HETATM   25  C   UNL     1      -5.495   6.092 -28.863  1.00  0.00     0.270 C 
HETATM   26  N   UNL     1      -5.454   5.255 -27.781  1.00  0.00    -0.365 N 
HETATM   27  H   UNL     1      -4.706   4.575 -27.722  1.00  0.00     0.159 HD
HETATM   28  H   UNL     1      -6.154   5.335 -27.062  1.00  0.00     0.159 HD
HETATM   29  O   UNL     1      -6.377   6.937 -28.976  1.00  0.00    -0.266 OA
ENDBRANCH   8  25
TORSDOF 4
ENDMDL
MODEL 4
REMARK VINA RESULT:      -8.4      3.488      8.226
REMARK  4 active torsions:
REMARK  status: ('A' for Active; 'I' for Inactive)
REMARK    1  A    between atoms: C_3  and  C_4 
REMARK    2  A    between atoms: C_5  and  C_6 
REMARK       I    between atoms: C_6  and  N_7 
REMARK    3  A    between atoms: N_7  and  C_8 
REMARK    4  A    between atoms: C_15  and  C_16 
REMARK       I    between atoms: C_16  and  N_17 
ROOT
HETATM    1  C   UNL     1      -5.554  -0.062 -33.864  1.00  0.00     0.035 A 
HETATM    2  C   UNL     1      -4.803  -1.225 -33.646  1.00  0.00     0.046 A 
HETATM    3  C   UNL     1      -5.314  -2.475 -34.062  1.00  0.00     0.030 A 
HETATM    4  C   UNL     1      -6.554  -2.519 -34.683  1.00  0.00     0.063 A 
HETATM    5  N   UNL     1      -6.776  -3.840 -34.957  1.00  0.00    -0.277 N 
HETATM    6  H   UNL     1      -7.589  -4.246 -35.407  1.00  0.00     0.189 HD
HETATM    7  N   UNL     1      -5.786  -4.662 -34.574  1.00  0.00    -0.168 NA
HETATM    8  C   UNL     1      -4.872  -3.832 -34.019  1.00  0.00     0.156 A 
HETATM    9  C   UNL     1      -7.327  -1.381 -34.925  1.00  0.00     0.034 A 
HETATM   10  C   UNL     1      -6.798  -0.154 -34.505  1.00  0.00     0.032 A 
ENDROOT
BRANCH   1  11
HETATM   11  N   UNL     1      -5.137   1.227 -33.468  1.00  0.00    -0.327 N 
HETATM   12  C   UNL     1      -5.229   1.787 -32.210  1.00  0.00     0.227 C 
HETATM   13  O   UNL     1      -5.665   1.254 -31.201  1.00  0.00    -0.273 OA
HETATM   14  H   UNL     1      -4.773   1.817 -34.202  1.00  0.00     0.169 HD
BRANCH  12  15
HETATM   15  C   UNL     1      -4.779   3.205 -32.089  1.00  0.00     0.087 A 
HETATM   16  C   UNL     1      -3.329   3.510 -31.722  1.00  0.00     0.034 A 
HETATM   17  C   UNL     1      -4.462   3.927 -30.811  1.00  0.00     0.025 A 
BRANCH  16  18
HETATM   18  C   UNL     1      -2.563   4.506 -32.571  1.00  0.00    -0.031 A 
HETATM   19  C   UNL     1      -2.479   4.305 -33.964  1.00  0.00     0.009 A 
HETATM   20  C   UNL     1      -1.767   5.173 -34.794  1.00  0.00     0.001 A 
HETATM   21  C   UNL     1      -1.109   6.271 -34.250  1.00  0.00     0.002 A 
HETATM   22  C   UNL     1      -1.159   6.490 -32.875  1.00  0.00     0.024 A 
HETATM   23  C   UNL     1      -1.870   5.614 -32.046  1.00  0.00     0.040 A 
HETATM   24 CL   UNL     1      -1.839   5.927 -30.345  1.00  0.00    -0.084 Cl
ENDBRANCH  16  18
ENDBRANCH  12  15
ENDBRANCH   1  11
BRANCH   8  25
HETATM   25  C   UNL     1      -3.612  -4.349 -33.467  1.00  0.00     0.270 C 
HETATM   26  N   UNL     1      -3.023  -5.319 -34.232  1.00  0.00    -0.365 N 
HETATM   27  H   UNL     1      -3.474  -5.598 -35.093  1.00  0.00     0.159 HD
HETATM   28  H   UNL     1      -2.151  -5.727 -33.934  1.00  0.00     0.159 HD
HETATM   29  O   UNL     1      -3.100  -3.972 -32.418  1.00  0.00    -0.266 OA
ENDBRANCH   8  25
TORSDOF 4
ENDMDL
MODEL 5
REMARK VINA RESULT:      -8.1      5.144      7.039
REMARK  4 active torsions:
REMARK  status: ('A' for Active; 'I' for Inactive)
REMARK    1  A    between atoms: C_3  and  C_4 
REMARK    2  A    between atoms: C_5  and  C_6 
REMARK       I    between atoms: C_6  and  N_7 
REMARK    3  A    between atoms: N_7  and  C_8 
REMARK    4  A    between atoms: C_15  and  C_16 
REMARK       I    between atoms: C_16  and  N_17 
ROOT
HETATM    1  C   UNL     1     -11.298   1.824 -34.093  1.00  0.00     0.035 A 
HETATM    2  C   UNL     1     -11.310   2.927 -33.228  1.00  0.00     0.046 A 
HETATM    3  C   UNL     1     -12.543   3.493 -32.833  1.00  0.00     0.030 A 
HETATM    4  C   UNL     1     -13.721   2.936 -33.316  1.00  0.00     0.063 A 
HETATM    5  N   UNL     1     -14.725   3.689 -32.775  1.00  0.00    -0.277 N 
HETATM    6  H   UNL     1     -15.723   3.572 -32.914  1.00  0.00     0.189 HD
HETATM    7  N   UNL     1     -14.308   4.685 -31.977  1.00  0.00    -0.168 NA
HETATM    8  C   UNL     1     -12.959   4.576 -32.002  1.00  0.00     0.156 A 
HETATM    9  C   UNL     1     -13.748   1.834 -34.173  1.00  0.00     0.034 A 
HETATM   10  C   UNL     1     -12.512   1.290 -34.547  1.00  0.00     0.032 A 
ENDROOT
BRANCH   1  11
HETATM   11  N   UNL     1     -10.118   1.204 -34.557  1.00  0.00    -0.327 N 
HETATM   12  C   UNL     1      -9.276   0.372 -33.850  1.00  0.00     0.227 C 
HETATM   13  O   UNL     1      -9.415  -0.002 -32.695  1.00  0.00    -0.273 OA
HETATM   14  H   UNL     1      -9.841   1.435 -35.500  1.00  0.00     0.169 HD
BRANCH  12  15
HETATM   15  C   UNL     1      -8.049  -0.086 -34.568  1.00  0.00     0.087 A 
HETATM   16  C   UNL     1      -6.836  -0.554 -33.771  1.00  0.00     0.034 A 
HETATM   17  C   UNL     1      -6.751   0.660 -34.667  1.00  0.00     0.025 A 
BRANCH  16  18
HETATM   18  C   UNL     1      -6.197  -1.879 -34.139  1.00  0.00    -0.031 A 
HETATM   19  C   UNL     1      -7.017  -2.951 -34.548  1.00  0.00     0.009 A 
HETATM   20  C   UNL     1      -6.490  -4.203 -34.874  1.00  0.00     0.001 A 
HETATM   21  C   UNL     1      -5.118  -4.420 -34.795  1.00  0.00     0.002 A 
HETATM   22  C   UNL     1      -4.281  -3.387 -34.380  1.00  0.00     0.024 A 
HETATM   23  C   UNL     1      -4.815  -2.136 -34.048  1.00  0.00     0.040 A 
HETATM   24 CL   UNL     1      -3.714  -0.923 -33.492  1.00  0.00    -0.084 Cl
ENDBRANCH  16  18
ENDBRANCH  12  15
ENDBRANCH   1  11
BRANCH   8  25
HETATM   25  C   UNL     1     -12.107   5.499 -31.239  1.00  0.00     0.270 C 
HETATM   26  N   UNL     1     -11.370   4.896 -30.256  1.00  0.00    -0.365 N 
HETATM   27  H   UNL     1     -11.454   3.895 -30.131  1.00  0.00     0.159 HD
HETATM   28  H   UNL     1     -10.753   5.451 -29.685  1.00  0.00     0.159 HD
HETATM   29  O   UNL     1     -12.034   6.708 -31.434  1.00  0.00    -0.266 OA
ENDBRANCH   8  25
TORSDOF 4
ENDMDL
MODEL 6
REMARK VINA RESULT:      -8.0      2.782      3.458
REMARK  4 active torsions:
REMARK  status: ('A' for Active; 'I' for Inactive)
REMARK    1  A    between atoms: C_3  and  C_4 
REMARK    2  A    between atoms: C_5  and  C_6 
REMARK       I    between atoms: C_6  and  N_7 
REMARK    3  A    between atoms: N_7  and  C_8 
REMARK    4  A    between atoms: C_15  and  C_16 
REMARK       I    between atoms: C_16  and  N_17 
ROOT
HETATM    1  C   UNL     1      -8.330   2.718 -31.584  1.00  0.00     0.035 A 
HETATM    2  C   UNL     1      -7.315   3.436 -30.938  1.00  0.00     0.046 A 
HETATM    3  C   UNL     1      -7.652   4.515 -30.091  1.00  0.00     0.030 A 
HETATM    4  C   UNL     1      -8.991   4.837 -29.917  1.00  0.00     0.063 A 
HETATM    5  N   UNL     1      -8.999   5.907 -29.065  1.00  0.00    -0.277 N 
HETATM    6  H   UNL     1      -9.808   6.410 -28.719  1.00  0.00     0.189 HD
HETATM    7  N   UNL     1      -7.782   6.307 -28.663  1.00  0.00    -0.168 NA
HETATM    8  C   UNL     1      -6.937   5.455 -29.289  1.00  0.00     0.156 A 
HETATM    9  C   UNL     1     -10.030   4.140 -30.537  1.00  0.00     0.034 A 
HETATM   10  C   UNL     1      -9.669   3.073 -31.371  1.00  0.00     0.032 A 
ENDROOT
BRANCH   1  11
HETATM   11  N   UNL     1      -8.092   1.639 -32.464  1.00  0.00    -0.327 N 
HETATM   12  C   UNL     1      -7.490   0.434 -32.166  1.00  0.00     0.227 C 
HETATM   13  O   UNL     1      -7.077   0.071 -31.076  1.00  0.00    -0.273 OA
HETATM   14  H   UNL     1      -8.354   1.790 -33.427  1.00  0.00     0.169 HD
BRANCH  12  15
HETATM   15  C   UNL     1      -7.295  -0.503 -33.313  1.00  0.00     0.087 A 
HETATM   16  C   UNL     1      -5.894  -0.735 -33.870  1.00  0.00     0.034 A 
HETATM   17  C   UNL     1      -6.975  -0.116 -34.727  1.00  0.00     0.025 A 
BRANCH  16  18
HETATM   18  C   UNL     1      -5.422  -2.163 -34.067  1.00  0.00    -0.031 A 
HETATM   19  C   UNL     1      -6.181  -3.035 -34.875  1.00  0.00     0.009 A 
HETATM   20  C   UNL     1      -5.812  -4.368 -35.072  1.00  0.00     0.001 A 
HETATM   21  C   UNL     1      -4.670  -4.871 -34.457  1.00  0.00     0.002 A 
HETATM   22  C   UNL     1      -3.907  -4.040 -33.640  1.00  0.00     0.024 A 
HETATM   23  C   UNL     1      -4.284  -2.707 -33.441  1.00  0.00     0.040 A 
HETATM   24 CL   UNL     1      -3.312  -1.756 -32.370  1.00  0.00    -0.084 Cl
ENDBRANCH  16  18
ENDBRANCH  12  15
ENDBRANCH   1  11
BRANCH   8  25
HETATM   25  C   UNL     1      -5.483   5.557 -29.107  1.00  0.00     0.270 C 
HETATM   26  N   UNL     1      -5.038   5.109 -27.893  1.00  0.00    -0.365 N 
HETATM   27  H   UNL     1      -5.714   4.748 -27.231  1.00  0.00     0.159 HD
HETATM   28  H   UNL     1      -4.053   5.135 -27.682  1.00  0.00     0.159 HD
HETATM   29  O   UNL     1      -4.701   5.996 -29.944  1.00  0.00    -0.266 OA
ENDBRANCH   8  25
TORSDOF 4
ENDMDL
MODEL 7
REMARK VINA RESULT:      -7.9      3.778      9.253
REMARK  4 active torsions:
REMARK  status: ('A' for Active; 'I' for Inactive)
REMARK    1  A    between atoms: C_3  and  C_4 
REMARK    2  A    between atoms: C_5  and  C_6 
REMARK       I    between atoms: C_6  and  N_7 
REMARK    3  A    between atoms: N_7  and  C_8 
REMARK    4  A    between atoms: C_15  and  C_16 
REMARK       I    between atoms: C_16  and  N_17 
ROOT
HETATM    1  C   UNL     1      -3.441   3.752 -31.390  1.00  0.00     0.035 A 
HETATM    2  C   UNL     1      -3.367   2.387 -31.698  1.00  0.00     0.046 A 
HETATM    3  C   UNL     1      -4.517   1.713 -32.167  1.00  0.00     0.030 A 
HETATM    4  C   UNL     1      -5.699   2.426 -32.314  1.00  0.00     0.063 A 
HETATM    5  N   UNL     1      -6.615   1.519 -32.768  1.00  0.00    -0.277 N 
HETATM    6  H   UNL     1      -7.591   1.688 -32.983  1.00  0.00     0.189 HD
HETATM    7  N   UNL     1      -6.134   0.277 -32.937  1.00  0.00    -0.168 NA
HETATM    8  C   UNL     1      -4.835   0.381 -32.570  1.00  0.00     0.156 A 
HETATM    9  C   UNL     1      -5.809   3.788 -32.024  1.00  0.00     0.034 A 
HETATM   10  C   UNL     1      -4.654   4.434 -31.563  1.00  0.00     0.032 A 
ENDROOT
BRANCH   1  11
HETATM   11  N   UNL     1      -2.353   4.507 -30.898  1.00  0.00    -0.327 N 
HETATM   12  C   UNL     1      -1.332   5.077 -31.628  1.00  0.00     0.227 C 
HETATM   13  O   UNL     1      -1.199   5.056 -32.842  1.00  0.00    -0.273 OA
HETATM   14  H   UNL     1      -2.299   4.596 -29.894  1.00  0.00     0.169 HD
BRANCH  12  15
HETATM   15  C   UNL     1      -0.263   5.760 -30.839  1.00  0.00     0.087 A 
HETATM   16  C   UNL     1      -0.435   7.222 -30.441  1.00  0.00     0.034 A 
HETATM   17  C   UNL     1       0.691   6.797 -31.354  1.00  0.00     0.025 A 
BRANCH  16  18
HETATM   18  C   UNL     1      -0.202   7.609 -28.992  1.00  0.00    -0.031 A 
HETATM   19  C   UNL     1       1.101   7.945 -28.569  1.00  0.00     0.009 A 
HETATM   20  C   UNL     1       1.382   8.283 -27.244  1.00  0.00     0.001 A 
HETATM   21  C   UNL     1       0.364   8.289 -26.297  1.00  0.00     0.002 A 
HETATM   22  C   UNL     1      -0.931   7.946 -26.678  1.00  0.00     0.024 A 
HETATM   23  C   UNL     1      -1.208   7.602 -28.007  1.00  0.00     0.040 A 
HETATM   24 CL   UNL     1      -2.831   7.139 -28.388  1.00  0.00    -0.084 Cl
ENDBRANCH  16  18
ENDBRANCH  12  15
ENDBRANCH   1  11
BRANCH   8  25
HETATM   25  C   UNL     1      -3.938  -0.782 -32.613  1.00  0.00     0.270 C 
HETATM   26  N   UNL     1      -3.291  -1.033 -31.434  1.00  0.00    -0.365 N 
HETATM   27  H   UNL     1      -3.471  -0.427 -30.643  1.00  0.00     0.159 HD
HETATM   28  H   UNL     1      -2.660  -1.815 -31.368  1.00  0.00     0.159 HD
HETATM   29  O   UNL     1      -3.758  -1.492 -33.597  1.00  0.00    -0.266 OA
ENDBRANCH   8  25
TORSDOF 4
ENDMDL
MODEL 8
REMARK VINA RESULT:      -7.9      2.370      3.393
REMARK  4 active torsions:
REMARK  status: ('A' for Active; 'I' for Inactive)
REMARK    1  A    between atoms: C_3  and  C_4 
REMARK    2  A    between atoms: C_5  and  C_6 
REMARK       I    between atoms: C_6  and  N_7 
REMARK    3  A    between atoms: N_7  and  C_8 
REMARK    4  A    between atoms: C_15  and  C_16 
REMARK       I    between atoms: C_16  and  N_17 
ROOT
HETATM    1  C   UNL     1      -3.771   4.489 -32.993  1.00  0.00     0.035 A 
HETATM    2  C   UNL     1      -4.052   5.690 -32.329  1.00  0.00     0.046 A 
HETATM    3  C   UNL     1      -3.114   6.746 -32.366  1.00  0.00     0.030 A 
HETATM    4  C   UNL     1      -1.929   6.565 -33.066  1.00  0.00     0.063 A 
HETATM    5  N   UNL     1      -1.237   7.734 -32.916  1.00  0.00    -0.277 N 
HETATM    6  H   UNL     1      -0.322   7.959 -33.292  1.00  0.00     0.189 HD
HETATM    7  N   UNL     1      -1.869   8.666 -32.184  1.00  0.00    -0.168 NA
HETATM    8  C   UNL     1      -3.033   8.069 -31.837  1.00  0.00     0.156 A 
HETATM    9  C   UNL     1      -1.617   5.385 -33.746  1.00  0.00     0.034 A 
HETATM   10  C   UNL     1      -2.565   4.355 -33.696  1.00  0.00     0.032 A 
ENDROOT
BRANCH   1  11
HETATM   11  N   UNL     1      -4.636   3.373 -32.997  1.00  0.00    -0.327 N 
HETATM   12  C   UNL     1      -4.847   2.473 -31.973  1.00  0.00     0.227 C 
HETATM   13  O   UNL     1      -4.341   2.497 -30.862  1.00  0.00    -0.273 OA
HETATM   14  H   UNL     1      -5.117   3.193 -33.866  1.00  0.00     0.169 HD
BRANCH  12  15
HETATM   15  C   UNL     1      -5.765   1.335 -32.278  1.00  0.00     0.087 A 
HETATM   16  C   UNL     1      -5.938   0.869 -33.720  1.00  0.00     0.034 A 
HETATM   17  C   UNL     1      -7.106   1.434 -32.944  1.00  0.00     0.025 A 
BRANCH  16  18
HETATM   18  C   UNL     1      -5.806  -0.612 -34.021  1.00  0.00    -0.031 A 
HETATM   19  C   UNL     1      -6.937  -1.331 -34.458  1.00  0.00     0.009 A 
HETATM   20  C   UNL     1      -6.884  -2.701 -34.725  1.00  0.00     0.001 A 
HETATM   21  C   UNL     1      -5.691  -3.396 -34.556  1.00  0.00     0.002 A 
HETATM   22  C   UNL     1      -4.558  -2.719 -34.111  1.00  0.00     0.024 A 
HETATM   23  C   UNL     1      -4.618  -1.346 -33.838  1.00  0.00     0.040 A 
HETATM   24 CL   UNL     1      -3.182  -0.591 -33.239  1.00  0.00    -0.084 Cl
ENDBRANCH  16  18
ENDBRANCH  12  15
ENDBRANCH   1  11
BRANCH   8  25
HETATM   25  C   UNL     1      -4.031   8.770 -31.017  1.00  0.00     0.270 C 
HETATM   26  N   UNL     1      -4.299   8.162 -29.820  1.00  0.00    -0.365 N 
HETATM   27  H   UNL     1      -3.806   7.308 -29.589  1.00  0.00     0.159 HD
HETATM   28  H   UNL     1      -4.966   8.576 -29.190  1.00  0.00     0.159 HD
HETATM   29  O   UNL     1      -4.596   9.810 -31.338  1.00  0.00    -0.266 OA
ENDBRANCH   8  25
TORSDOF 4
ENDMDL
MODEL 9
REMARK VINA RESULT:      -7.7      5.012      7.129
REMARK  4 active torsions:
REMARK  status: ('A' for Active; 'I' for Inactive)
REMARK    1  A    between atoms: C_3  and  C_4 
REMARK    2  A    between atoms: C_5  and  C_6 
REMARK       I    between atoms: C_6  and  N_7 
REMARK    3  A    between atoms: N_7  and  C_8 
REMARK    4  A    between atoms: C_15  and  C_16 
REMARK       I    between atoms: C_16  and  N_17 
ROOT
HETATM    1  C   UNL     1     -10.815   1.852 -34.186  1.00  0.00     0.035 A 
HETATM    2  C   UNL     1     -11.026   2.652 -33.055  1.00  0.00     0.046 A 
HETATM    3  C   UNL     1     -12.170   3.478 -32.987  1.00  0.00     0.030 A 
HETATM    4  C   UNL     1     -13.063   3.476 -34.050  1.00  0.00     0.063 A 
HETATM    5  N   UNL     1     -14.043   4.362 -33.703  1.00  0.00    -0.277 N 
HETATM    6  H   UNL     1     -14.860   4.618 -34.245  1.00  0.00     0.189 HD
HETATM    7  N   UNL     1     -13.872   4.940 -32.502  1.00  0.00    -0.168 NA
HETATM    8  C   UNL     1     -12.717   4.402 -32.046  1.00  0.00     0.156 A 
HETATM    9  C   UNL     1     -12.889   2.687 -35.190  1.00  0.00     0.034 A 
HETATM   10  C   UNL     1     -11.748   1.875 -35.231  1.00  0.00     0.032 A 
ENDROOT
BRANCH   1  11
HETATM   11  N   UNL     1      -9.694   1.009 -34.353  1.00  0.00    -0.327 N 
HETATM   12  C   UNL     1      -9.093   0.216 -33.399  1.00  0.00     0.227 C 
HETATM   13  O   UNL     1      -9.442   0.077 -32.237  1.00  0.00    -0.273 OA
HETATM   14  H   UNL     1      -9.261   1.030 -35.265  1.00  0.00     0.169 HD
BRANCH  12  15
HETATM   15  C   UNL     1      -7.868  -0.519 -33.833  1.00  0.00     0.087 A 
HETATM   16  C   UNL     1      -6.520   0.196 -33.841  1.00  0.00     0.034 A 
HETATM   17  C   UNL     1      -7.129  -0.323 -35.124  1.00  0.00     0.025 A 
BRANCH  16  18
HETATM   18  C   UNL     1      -5.339  -0.482 -33.173  1.00  0.00    -0.031 A 
HETATM   19  C   UNL     1      -4.854  -1.698 -33.696  1.00  0.00     0.009 A 
HETATM   20  C   UNL     1      -3.787  -2.382 -33.110  1.00  0.00     0.001 A 
HETATM   21  C   UNL     1      -3.175  -1.868 -31.972  1.00  0.00     0.002 A 
HETATM   22  C   UNL     1      -3.639  -0.676 -31.420  1.00  0.00     0.024 A 
HETATM   23  C   UNL     1      -4.713   0.003 -32.008  1.00  0.00     0.040 A 
HETATM   24 CL   UNL     1      -5.263   1.448 -31.232  1.00  0.00    -0.084 Cl
ENDBRANCH  16  18
ENDBRANCH  12  15
ENDBRANCH   1  11
BRANCH   8  25
HETATM   25  C   UNL     1     -12.169   4.778 -30.735  1.00  0.00     0.270 C 
HETATM   26  N   UNL     1     -12.424   3.872 -29.742  1.00  0.00    -0.365 N 
HETATM   27  H   UNL     1     -12.947   3.036 -29.970  1.00  0.00     0.159 HD
HETATM   28  H   UNL     1     -12.081   4.045 -28.810  1.00  0.00     0.159 HD
HETATM   29  O   UNL     1     -11.533   5.803 -30.510  1.00  0.00    -0.266 OA
ENDBRANCH   8  25
TORSDOF 4
ENDMDL
MODEL 10
REMARK VINA RESULT:      -7.7      2.528      3.701
REMARK  4 active torsions:
REMARK  status: ('A' for Active; 'I' for Inactive)
REMARK    1  A    between atoms: C_3  and  C_4 
REMARK    2  A    between atoms: C_5  and  C_6 
REMARK       I    between atoms: C_6  and  N_7 
REMARK    3  A    between atoms: N_7  and  C_8 
REMARK    4  A    between atoms: C_15  and  C_16 
REMARK       I    between atoms: C_16  and  N_17 
ROOT
HETATM    1  C   UNL     1      -2.573   4.430 -32.481  1.00  0.00     0.035 A 
HETATM    2  C   UNL     1      -2.392   5.053 -31.240  1.00  0.00     0.046 A 
HETATM    3  C   UNL     1      -2.244   6.457 -31.176  1.00  0.00     0.030 A 
HETATM    4  C   UNL     1      -2.284   7.188 -32.356  1.00  0.00     0.063 A 
HETATM    5  N   UNL     1      -2.108   8.491 -31.980  1.00  0.00    -0.277 N 
HETATM    6  H   UNL     1      -2.078   9.305 -32.584  1.00  0.00     0.189 HD
HETATM    7  N   UNL     1      -1.964   8.675 -30.658  1.00  0.00    -0.168 NA
HETATM    8  C   UNL     1      -2.047   7.425 -30.146  1.00  0.00     0.156 A 
HETATM    9  C   UNL     1      -2.469   6.603 -33.610  1.00  0.00     0.034 A 
HETATM   10  C   UNL     1      -2.616   5.210 -33.645  1.00  0.00     0.032 A 
ENDROOT
BRANCH   1  11
HETATM   11  N   UNL     1      -2.710   3.034 -32.647  1.00  0.00    -0.327 N 
HETATM   12  C   UNL     1      -3.675   2.217 -32.097  1.00  0.00     0.227 C 
HETATM   13  O   UNL     1      -4.607   2.560 -31.385  1.00  0.00    -0.273 OA
HETATM   14  H   UNL     1      -1.992   2.584 -33.195  1.00  0.00     0.169 HD
BRANCH  12  15
HETATM   15  C   UNL     1      -3.537   0.757 -32.378  1.00  0.00     0.087 A 
HETATM   16  C   UNL     1      -4.633  -0.207 -31.931  1.00  0.00     0.034 A 
HETATM   17  C   UNL     1      -3.233  -0.314 -31.372  1.00  0.00     0.025 A 
BRANCH  16  18
HETATM   18  C   UNL     1      -5.180  -1.197 -32.941  1.00  0.00    -0.031 A 
HETATM   19  C   UNL     1      -4.313  -2.154 -33.509  1.00  0.00     0.009 A 
HETATM   20  C   UNL     1      -4.751  -3.074 -34.463  1.00  0.00     0.001 A 
HETATM   21  C   UNL     1      -6.077  -3.061 -34.883  1.00  0.00     0.002 A 
HETATM   22  C   UNL     1      -6.956  -2.119 -34.354  1.00  0.00     0.024 A 
HETATM   23  C   UNL     1      -6.510  -1.194 -33.402  1.00  0.00     0.040 A 
HETATM   24 CL   UNL     1      -7.652  -0.025 -32.833  1.00  0.00    -0.084 Cl
ENDBRANCH  16  18
ENDBRANCH  12  15
ENDBRANCH   1  11
BRANCH   8  25
HETATM   25  C   UNL     1      -1.937   7.187 -28.700  1.00  0.00     0.270 C 
HETATM   26  N   UNL     1      -0.893   6.376 -28.344  1.00  0.00    -0.365 N 
HETATM   27  H   UNL     1      -0.289   6.015 -29.073  1.00  0.00     0.159 HD
HETATM   28  H   UNL     1      -0.737   6.163 -27.372  1.00  0.00     0.159 HD
HETATM   29  O   UNL     1      -2.691   7.655 -27.854  1.00  0.00    -0.266 OA
ENDBRANCH   8  25
TORSDOF 4
ENDMDL
