MODEL 1
REMARK VINA RESULT:      -8.8      0.000      0.000
REMARK  4 active torsions:
REMARK  status: ('A' for Active; 'I' for Inactive)
REMARK    1  A    between atoms: C_4  and  C_5 
REMARK    2  A    between atoms: C_8  and  N_9 
REMARK       I    between atoms: N_9  and  C_10 
REMARK       I    between atoms: C_10  and  N_11 
REMARK    3  A    between atoms: N_11  and  C_12 
REMARK    4  A    between atoms: C_12  and  C_13 
ROOT
HETATM    1  C   UNL     1      -6.128  -0.823 -34.241  1.00  0.00     0.089 A 
HETATM    2  N   UNL     1      -5.396  -0.073 -33.384  1.00  0.00    -0.148 NA
HETATM    3  N   UNL     1      -5.660   1.274 -33.223  1.00  0.00    -0.131 NA
HETATM    4  C   UNL     1      -6.659   1.861 -33.906  1.00  0.00     0.153 A 
HETATM    5  C   UNL     1      -7.437   1.121 -34.782  1.00  0.00     0.055 A 
HETATM    6  C   UNL     1      -7.168  -0.238 -34.951  1.00  0.00     0.038 A 
ENDROOT
BRANCH   4   7
HETATM    7  N   UNL     1      -6.937   3.221 -33.777  1.00  0.00    -0.292 N 
HETATM    8  C   UNL     1      -6.179   4.298 -34.105  1.00  0.00     0.322 C 
HETATM    9  N   UNL     1      -4.929   4.078 -34.585  1.00  0.00    -0.337 N 
HETATM   10  O   UNL     1      -6.646   5.424 -33.936  1.00  0.00    -0.247 OA
HETATM   11  H   UNL     1      -4.730   3.144 -34.928  1.00  0.00     0.164 HD
HETATM   12  H   UNL     1      -7.835   3.490 -33.401  1.00  0.00     0.172 HD
BRANCH   9  13
HETATM   13  C   UNL     1      -4.136   5.174 -35.088  1.00  0.00     0.189 C 
BRANCH  13  14
HETATM   14  C   UNL     1      -2.914   5.341 -34.266  1.00  0.00     0.070 A 
HETATM   15  O   UNL     1      -2.282   6.548 -34.361  1.00  0.00    -0.325 OA
HETATM   16  C   UNL     1      -1.218   6.510 -33.520  1.00  0.00     0.142 A 
HETATM   17  C   UNL     1      -1.153   5.295 -32.880  1.00  0.00     0.027 A 
HETATM   18  C   UNL     1      -2.250   4.539 -33.358  1.00  0.00     0.036 A 
ENDBRANCH  13  14
ENDBRANCH   9  13
ENDBRANCH   4   7
BRANCH   1  19
HETATM   19  C   UNL     1      -5.766  -2.246 -34.354  1.00  0.00    -0.006 A 
HETATM   20  C   UNL     1      -4.466  -2.687 -34.045  1.00  0.00     0.014 A 
HETATM   21  C   UNL     1      -4.114  -4.038 -34.134  1.00  0.00     0.001 A 
HETATM   22  C   UNL     1      -5.056  -4.977 -34.543  1.00  0.00     0.000 A 
HETATM   23  C   UNL     1      -6.345  -4.568 -34.865  1.00  0.00     0.001 A 
HETATM   24  C   UNL     1      -6.696  -3.218 -34.772  1.00  0.00     0.014 A 
ENDBRANCH   1  19
TORSDOF 4
ENDMDL
MODEL 2
REMARK VINA RESULT:      -8.6      3.861      6.606
REMARK  4 active torsions:
REMARK  status: ('A' for Active; 'I' for Inactive)
REMARK    1  A    between atoms: C_4  and  C_5 
REMARK    2  A    between atoms: C_8  and  N_9 
REMARK       I    between atoms: N_9  and  C_10 
REMARK       I    between atoms: C_10  and  N_11 
REMARK    3  A    between atoms: N_11  and  C_12 
REMARK    4  A    between atoms: C_12  and  C_13 
ROOT
HETATM    1  C   UNL     1      -6.532  -0.951 -34.083  1.00  0.00     0.089 A 
HETATM    2  N   UNL     1      -7.265  -0.483 -35.119  1.00  0.00    -0.148 NA
HETATM    3  N   UNL     1      -7.850   0.768 -35.063  1.00  0.00    -0.131 NA
HETATM    4  C   UNL     1      -7.687   1.549 -33.979  1.00  0.00     0.153 A 
HETATM    5  C   UNL     1      -6.931   1.107 -32.906  1.00  0.00     0.055 A 
HETATM    6  C   UNL     1      -6.346  -0.158 -32.958  1.00  0.00     0.038 A 
ENDROOT
BRANCH   4   7
HETATM    7  N   UNL     1      -8.279   2.809 -33.887  1.00  0.00    -0.292 N 
HETATM    8  C   UNL     1      -9.528   3.209 -34.235  1.00  0.00     0.322 C 
HETATM    9  N   UNL     1     -10.352   2.302 -34.816  1.00  0.00    -0.337 N 
HETATM   10  O   UNL     1      -9.853   4.377 -34.027  1.00  0.00    -0.247 OA
HETATM   11  H   UNL     1     -10.101   1.325 -34.712  1.00  0.00     0.164 HD
HETATM   12  H   UNL     1      -7.735   3.562 -33.492  1.00  0.00     0.172 HD
BRANCH   9  13
HETATM   13  C   UNL     1     -11.735   2.628 -35.070  1.00  0.00     0.189 C 
BRANCH  13  14
HETATM   14  C   UNL     1     -12.619   1.572 -34.522  1.00  0.00     0.070 A 
HETATM   15  O   UNL     1     -13.930   1.624 -34.903  1.00  0.00    -0.325 OA
HETATM   16  C   UNL     1     -14.556   0.568 -34.325  1.00  0.00     0.142 A 
HETATM   17  C   UNL     1     -13.668  -0.168 -33.577  1.00  0.00     0.027 A 
HETATM   18  C   UNL     1     -12.415   0.478 -33.704  1.00  0.00     0.036 A 
ENDBRANCH  13  14
ENDBRANCH   9  13
ENDBRANCH   4   7
BRANCH   1  19
HETATM   19  C   UNL     1      -5.958  -2.300 -34.230  1.00  0.00    -0.006 A 
HETATM   20  C   UNL     1      -6.736  -3.365 -34.721  1.00  0.00     0.014 A 
HETATM   21  C   UNL     1      -6.199  -4.647 -34.880  1.00  0.00     0.001 A 
HETATM   22  C   UNL     1      -4.871  -4.892 -34.542  1.00  0.00     0.000 A 
HETATM   23  C   UNL     1      -4.083  -3.860 -34.044  1.00  0.00     0.001 A 
HETATM   24  C   UNL     1      -4.621  -2.579 -33.890  1.00  0.00     0.014 A 
ENDBRANCH   1  19
TORSDOF 4
ENDMDL
MODEL 3
REMARK VINA RESULT:      -7.9      1.871      2.439
REMARK  4 active torsions:
REMARK  status: ('A' for Active; 'I' for Inactive)
REMARK    1  A    between atoms: C_4  and  C_5 
REMARK    2  A    between atoms: C_8  and  N_9 
REMARK       I    between atoms: N_9  and  C_10 
REMARK       I    between atoms: C_10  and  N_11 
REMARK    3  A    between atoms: N_11  and  C_12 
REMARK    4  A    between atoms: C_12  and  C_13 
ROOT
HETATM    1  C   UNL     1      -5.949  -0.540 -33.004  1.00  0.00     0.089 A 
HETATM    2  N   UNL     1      -5.786   0.570 -33.759  1.00  0.00    -0.148 NA
HETATM    3  N   UNL     1      -5.892   1.829 -33.198  1.00  0.00    -0.131 NA
HETATM    4  C   UNL     1      -6.146   1.970 -31.884  1.00  0.00     0.153 A 
HETATM    5  C   UNL     1      -6.305   0.855 -31.078  1.00  0.00     0.055 A 
HETATM    6  C   UNL     1      -6.205  -0.416 -31.645  1.00  0.00     0.038 A 
ENDROOT
BRANCH   4   7
HETATM    7  N   UNL     1      -6.275   3.227 -31.293  1.00  0.00    -0.292 N 
HETATM    8  C   UNL     1      -5.345   4.196 -31.100  1.00  0.00     0.322 C 
HETATM    9  N   UNL     1      -4.065   3.936 -31.468  1.00  0.00    -0.337 N 
HETATM   10  O   UNL     1      -5.694   5.257 -30.584  1.00  0.00    -0.247 OA
HETATM   11  H   UNL     1      -3.921   3.161 -32.106  1.00  0.00     0.164 HD
HETATM   12  H   UNL     1      -7.187   3.505 -30.960  1.00  0.00     0.172 HD
BRANCH   9  13
HETATM   13  C   UNL     1      -3.066   4.978 -31.424  1.00  0.00     0.189 C 
BRANCH  13  14
HETATM   14  C   UNL     1      -2.458   5.162 -32.763  1.00  0.00     0.070 A 
HETATM   15  O   UNL     1      -3.292   4.996 -33.832  1.00  0.00    -0.325 OA
HETATM   16  C   UNL     1      -2.560   5.233 -34.950  1.00  0.00     0.142 A 
HETATM   17  C   UNL     1      -1.265   5.552 -34.619  1.00  0.00     0.027 A 
HETATM   18  C   UNL     1      -1.197   5.509 -33.206  1.00  0.00     0.036 A 
ENDBRANCH  13  14
ENDBRANCH   9  13
ENDBRANCH   4   7
BRANCH   1  19
HETATM   19  C   UNL     1      -5.829  -1.837 -33.692  1.00  0.00    -0.006 A 
HETATM   20  C   UNL     1      -6.961  -2.474 -34.233  1.00  0.00     0.014 A 
HETATM   21  C   UNL     1      -6.859  -3.698 -34.902  1.00  0.00     0.001 A 
HETATM   22  C   UNL     1      -5.620  -4.316 -35.038  1.00  0.00     0.000 A 
HETATM   23  C   UNL     1      -4.486  -3.714 -34.503  1.00  0.00     0.001 A 
HETATM   24  C   UNL     1      -4.589  -2.488 -33.838  1.00  0.00     0.014 A 
ENDBRANCH   1  19
TORSDOF 4
ENDMDL
MODEL 4
REMARK VINA RESULT:      -7.6      4.579      6.520
REMARK  4 active torsions:
REMARK  status: ('A' for Active; 'I' for Inactive)
REMARK    1  A    between atoms: C_4  and  C_5 
REMARK    2  A    between atoms: C_8  and  N_9 
REMARK       I    between atoms: N_9  and  C_10 
REMARK       I    between atoms: C_10  and  N_11 
REMARK    3  A    between atoms: N_11  and  C_12 
REMARK    4  A    between atoms: C_12  and  C_13 
ROOT
HETATM    1  C   UNL     1      -6.877  -0.645 -32.834  1.00  0.00     0.089 A 
HETATM    2  N   UNL     1      -8.114  -0.217 -33.173  1.00  0.00    -0.148 NA
HETATM    3  N   UNL     1      -8.724   0.808 -32.474  1.00  0.00    -0.131 NA
HETATM    4  C   UNL     1      -8.089   1.407 -31.449  1.00  0.00     0.153 A 
HETATM    5  C   UNL     1      -6.816   1.002 -31.083  1.00  0.00     0.055 A 
HETATM    6  C   UNL     1      -6.202  -0.036 -31.784  1.00  0.00     0.038 A 
ENDROOT
BRANCH   4   7
HETATM    7  N   UNL     1      -8.686   2.431 -30.715  1.00  0.00    -0.292 N 
HETATM    8  C   UNL     1      -9.812   3.143 -30.973  1.00  0.00     0.322 C 
HETATM    9  N   UNL     1     -10.468   2.904 -32.136  1.00  0.00    -0.337 N 
HETATM   10  O   UNL     1     -10.179   3.986 -30.155  1.00  0.00    -0.247 OA
HETATM   11  H   UNL     1     -10.250   2.035 -32.612  1.00  0.00     0.164 HD
HETATM   12  H   UNL     1      -8.256   2.704 -29.842  1.00  0.00     0.172 HD
BRANCH   9  13
HETATM   13  C   UNL     1     -11.747   3.522 -32.395  1.00  0.00     0.189 C 
BRANCH  13  14
HETATM   14  C   UNL     1     -12.572   2.646 -33.261  1.00  0.00     0.070 A 
HETATM   15  O   UNL     1     -11.990   2.223 -34.421  1.00  0.00    -0.325 OA
HETATM   16  C   UNL     1     -12.887   1.420 -35.048  1.00  0.00     0.142 A 
HETATM   17  C   UNL     1     -14.040   1.316 -34.308  1.00  0.00     0.027 A 
HETATM   18  C   UNL     1     -13.839   2.106 -33.151  1.00  0.00     0.036 A 
ENDBRANCH  13  14
ENDBRANCH   9  13
ENDBRANCH   4   7
BRANCH   1  19
HETATM   19  C   UNL     1      -6.314  -1.749 -33.629  1.00  0.00    -0.006 A 
HETATM   20  C   UNL     1      -4.922  -1.923 -33.738  1.00  0.00     0.014 A 
HETATM   21  C   UNL     1      -4.374  -2.976 -34.479  1.00  0.00     0.001 A 
HETATM   22  C   UNL     1      -5.210  -3.875 -35.134  1.00  0.00     0.000 A 
HETATM   23  C   UNL     1      -6.590  -3.720 -35.052  1.00  0.00     0.001 A 
HETATM   24  C   UNL     1      -7.135  -2.669 -34.309  1.00  0.00     0.014 A 
ENDBRANCH   1  19
TORSDOF 4
ENDMDL
MODEL 5
REMARK VINA RESULT:      -7.5      3.053      5.372
REMARK  4 active torsions:
REMARK  status: ('A' for Active; 'I' for Inactive)
REMARK    1  A    between atoms: C_4  and  C_5 
REMARK    2  A    between atoms: C_8  and  N_9 
REMARK       I    between atoms: N_9  and  C_10 
REMARK       I    between atoms: C_10  and  N_11 
REMARK    3  A    between atoms: N_11  and  C_12 
REMARK    4  A    between atoms: C_12  and  C_13 
ROOT
HETATM    1  C   UNL     1      -5.997  -0.881 -34.307  1.00  0.00     0.089 A 
HETATM    2  N   UNL     1      -5.392  -0.153 -33.341  1.00  0.00    -0.148 NA
HETATM    3  N   UNL     1      -5.635   1.203 -33.223  1.00  0.00    -0.131 NA
HETATM    4  C   UNL     1      -6.489   1.819 -34.061  1.00  0.00     0.153 A 
HETATM    5  C   UNL     1      -7.136   1.101 -35.053  1.00  0.00     0.055 A 
HETATM    6  C   UNL     1      -6.888  -0.267 -35.177  1.00  0.00     0.038 A 
ENDROOT
BRANCH   4   7
HETATM    7  N   UNL     1      -6.741   3.188 -33.976  1.00  0.00    -0.292 N 
HETATM    8  C   UNL     1      -7.884   3.843 -33.651  1.00  0.00     0.322 C 
HETATM    9  N   UNL     1      -8.998   3.107 -33.414  1.00  0.00    -0.337 N 
HETATM   10  O   UNL     1      -7.867   5.073 -33.602  1.00  0.00    -0.247 OA
HETATM   11  H   UNL     1      -8.861   2.120 -33.224  1.00  0.00     0.164 HD
HETATM   12  H   UNL     1      -5.979   3.824 -34.163  1.00  0.00     0.172 HD
BRANCH   9  13
HETATM   13  C   UNL     1     -10.200   3.737 -32.920  1.00  0.00     0.189 C 
BRANCH  13  14
HETATM   14  C   UNL     1     -11.163   3.940 -34.028  1.00  0.00     0.070 A 
HETATM   15  O   UNL     1     -11.499   2.829 -34.748  1.00  0.00    -0.325 OA
HETATM   16  C   UNL     1     -12.403   3.217 -35.683  1.00  0.00     0.142 A 
HETATM   17  C   UNL     1     -12.658   4.564 -35.577  1.00  0.00     0.027 A 
HETATM   18  C   UNL     1     -11.860   5.033 -34.506  1.00  0.00     0.036 A 
ENDBRANCH  13  14
ENDBRANCH   9  13
ENDBRANCH   4   7
BRANCH   1  19
HETATM   19  C   UNL     1      -5.668  -2.316 -34.361  1.00  0.00    -0.006 A 
HETATM   20  C   UNL     1      -6.619  -3.259 -34.796  1.00  0.00     0.014 A 
HETATM   21  C   UNL     1      -6.314  -4.621 -34.867  1.00  0.00     0.001 A 
HETATM   22  C   UNL     1      -5.051  -5.073 -34.496  1.00  0.00     0.000 A 
HETATM   23  C   UNL     1      -4.096  -4.165 -34.051  1.00  0.00     0.001 A 
HETATM   24  C   UNL     1      -4.401  -2.803 -33.985  1.00  0.00     0.014 A 
ENDBRANCH   1  19
TORSDOF 4
ENDMDL
MODEL 6
REMARK VINA RESULT:      -7.3      2.316      7.905
REMARK  4 active torsions:
REMARK  status: ('A' for Active; 'I' for Inactive)
REMARK    1  A    between atoms: C_4  and  C_5 
REMARK    2  A    between atoms: C_8  and  N_9 
REMARK       I    between atoms: N_9  and  C_10 
REMARK       I    between atoms: C_10  and  N_11 
REMARK    3  A    between atoms: N_11  and  C_12 
REMARK    4  A    between atoms: C_12  and  C_13 
ROOT
HETATM    1  C   UNL     1      -3.160   4.838 -32.723  1.00  0.00     0.089 A 
HETATM    2  N   UNL     1      -3.637   3.726 -32.119  1.00  0.00    -0.148 NA
HETATM    3  N   UNL     1      -4.792   3.116 -32.572  1.00  0.00    -0.131 NA
HETATM    4  C   UNL     1      -5.453   3.611 -33.634  1.00  0.00     0.153 A 
HETATM    5  C   UNL     1      -4.986   4.741 -34.285  1.00  0.00     0.055 A 
HETATM    6  C   UNL     1      -3.824   5.362 -33.825  1.00  0.00     0.038 A 
ENDROOT
BRANCH   4   7
HETATM    7  N   UNL     1      -6.630   3.027 -34.103  1.00  0.00    -0.292 N 
HETATM    8  C   UNL     1      -7.118   1.776 -33.904  1.00  0.00     0.322 C 
HETATM    9  N   UNL     1      -6.363   0.900 -33.194  1.00  0.00    -0.337 N 
HETATM   10  O   UNL     1      -8.210   1.484 -34.388  1.00  0.00    -0.247 OA
HETATM   11  H   UNL     1      -5.620   1.294 -32.626  1.00  0.00     0.164 HD
HETATM   12  H   UNL     1      -7.250   3.591 -34.667  1.00  0.00     0.172 HD
BRANCH   9  13
HETATM   13  C   UNL     1      -6.894  -0.391 -32.825  1.00  0.00     0.189 C 
BRANCH  13  14
HETATM   14  C   UNL     1      -6.282  -1.453 -33.659  1.00  0.00     0.070 A 
HETATM   15  O   UNL     1      -4.942  -1.655 -33.492  1.00  0.00    -0.325 OA
HETATM   16  C   UNL     1      -4.586  -2.675 -34.312  1.00  0.00     0.142 A 
HETATM   17  C   UNL     1      -5.678  -3.138 -35.007  1.00  0.00     0.027 A 
HETATM   18  C   UNL     1      -6.776  -2.351 -34.585  1.00  0.00     0.036 A 
ENDBRANCH  13  14
ENDBRANCH   9  13
ENDBRANCH   4   7
BRANCH   1  19
HETATM   19  C   UNL     1      -1.931   5.424 -32.163  1.00  0.00    -0.006 A 
HETATM   20  C   UNL     1      -1.430   6.649 -32.644  1.00  0.00     0.014 A 
HETATM   21  C   UNL     1      -0.273   7.223 -32.110  1.00  0.00     0.001 A 
HETATM   22  C   UNL     1       0.416   6.580 -31.087  1.00  0.00     0.000 A 
HETATM   23  C   UNL     1      -0.049   5.363 -30.600  1.00  0.00     0.001 A 
HETATM   24  C   UNL     1      -1.209   4.792 -31.132  1.00  0.00     0.014 A 
ENDBRANCH   1  19
TORSDOF 4
ENDMDL
MODEL 7
REMARK VINA RESULT:      -7.2      2.927      4.700
REMARK  4 active torsions:
REMARK  status: ('A' for Active; 'I' for Inactive)
REMARK    1  A    between atoms: C_4  and  C_5 
REMARK    2  A    between atoms: C_8  and  N_9 
REMARK       I    between atoms: N_9  and  C_10 
REMARK       I    between atoms: C_10  and  N_11 
REMARK    3  A    between atoms: N_11  and  C_12 
REMARK    4  A    between atoms: C_12  and  C_13 
ROOT
HETATM    1  C   UNL     1      -5.852  -0.651 -34.003  1.00  0.00     0.089 A 
HETATM    2  N   UNL     1      -5.102  -0.118 -33.012  1.00  0.00    -0.148 NA
HETATM    3  N   UNL     1      -5.165   1.233 -32.727  1.00  0.00    -0.131 NA
HETATM    4  C   UNL     1      -5.985   2.040 -33.424  1.00  0.00     0.153 A 
HETATM    5  C   UNL     1      -6.776   1.526 -34.438  1.00  0.00     0.055 A 
HETATM    6  C   UNL     1      -6.710   0.164 -34.731  1.00  0.00     0.038 A 
ENDROOT
BRANCH   4   7
HETATM    7  N   UNL     1      -6.056   3.410 -33.170  1.00  0.00    -0.292 N 
HETATM    8  C   UNL     1      -6.664   4.075 -32.156  1.00  0.00     0.322 C 
HETATM    9  N   UNL     1      -7.370   3.353 -31.250  1.00  0.00    -0.337 N 
HETATM   10  O   UNL     1      -6.564   5.300 -32.109  1.00  0.00    -0.247 OA
HETATM   11  H   UNL     1      -7.185   2.356 -31.217  1.00  0.00     0.164 HD
HETATM   12  H   UNL     1      -5.583   4.037 -33.806  1.00  0.00     0.172 HD
BRANCH   9  13
HETATM   13  C   UNL     1      -7.911   3.987 -30.071  1.00  0.00     0.189 C 
BRANCH  13  14
HETATM   14  C   UNL     1      -9.308   4.418 -30.316  1.00  0.00     0.070 A 
HETATM   15  O   UNL     1      -9.522   5.766 -30.379  1.00  0.00    -0.325 OA
HETATM   16  C   UNL     1     -10.841   5.949 -30.637  1.00  0.00     0.142 A 
HETATM   17  C   UNL     1     -11.484   4.739 -30.744  1.00  0.00     0.027 A 
HETATM   18  C   UNL     1     -10.495   3.748 -30.539  1.00  0.00     0.036 A 
ENDBRANCH  13  14
ENDBRANCH   9  13
ENDBRANCH   4   7
BRANCH   1  19
HETATM   19  C   UNL     1      -5.710  -2.097 -34.241  1.00  0.00    -0.006 A 
HETATM   20  C   UNL     1      -4.480  -2.747 -34.025  1.00  0.00     0.014 A 
HETATM   21  C   UNL     1      -4.335  -4.122 -34.233  1.00  0.00     0.001 A 
HETATM   22  C   UNL     1      -5.419  -4.878 -34.668  1.00  0.00     0.000 A 
HETATM   23  C   UNL     1      -6.644  -4.261 -34.900  1.00  0.00     0.001 A 
HETATM   24  C   UNL     1      -6.787  -2.886 -34.688  1.00  0.00     0.014 A 
ENDBRANCH   1  19
TORSDOF 4
ENDMDL
MODEL 8
REMARK VINA RESULT:      -7.2      4.843      9.791
REMARK  4 active torsions:
REMARK  status: ('A' for Active; 'I' for Inactive)
REMARK    1  A    between atoms: C_4  and  C_5 
REMARK    2  A    between atoms: C_8  and  N_9 
REMARK       I    between atoms: N_9  and  C_10 
REMARK       I    between atoms: C_10  and  N_11 
REMARK    3  A    between atoms: N_11  and  C_12 
REMARK    4  A    between atoms: C_12  and  C_13 
ROOT
HETATM    1  C   UNL     1      -0.629   6.524 -29.396  1.00  0.00     0.089 A 
HETATM    2  N   UNL     1      -0.211   5.333 -29.882  1.00  0.00    -0.148 NA
HETATM    3  N   UNL     1      -0.943   4.668 -30.848  1.00  0.00    -0.131 NA
HETATM    4  C   UNL     1      -2.079   5.203 -31.331  1.00  0.00     0.153 A 
HETATM    5  C   UNL     1      -2.529   6.427 -30.865  1.00  0.00     0.055 A 
HETATM    6  C   UNL     1      -1.795   7.097 -29.886  1.00  0.00     0.038 A 
ENDROOT
BRANCH   4   7
HETATM    7  N   UNL     1      -2.847   4.547 -32.293  1.00  0.00    -0.292 N 
HETATM    8  C   UNL     1      -3.638   3.451 -32.173  1.00  0.00     0.322 C 
HETATM    9  N   UNL     1      -3.685   2.824 -30.971  1.00  0.00    -0.337 N 
HETATM   10  O   UNL     1      -4.263   3.063 -33.159  1.00  0.00    -0.247 OA
HETATM   11  H   UNL     1      -3.355   3.349 -30.169  1.00  0.00     0.164 HD
HETATM   12  H   UNL     1      -2.857   4.922 -33.231  1.00  0.00     0.172 HD
BRANCH   9  13
HETATM   13  C   UNL     1      -4.619   1.747 -30.744  1.00  0.00     0.189 C 
BRANCH  13  14
HETATM   14  C   UNL     1      -4.065   0.472 -31.259  1.00  0.00     0.070 A 
HETATM   15  O   UNL     1      -2.715   0.308 -31.140  1.00  0.00    -0.325 OA
HETATM   16  C   UNL     1      -2.415  -0.919 -31.636  1.00  0.00     0.142 A 
HETATM   17  C   UNL     1      -3.554  -1.553 -32.073  1.00  0.00     0.027 A 
HETATM   18  C   UNL     1      -4.622  -0.657 -31.828  1.00  0.00     0.036 A 
ENDBRANCH  13  14
ENDBRANCH   9  13
ENDBRANCH   4   7
BRANCH   1  19
HETATM   19  C   UNL     1       0.211   7.152 -28.361  1.00  0.00    -0.006 A 
HETATM   20  C   UNL     1       0.226   6.655 -27.044  1.00  0.00     0.014 A 
HETATM   21  C   UNL     1       1.030   7.233 -26.057  1.00  0.00     0.001 A 
HETATM   22  C   UNL     1       1.833   8.327 -26.364  1.00  0.00     0.000 A 
HETATM   23  C   UNL     1       1.830   8.845 -27.654  1.00  0.00     0.001 A 
HETATM   24  C   UNL     1       1.028   8.264 -28.642  1.00  0.00     0.014 A 
ENDBRANCH   1  19
TORSDOF 4
ENDMDL
MODEL 9
REMARK VINA RESULT:      -7.1      3.907      9.218
REMARK  4 active torsions:
REMARK  status: ('A' for Active; 'I' for Inactive)
REMARK    1  A    between atoms: C_4  and  C_5 
REMARK    2  A    between atoms: C_8  and  N_9 
REMARK       I    between atoms: N_9  and  C_10 
REMARK       I    between atoms: C_10  and  N_11 
REMARK    3  A    between atoms: N_11  and  C_12 
REMARK    4  A    between atoms: C_12  and  C_13 
ROOT
HETATM    1  C   UNL     1      -0.641   6.891 -30.325  1.00  0.00     0.089 A 
HETATM    2  N   UNL     1      -0.634   5.634 -30.825  1.00  0.00    -0.148 NA
HETATM    3  N   UNL     1      -1.181   5.364 -32.066  1.00  0.00    -0.131 NA
HETATM    4  C   UNL     1      -1.718   6.353 -32.804  1.00  0.00     0.153 A 
HETATM    5  C   UNL     1      -1.729   7.654 -32.329  1.00  0.00     0.055 A 
HETATM    6  C   UNL     1      -1.184   7.926 -31.074  1.00  0.00     0.038 A 
ENDROOT
BRANCH   4   7
HETATM    7  N   UNL     1      -2.292   6.108 -34.052  1.00  0.00    -0.292 N 
HETATM    8  C   UNL     1      -3.473   5.517 -34.363  1.00  0.00     0.322 C 
HETATM    9  N   UNL     1      -4.227   5.020 -33.351  1.00  0.00    -0.337 N 
HETATM   10  O   UNL     1      -3.801   5.439 -35.546  1.00  0.00    -0.247 OA
HETATM   11  H   UNL     1      -4.011   5.352 -32.416  1.00  0.00     0.164 HD
HETATM   12  H   UNL     1      -1.793   6.416 -34.874  1.00  0.00     0.172 HD
BRANCH   9  13
HETATM   13  C   UNL     1      -5.555   4.516 -33.607  1.00  0.00     0.189 C 
BRANCH  13  14
HETATM   14  C   UNL     1      -5.591   3.047 -33.418  1.00  0.00     0.070 A 
HETATM   15  O   UNL     1      -4.623   2.517 -32.613  1.00  0.00    -0.325 OA
HETATM   16  C   UNL     1      -4.845   1.180 -32.547  1.00  0.00     0.142 A 
HETATM   17  C   UNL     1      -5.944   0.837 -33.297  1.00  0.00     0.027 A 
HETATM   18  C   UNL     1      -6.429   2.042 -33.859  1.00  0.00     0.036 A 
ENDBRANCH  13  14
ENDBRANCH   9  13
ENDBRANCH   4   7
BRANCH   1  19
HETATM   19  C   UNL     1      -0.046   7.079 -28.991  1.00  0.00    -0.006 A 
HETATM   20  C   UNL     1       0.957   8.043 -28.778  1.00  0.00     0.014 A 
HETATM   21  C   UNL     1       1.520   8.242 -27.513  1.00  0.00     0.001 A 
HETATM   22  C   UNL     1       1.096   7.473 -26.434  1.00  0.00     0.000 A 
HETATM   23  C   UNL     1       0.114   6.505 -26.618  1.00  0.00     0.001 A 
HETATM   24  C   UNL     1      -0.450   6.311 -27.882  1.00  0.00     0.014 A 
ENDBRANCH   1  19
TORSDOF 4
ENDMDL
MODEL 10
REMARK VINA RESULT:      -7.1      2.847      3.470
REMARK  4 active torsions:
REMARK  status: ('A' for Active; 'I' for Inactive)
REMARK    1  A    between atoms: C_4  and  C_5 
REMARK    2  A    between atoms: C_8  and  N_9 
REMARK       I    between atoms: N_9  and  C_10 
REMARK       I    between atoms: C_10  and  N_11 
REMARK    3  A    between atoms: N_11  and  C_12 
REMARK    4  A    between atoms: C_12  and  C_13 
ROOT
HETATM    1  C   UNL     1      -7.265  -0.571 -32.911  1.00  0.00     0.089 A 
HETATM    2  N   UNL     1      -6.745   0.155 -31.896  1.00  0.00    -0.148 NA
HETATM    3  N   UNL     1      -7.516   1.089 -31.229  1.00  0.00    -0.131 NA
HETATM    4  C   UNL     1      -8.803   1.280 -31.570  1.00  0.00     0.153 A 
HETATM    5  C   UNL     1      -9.372   0.544 -32.596  1.00  0.00     0.055 A 
HETATM    6  C   UNL     1      -8.593  -0.394 -33.275  1.00  0.00     0.038 A 
ENDROOT
BRANCH   4   7
HETATM    7  N   UNL     1      -9.599   2.227 -30.926  1.00  0.00    -0.292 N 
HETATM    8  C   UNL     1      -9.383   3.552 -30.724  1.00  0.00     0.322 C 
HETATM    9  N   UNL     1      -8.206   4.079 -31.143  1.00  0.00    -0.337 N 
HETATM   10  O   UNL     1     -10.252   4.213 -30.156  1.00  0.00    -0.247 OA
HETATM   11  H   UNL     1      -7.676   3.535 -31.816  1.00  0.00     0.164 HD
HETATM   12  H   UNL     1     -10.488   1.926 -30.552  1.00  0.00     0.172 HD
BRANCH   9  13
HETATM   13  C   UNL     1      -7.983   5.504 -31.090  1.00  0.00     0.189 C 
BRANCH  13  14
HETATM   14  C   UNL     1      -6.608   5.824 -31.542  1.00  0.00     0.070 A 
HETATM   15  O   UNL     1      -5.626   5.741 -30.596  1.00  0.00    -0.325 OA
HETATM   16  C   UNL     1      -4.453   6.040 -31.209  1.00  0.00     0.142 A 
HETATM   17  C   UNL     1      -4.661   6.313 -32.540  1.00  0.00     0.027 A 
HETATM   18  C   UNL     1      -6.053   6.172 -32.758  1.00  0.00     0.036 A 
ENDBRANCH  13  14
ENDBRANCH   9  13
ENDBRANCH   4   7
BRANCH   1  19
HETATM   19  C   UNL     1      -6.365  -1.533 -33.570  1.00  0.00    -0.006 A 
HETATM   20  C   UNL     1      -4.976  -1.497 -33.340  1.00  0.00     0.014 A 
HETATM   21  C   UNL     1      -4.113  -2.414 -33.947  1.00  0.00     0.001 A 
HETATM   22  C   UNL     1      -4.619  -3.385 -34.805  1.00  0.00     0.000 A 
HETATM   23  C   UNL     1      -5.986  -3.437 -35.060  1.00  0.00     0.001 A 
HETATM   24  C   UNL     1      -6.848  -2.522 -34.449  1.00  0.00     0.014 A 
ENDBRANCH   1  19
TORSDOF 4
ENDMDL
