MODEL 1
REMARK VINA RESULT:      -9.5      0.000      0.000
REMARK  5 active torsions:
REMARK  status: ('A' for Active; 'I' for Inactive)
REMARK    1  A    between atoms: C_5  and  N_6 
REMARK       I    between atoms: N_6  and  C_7 
REMARK       I    between atoms: C_7  and  N_8 
REMARK    2  A    between atoms: N_8  and  C_9 
REMARK    3  A    between atoms: C_11  and  C_12 
REMARK       I    between atoms: C_12  and  N_13 
REMARK    4  A    between atoms: N_13  and  C_14 
REMARK    5  A    between atoms: C_14  and  C_15 
ROOT
HETATM    1  C   UNL     1      -3.829   3.540 -32.664  1.00  0.00     0.175 A 
HETATM    2  S   UNL     1      -5.425   3.046 -32.935  1.00  0.00    -0.044 SA
HETATM    3  C   UNL     1      -5.126   1.591 -32.075  1.00  0.00     0.100 A 
HETATM    4  C   UNL     1      -3.773   1.550 -31.736  1.00  0.00     0.056 A 
HETATM    5  C   UNL     1      -3.060   0.433 -31.054  1.00  0.00     0.072 C 
HETATM    6  N   UNL     1      -3.040   2.688 -32.064  1.00  0.00    -0.228 NA
ENDROOT
BRANCH   1   7
HETATM    7  N   UNL     1      -3.546   4.795 -33.105  1.00  0.00    -0.287 N 
HETATM    8  C   UNL     1      -2.801   5.740 -32.465  1.00  0.00     0.326 C 
HETATM    9  N   UNL     1      -2.195   5.371 -31.295  1.00  0.00    -0.309 N 
HETATM   10  O   UNL     1      -2.722   6.844 -33.005  1.00  0.00    -0.247 OA
HETATM   11  H   UNL     1      -2.306   4.392 -31.042  1.00  0.00     0.170 HD
HETATM   12  H   UNL     1      -3.959   5.096 -33.975  1.00  0.00     0.172 HD
BRANCH   9  13
HETATM   13  C   UNL     1      -1.394   6.162 -30.449  1.00  0.00     0.036 A 
HETATM   14  C   UNL     1      -1.887   6.874 -29.354  1.00  0.00     0.030 A 
HETATM   15  C   UNL     1      -1.028   7.642 -28.560  1.00  0.00     0.009 A 
HETATM   16  C   UNL     1       0.338   7.714 -28.849  1.00  0.00    -0.062 A 
HETATM   17  C   UNL     1       1.236   8.569 -28.007  1.00  0.00     0.048 C 
HETATM   18  C   UNL     1       0.833   7.003 -29.946  1.00  0.00     0.009 A 
HETATM   19  C   UNL     1      -0.026   6.225 -30.732  1.00  0.00     0.030 A 
ENDBRANCH   9  13
ENDBRANCH   1   7
BRANCH   3  20
HETATM   20  C   UNL     1      -6.113   0.543 -31.867  1.00  0.00     0.260 C 
HETATM   21  N   UNL     1      -6.224  -0.548 -32.697  1.00  0.00    -0.352 N 
HETATM   22  H   UNL     1      -6.927  -1.201 -32.367  1.00  0.00     0.163 HD
HETATM   23  O   UNL     1      -6.930   0.597 -30.945  1.00  0.00    -0.267 OA
BRANCH  21  24
HETATM   24  C   UNL     1      -5.512  -0.888 -33.912  1.00  0.00     0.167 C 
BRANCH  24  25
HETATM   25  C   UNL     1      -5.257  -2.352 -34.131  1.00  0.00     0.037 A 
HETATM   26  C   UNL     1      -4.106  -2.921 -33.573  1.00  0.00     0.127 A 
HETATM   27  F   UNL     1      -3.240  -2.142 -32.909  1.00  0.00    -0.205 F 
HETATM   28  C   UNL     1      -3.834  -4.285 -33.670  1.00  0.00     0.043 A 
HETATM   29  C   UNL     1      -4.731  -5.121 -34.329  1.00  0.00     0.006 A 
HETATM   30  C   UNL     1      -5.891  -4.583 -34.882  1.00  0.00     0.043 A 
HETATM   31  C   UNL     1      -6.146  -3.214 -34.772  1.00  0.00     0.127 A 
HETATM   32  F   UNL     1      -7.284  -2.739 -35.299  1.00  0.00    -0.205 F 
ENDBRANCH  24  25
ENDBRANCH  21  24
ENDBRANCH   3  20
TORSDOF 5
ENDMDL
MODEL 2
REMARK VINA RESULT:      -9.5      1.649      2.529
REMARK  5 active torsions:
REMARK  status: ('A' for Active; 'I' for Inactive)
REMARK    1  A    between atoms: C_5  and  N_6 
REMARK       I    between atoms: N_6  and  C_7 
REMARK       I    between atoms: C_7  and  N_8 
REMARK    2  A    between atoms: N_8  and  C_9 
REMARK    3  A    between atoms: C_11  and  C_12 
REMARK       I    between atoms: C_12  and  N_13 
REMARK    4  A    between atoms: N_13  and  C_14 
REMARK    5  A    between atoms: C_14  and  C_15 
ROOT
HETATM    1  C   UNL     1      -3.365   3.819 -31.537  1.00  0.00     0.175 A 
HETATM    2  S   UNL     1      -3.301   2.128 -31.459  1.00  0.00    -0.044 SA
HETATM    3  C   UNL     1      -4.885   2.095 -30.800  1.00  0.00     0.100 A 
HETATM    4  C   UNL     1      -5.302   3.408 -30.587  1.00  0.00     0.056 A 
HETATM    5  C   UNL     1      -6.581   3.846 -29.957  1.00  0.00     0.072 C 
HETATM    6  N   UNL     1      -4.425   4.394 -31.034  1.00  0.00    -0.228 NA
ENDROOT
BRANCH   1   7
HETATM    7  N   UNL     1      -2.286   4.395 -32.132  1.00  0.00    -0.287 N 
HETATM    8  C   UNL     1      -1.384   5.237 -31.552  1.00  0.00     0.326 C 
HETATM    9  N   UNL     1      -1.516   5.466 -30.210  1.00  0.00    -0.309 N 
HETATM   10  O   UNL     1      -0.514   5.709 -32.285  1.00  0.00    -0.247 OA
HETATM   11  H   UNL     1      -2.246   4.927 -29.750  1.00  0.00     0.170 HD
HETATM   12  H   UNL     1      -2.144   4.233 -33.116  1.00  0.00     0.172 HD
BRANCH   9  13
HETATM   13  C   UNL     1      -0.727   6.298 -29.392  1.00  0.00     0.036 A 
HETATM   14  C   UNL     1       0.352   5.842 -28.632  1.00  0.00     0.030 A 
HETATM   15  C   UNL     1       1.088   6.730 -27.840  1.00  0.00     0.009 A 
HETATM   16  C   UNL     1       0.757   8.087 -27.791  1.00  0.00    -0.062 A 
HETATM   17  C   UNL     1       1.537   9.016 -26.910  1.00  0.00     0.048 C 
HETATM   18  C   UNL     1      -0.324   8.544 -28.550  1.00  0.00     0.009 A 
HETATM   19  C   UNL     1      -1.053   7.657 -29.352  1.00  0.00     0.030 A 
ENDBRANCH   9  13
ENDBRANCH   1   7
BRANCH   3  20
HETATM   20  C   UNL     1      -5.589   0.880 -30.421  1.00  0.00     0.260 C 
HETATM   21  N   UNL     1      -6.096  -0.005 -31.344  1.00  0.00    -0.352 N 
HETATM   22  H   UNL     1      -6.504  -0.821 -30.899  1.00  0.00     0.163 HD
HETATM   23  O   UNL     1      -5.797   0.595 -29.239  1.00  0.00    -0.267 OA
BRANCH  21  24
HETATM   24  C   UNL     1      -6.125   0.053 -32.791  1.00  0.00     0.167 C 
BRANCH  24  25
HETATM   25  C   UNL     1      -5.867  -1.247 -33.501  1.00  0.00     0.037 A 
HETATM   26  C   UNL     1      -6.961  -1.956 -34.013  1.00  0.00     0.127 A 
HETATM   27  F   UNL     1      -8.202  -1.491 -33.813  1.00  0.00    -0.205 F 
HETATM   28  C   UNL     1      -6.801  -3.131 -34.746  1.00  0.00     0.043 A 
HETATM   29  C   UNL     1      -5.522  -3.621 -34.993  1.00  0.00     0.006 A 
HETATM   30  C   UNL     1      -4.416  -2.927 -34.507  1.00  0.00     0.043 A 
HETATM   31  C   UNL     1      -4.597  -1.750 -33.778  1.00  0.00     0.127 A 
HETATM   32  F   UNL     1      -3.506  -1.101 -33.345  1.00  0.00    -0.205 F 
ENDBRANCH  24  25
ENDBRANCH  21  24
ENDBRANCH   3  20
TORSDOF 5
ENDMDL
MODEL 3
REMARK VINA RESULT:      -9.5      0.139      1.532
REMARK  5 active torsions:
REMARK  status: ('A' for Active; 'I' for Inactive)
REMARK    1  A    between atoms: C_5  and  N_6 
REMARK       I    between atoms: N_6  and  C_7 
REMARK       I    between atoms: C_7  and  N_8 
REMARK    2  A    between atoms: N_8  and  C_9 
REMARK    3  A    between atoms: C_11  and  C_12 
REMARK       I    between atoms: C_12  and  N_13 
REMARK    4  A    between atoms: N_13  and  C_14 
REMARK    5  A    between atoms: C_14  and  C_15 
ROOT
HETATM    1  C   UNL     1      -3.873   3.545 -32.654  1.00  0.00     0.175 A 
HETATM    2  S   UNL     1      -5.486   3.072 -32.851  1.00  0.00    -0.044 SA
HETATM    3  C   UNL     1      -5.160   1.600 -32.032  1.00  0.00     0.100 A 
HETATM    4  C   UNL     1      -3.793   1.539 -31.764  1.00  0.00     0.056 A 
HETATM    5  C   UNL     1      -3.059   0.402 -31.137  1.00  0.00     0.072 C 
HETATM    6  N   UNL     1      -3.064   2.674 -32.110  1.00  0.00    -0.228 NA
ENDROOT
BRANCH   1   7
HETATM    7  N   UNL     1      -3.599   4.804 -33.088  1.00  0.00    -0.287 N 
HETATM    8  C   UNL     1      -2.842   5.743 -32.453  1.00  0.00     0.326 C 
HETATM    9  N   UNL     1      -2.214   5.363 -31.298  1.00  0.00    -0.309 N 
HETATM   10  O   UNL     1      -2.773   6.853 -32.983  1.00  0.00    -0.247 OA
HETATM   11  H   UNL     1      -2.320   4.382 -31.052  1.00  0.00     0.170 HD
HETATM   12  H   UNL     1      -4.027   5.114 -33.946  1.00  0.00     0.172 HD
BRANCH   9  13
HETATM   13  C   UNL     1      -1.397   6.146 -30.459  1.00  0.00     0.036 A 
HETATM   14  C   UNL     1      -1.891   7.018 -29.488  1.00  0.00     0.030 A 
HETATM   15  C   UNL     1      -1.015   7.767 -28.694  1.00  0.00     0.009 A 
HETATM   16  C   UNL     1       0.368   7.657 -28.858  1.00  0.00    -0.062 A 
HETATM   17  C   UNL     1       1.289   8.492 -28.020  1.00  0.00     0.048 C 
HETATM   18  C   UNL     1       0.865   6.785 -29.830  1.00  0.00     0.009 A 
HETATM   19  C   UNL     1      -0.012   6.028 -30.617  1.00  0.00     0.030 A 
ENDBRANCH   9  13
ENDBRANCH   1   7
BRANCH   3  20
HETATM   20  C   UNL     1      -6.147   0.559 -31.792  1.00  0.00     0.260 C 
HETATM   21  N   UNL     1      -6.259  -0.557 -32.589  1.00  0.00    -0.352 N 
HETATM   22  H   UNL     1      -6.962  -1.200 -32.239  1.00  0.00     0.163 HD
HETATM   23  O   UNL     1      -6.964   0.641 -30.872  1.00  0.00    -0.267 OA
BRANCH  21  24
HETATM   24  C   UNL     1      -5.547  -0.934 -33.793  1.00  0.00     0.167 C 
BRANCH  24  25
HETATM   25  C   UNL     1      -5.291  -2.404 -33.967  1.00  0.00     0.037 A 
HETATM   26  C   UNL     1      -6.216  -3.162 -34.695  1.00  0.00     0.127 A 
HETATM   27  F   UNL     1      -7.325  -2.575 -35.168  1.00  0.00    -0.205 F 
HETATM   28  C   UNL     1      -6.015  -4.516 -34.961  1.00  0.00     0.043 A 
HETATM   29  C   UNL     1      -4.860  -5.144 -34.505  1.00  0.00     0.006 A 
HETATM   30  C   UNL     1      -3.916  -4.409 -33.791  1.00  0.00     0.043 A 
HETATM   31  C   UNL     1      -4.135  -3.054 -33.537  1.00  0.00     0.127 A 
HETATM   32  F   UNL     1      -3.193  -2.377 -32.863  1.00  0.00    -0.205 F 
ENDBRANCH  24  25
ENDBRANCH  21  24
ENDBRANCH   3  20
TORSDOF 5
ENDMDL
MODEL 4
REMARK VINA RESULT:      -9.3      1.310      1.530
REMARK  5 active torsions:
REMARK  status: ('A' for Active; 'I' for Inactive)
REMARK    1  A    between atoms: C_5  and  N_6 
REMARK       I    between atoms: N_6  and  C_7 
REMARK       I    between atoms: C_7  and  N_8 
REMARK    2  A    between atoms: N_8  and  C_9 
REMARK    3  A    between atoms: C_11  and  C_12 
REMARK       I    between atoms: C_12  and  N_13 
REMARK    4  A    between atoms: N_13  and  C_14 
REMARK    5  A    between atoms: C_14  and  C_15 
ROOT
HETATM    1  C   UNL     1      -5.312   3.089 -33.233  1.00  0.00     0.175 A 
HETATM    2  S   UNL     1      -6.590   2.367 -34.076  1.00  0.00    -0.044 SA
HETATM    3  C   UNL     1      -6.680   1.130 -32.890  1.00  0.00     0.100 A 
HETATM    4  C   UNL     1      -5.634   1.311 -31.985  1.00  0.00     0.056 A 
HETATM    5  C   UNL     1      -5.283   0.422 -30.840  1.00  0.00     0.072 C 
HETATM    6  N   UNL     1      -4.863   2.454 -32.182  1.00  0.00    -0.228 NA
ENDROOT
BRANCH   1   7
HETATM    7  N   UNL     1      -4.893   4.273 -33.754  1.00  0.00    -0.287 N 
HETATM    8  C   UNL     1      -3.988   5.134 -33.208  1.00  0.00     0.326 C 
HETATM    9  N   UNL     1      -3.364   4.737 -32.057  1.00  0.00    -0.309 N 
HETATM   10  O   UNL     1      -3.798   6.193 -33.807  1.00  0.00    -0.247 OA
HETATM   11  H   UNL     1      -3.588   3.794 -31.748  1.00  0.00     0.170 HD
HETATM   12  H   UNL     1      -5.316   4.590 -34.613  1.00  0.00     0.172 HD
BRANCH   9  13
HETATM   13  C   UNL     1      -2.411   5.446 -31.300  1.00  0.00     0.036 A 
HETATM   14  C   UNL     1      -2.734   6.468 -30.406  1.00  0.00     0.030 A 
HETATM   15  C   UNL     1      -1.731   7.131 -29.690  1.00  0.00     0.009 A 
HETATM   16  C   UNL     1      -0.387   6.785 -29.859  1.00  0.00    -0.062 A 
HETATM   17  C   UNL     1       0.676   7.529 -29.109  1.00  0.00     0.048 C 
HETATM   18  C   UNL     1      -0.061   5.763 -30.756  1.00  0.00     0.009 A 
HETATM   19  C   UNL     1      -1.068   5.093 -31.462  1.00  0.00     0.030 A 
ENDBRANCH   9  13
ENDBRANCH   1   7
BRANCH   3  20
HETATM   20  C   UNL     1      -7.622   0.022 -32.930  1.00  0.00     0.260 C 
HETATM   21  N   UNL     1      -7.458  -1.064 -33.757  1.00  0.00    -0.352 N 
HETATM   22  H   UNL     1      -8.180  -1.762 -33.610  1.00  0.00     0.163 HD
HETATM   23  O   UNL     1      -8.643   0.017 -32.239  1.00  0.00    -0.267 OA
BRANCH  21  24
HETATM   24  C   UNL     1      -6.448  -1.347 -34.757  1.00  0.00     0.167 C 
BRANCH  24  25
HETATM   25  C   UNL     1      -5.616  -2.574 -34.514  1.00  0.00     0.037 A 
HETATM   26  C   UNL     1      -4.417  -2.439 -33.804  1.00  0.00     0.127 A 
HETATM   27  F   UNL     1      -4.017  -1.222 -33.409  1.00  0.00    -0.205 F 
HETATM   28  C   UNL     1      -3.624  -3.538 -33.476  1.00  0.00     0.043 A 
HETATM   29  C   UNL     1      -4.030  -4.816 -33.850  1.00  0.00     0.006 A 
HETATM   30  C   UNL     1      -5.226  -4.980 -34.545  1.00  0.00     0.043 A 
HETATM   31  C   UNL     1      -6.007  -3.867 -34.861  1.00  0.00     0.127 A 
HETATM   32  F   UNL     1      -7.161  -4.069 -35.513  1.00  0.00    -0.205 F 
ENDBRANCH  24  25
ENDBRANCH  21  24
ENDBRANCH   3  20
TORSDOF 5
ENDMDL
MODEL 5
REMARK VINA RESULT:      -9.3      3.032     10.065
REMARK  5 active torsions:
REMARK  status: ('A' for Active; 'I' for Inactive)
REMARK    1  A    between atoms: C_5  and  N_6 
REMARK       I    between atoms: N_6  and  C_7 
REMARK       I    between atoms: C_7  and  N_8 
REMARK    2  A    between atoms: N_8  and  C_9 
REMARK    3  A    between atoms: C_11  and  C_12 
REMARK       I    between atoms: C_12  and  N_13 
REMARK    4  A    between atoms: N_13  and  C_14 
REMARK    5  A    between atoms: C_14  and  C_15 
ROOT
HETATM    1  C   UNL     1      -4.501   2.810 -32.028  1.00  0.00     0.175 A 
HETATM    2  S   UNL     1      -2.908   3.205 -31.613  1.00  0.00    -0.044 SA
HETATM    3  C   UNL     1      -2.901   4.444 -32.800  1.00  0.00     0.100 A 
HETATM    4  C   UNL     1      -4.102   4.383 -33.508  1.00  0.00     0.056 A 
HETATM    5  C   UNL     1      -4.488   5.220 -34.679  1.00  0.00     0.072 C 
HETATM    6  N   UNL     1      -5.024   3.450 -33.041  1.00  0.00    -0.228 NA
ENDROOT
BRANCH   1   7
HETATM    7  N   UNL     1      -5.067   1.856 -31.241  1.00  0.00    -0.287 N 
HETATM    8  C   UNL     1      -5.466   0.610 -31.624  1.00  0.00     0.326 C 
HETATM    9  N   UNL     1      -5.195   0.235 -32.911  1.00  0.00    -0.309 N 
HETATM   10  O   UNL     1      -6.023  -0.081 -30.770  1.00  0.00    -0.247 OA
HETATM   11  H   UNL     1      -4.655   0.906 -33.451  1.00  0.00     0.170 HD
HETATM   12  H   UNL     1      -5.263   2.089 -30.280  1.00  0.00     0.172 HD
BRANCH   9  13
HETATM   13  C   UNL     1      -5.515  -0.982 -33.543  1.00  0.00     0.036 A 
HETATM   14  C   UNL     1      -6.809  -1.345 -33.920  1.00  0.00     0.030 A 
HETATM   15  C   UNL     1      -7.051  -2.575 -34.542  1.00  0.00     0.009 A 
HETATM   16  C   UNL     1      -6.003  -3.464 -34.795  1.00  0.00    -0.062 A 
HETATM   17  C   UNL     1      -6.286  -4.792 -35.432  1.00  0.00     0.048 C 
HETATM   18  C   UNL     1      -4.706  -3.104 -34.417  1.00  0.00     0.009 A 
HETATM   19  C   UNL     1      -4.465  -1.868 -33.805  1.00  0.00     0.030 A 
ENDBRANCH   9  13
ENDBRANCH   1   7
BRANCH   3  20
HETATM   20  C   UNL     1      -1.763   5.306 -33.079  1.00  0.00     0.260 C 
HETATM   21  N   UNL     1      -1.333   6.276 -32.202  1.00  0.00    -0.352 N 
HETATM   22  H   UNL     1      -0.495   6.741 -32.537  1.00  0.00     0.163 HD
HETATM   23  O   UNL     1      -1.139   5.232 -34.140  1.00  0.00    -0.267 OA
BRANCH  21  24
HETATM   24  C   UNL     1      -1.874   6.705 -30.929  1.00  0.00     0.167 C 
BRANCH  24  25
HETATM   25  C   UNL     1      -0.870   6.907 -29.829  1.00  0.00     0.037 A 
HETATM   26  C   UNL     1      -0.803   8.160 -29.208  1.00  0.00     0.127 A 
HETATM   27  F   UNL     1      -1.589   9.155 -29.641  1.00  0.00    -0.205 F 
HETATM   28  C   UNL     1       0.050   8.407 -28.133  1.00  0.00     0.043 A 
HETATM   29  C   UNL     1       0.857   7.383 -27.644  1.00  0.00     0.006 A 
HETATM   30  C   UNL     1       0.798   6.123 -28.235  1.00  0.00     0.043 A 
HETATM   31  C   UNL     1      -0.064   5.895 -29.309  1.00  0.00     0.127 A 
HETATM   32  F   UNL     1      -0.105   4.663 -29.836  1.00  0.00    -0.205 F 
ENDBRANCH  24  25
ENDBRANCH  21  24
ENDBRANCH   3  20
TORSDOF 5
ENDMDL
MODEL 6
REMARK VINA RESULT:      -8.9      3.855      8.202
REMARK  5 active torsions:
REMARK  status: ('A' for Active; 'I' for Inactive)
REMARK    1  A    between atoms: C_5  and  N_6 
REMARK       I    between atoms: N_6  and  C_7 
REMARK       I    between atoms: C_7  and  N_8 
REMARK    2  A    between atoms: N_8  and  C_9 
REMARK    3  A    between atoms: C_11  and  C_12 
REMARK       I    between atoms: C_12  and  N_13 
REMARK    4  A    between atoms: N_13  and  C_14 
REMARK    5  A    between atoms: C_14  and  C_15 
ROOT
HETATM    1  C   UNL     1      -4.065   2.645 -31.770  1.00  0.00     0.175 A 
HETATM    2  S   UNL     1      -5.376   3.163 -30.832  1.00  0.00    -0.044 SA
HETATM    3  C   UNL     1      -5.665   4.445 -31.936  1.00  0.00     0.100 A 
HETATM    4  C   UNL     1      -4.651   4.439 -32.894  1.00  0.00     0.056 A 
HETATM    5  C   UNL     1      -4.462   5.425 -33.997  1.00  0.00     0.072 C 
HETATM    6  N   UNL     1      -3.745   3.386 -32.799  1.00  0.00    -0.228 NA
ENDROOT
BRANCH   1   7
HETATM    7  N   UNL     1      -3.487   1.492 -31.340  1.00  0.00    -0.287 N 
HETATM    8  C   UNL     1      -3.733   0.232 -31.798  1.00  0.00     0.326 C 
HETATM    9  N   UNL     1      -4.585   0.109 -32.861  1.00  0.00    -0.309 N 
HETATM   10  O   UNL     1      -3.153  -0.690 -31.224  1.00  0.00    -0.247 OA
HETATM   11  H   UNL     1      -4.909   0.987 -33.258  1.00  0.00     0.170 HD
HETATM   12  H   UNL     1      -2.837   1.545 -30.571  1.00  0.00     0.172 HD
BRANCH   9  13
HETATM   13  C   UNL     1      -5.006  -1.074 -33.500  1.00  0.00     0.036 A 
HETATM   14  C   UNL     1      -4.137  -2.086 -33.910  1.00  0.00     0.030 A 
HETATM   15  C   UNL     1      -4.630  -3.233 -34.543  1.00  0.00     0.009 A 
HETATM   16  C   UNL     1      -5.999  -3.385 -34.780  1.00  0.00    -0.062 A 
HETATM   17  C   UNL     1      -6.504  -4.605 -35.491  1.00  0.00     0.048 C 
HETATM   18  C   UNL     1      -6.870  -2.371 -34.372  1.00  0.00     0.009 A 
HETATM   19  C   UNL     1      -6.377  -1.230 -33.728  1.00  0.00     0.030 A 
ENDBRANCH   9  13
ENDBRANCH   1   7
BRANCH   3  20
HETATM   20  C   UNL     1      -6.726   5.429 -31.790  1.00  0.00     0.260 C 
HETATM   21  N   UNL     1      -7.793   5.507 -32.656  1.00  0.00    -0.352 N 
HETATM   22  H   UNL     1      -8.461   6.214 -32.367  1.00  0.00     0.163 HD
HETATM   23  O   UNL     1      -6.707   6.273 -30.891  1.00  0.00    -0.267 OA
BRANCH  21  24
HETATM   24  C   UNL     1      -8.089   4.756 -33.859  1.00  0.00     0.167 C 
BRANCH  24  25
HETATM   25  C   UNL     1      -8.856   3.480 -33.659  1.00  0.00     0.037 A 
HETATM   26  C   UNL     1     -10.245   3.554 -33.493  1.00  0.00     0.127 A 
HETATM   27  F   UNL     1     -10.843   4.753 -33.461  1.00  0.00    -0.205 F 
HETATM   28  C   UNL     1     -11.036   2.413 -33.373  1.00  0.00     0.043 A 
HETATM   29  C   UNL     1     -10.445   1.154 -33.430  1.00  0.00     0.006 A 
HETATM   30  C   UNL     1      -9.067   1.052 -33.610  1.00  0.00     0.043 A 
HETATM   31  C   UNL     1      -8.292   2.207 -33.730  1.00  0.00     0.127 A 
HETATM   32  F   UNL     1      -6.972   2.065 -33.922  1.00  0.00    -0.205 F 
ENDBRANCH  24  25
ENDBRANCH  21  24
ENDBRANCH   3  20
TORSDOF 5
ENDMDL
MODEL 7
REMARK VINA RESULT:      -8.8      3.257      8.952
REMARK  5 active torsions:
REMARK  status: ('A' for Active; 'I' for Inactive)
REMARK    1  A    between atoms: C_5  and  N_6 
REMARK       I    between atoms: N_6  and  C_7 
REMARK       I    between atoms: C_7  and  N_8 
REMARK    2  A    between atoms: N_8  and  C_9 
REMARK    3  A    between atoms: C_11  and  C_12 
REMARK       I    between atoms: C_12  and  N_13 
REMARK    4  A    between atoms: N_13  and  C_14 
REMARK    5  A    between atoms: C_14  and  C_15 
ROOT
HETATM    1  C   UNL     1      -6.051   3.325 -30.428  1.00  0.00     0.175 A 
HETATM    2  S   UNL     1      -5.512   4.494 -29.328  1.00  0.00    -0.044 SA
HETATM    3  C   UNL     1      -5.518   5.675 -30.572  1.00  0.00     0.100 A 
HETATM    4  C   UNL     1      -5.834   5.045 -31.776  1.00  0.00     0.056 A 
HETATM    5  C   UNL     1      -5.874   5.675 -33.127  1.00  0.00     0.072 C 
HETATM    6  N   UNL     1      -6.158   3.694 -31.678  1.00  0.00    -0.228 NA
ENDROOT
BRANCH   1   7
HETATM    7  N   UNL     1      -6.322   2.113 -29.873  1.00  0.00    -0.287 N 
HETATM    8  C   UNL     1      -6.358   0.909 -30.512  1.00  0.00     0.326 C 
HETATM    9  N   UNL     1      -6.001   0.892 -31.833  1.00  0.00    -0.309 N 
HETATM   10  O   UNL     1      -6.694  -0.066 -29.840  1.00  0.00    -0.247 OA
HETATM   11  H   UNL     1      -5.674   1.782 -32.203  1.00  0.00     0.170 HD
HETATM   12  H   UNL     1      -6.570   2.083 -28.896  1.00  0.00     0.172 HD
BRANCH   9  13
HETATM   13  C   UNL     1      -5.971  -0.212 -32.707  1.00  0.00     0.036 A 
HETATM   14  C   UNL     1      -7.095  -0.707 -33.371  1.00  0.00     0.030 A 
HETATM   15  C   UNL     1      -6.987  -1.812 -34.222  1.00  0.00     0.009 A 
HETATM   16  C   UNL     1      -5.756  -2.442 -34.423  1.00  0.00    -0.062 A 
HETATM   17  C   UNL     1      -5.667  -3.645 -35.312  1.00  0.00     0.048 C 
HETATM   18  C   UNL     1      -4.630  -1.949 -33.757  1.00  0.00     0.009 A 
HETATM   19  C   UNL     1      -4.737  -0.835 -32.914  1.00  0.00     0.030 A 
ENDBRANCH   9  13
ENDBRANCH   1   7
BRANCH   3  20
HETATM   20  C   UNL     1      -5.128   7.064 -30.387  1.00  0.00     0.260 C 
HETATM   21  N   UNL     1      -3.814   7.472 -30.379  1.00  0.00    -0.352 N 
HETATM   22  H   UNL     1      -3.734   8.480 -30.294  1.00  0.00     0.163 HD
HETATM   23  O   UNL     1      -5.964   7.950 -30.192  1.00  0.00    -0.267 OA
BRANCH  21  24
HETATM   24  C   UNL     1      -2.587   6.709 -30.478  1.00  0.00     0.167 C 
BRANCH  24  25
HETATM   25  C   UNL     1      -2.192   6.285 -31.865  1.00  0.00     0.037 A 
HETATM   26  C   UNL     1      -2.279   4.928 -32.198  1.00  0.00     0.127 A 
HETATM   27  F   UNL     1      -2.656   4.041 -31.266  1.00  0.00    -0.205 F 
HETATM   28  C   UNL     1      -2.000   4.464 -33.483  1.00  0.00     0.043 A 
HETATM   29  C   UNL     1      -1.633   5.366 -34.477  1.00  0.00     0.006 A 
HETATM   30  C   UNL     1      -1.553   6.724 -34.175  1.00  0.00     0.043 A 
HETATM   31  C   UNL     1      -1.839   7.169 -32.883  1.00  0.00     0.127 A 
HETATM   32  F   UNL     1      -1.770   8.486 -32.638  1.00  0.00    -0.205 F 
ENDBRANCH  24  25
ENDBRANCH  21  24
ENDBRANCH   3  20
TORSDOF 5
ENDMDL
MODEL 8
REMARK VINA RESULT:      -8.8      2.408      3.396
REMARK  5 active torsions:
REMARK  status: ('A' for Active; 'I' for Inactive)
REMARK    1  A    between atoms: C_5  and  N_6 
REMARK       I    between atoms: N_6  and  C_7 
REMARK       I    between atoms: C_7  and  N_8 
REMARK    2  A    between atoms: N_8  and  C_9 
REMARK    3  A    between atoms: C_11  and  C_12 
REMARK       I    between atoms: C_12  and  N_13 
REMARK    4  A    between atoms: N_13  and  C_14 
REMARK    5  A    between atoms: C_14  and  C_15 
ROOT
HETATM    1  C   UNL     1      -2.234   4.860 -31.834  1.00  0.00     0.175 A 
HETATM    2  S   UNL     1      -2.958   3.874 -33.004  1.00  0.00    -0.044 SA
HETATM    3  C   UNL     1      -4.480   4.595 -32.677  1.00  0.00     0.100 A 
HETATM    4  C   UNL     1      -4.330   5.472 -31.603  1.00  0.00     0.056 A 
HETATM    5  C   UNL     1      -5.410   6.253 -30.933  1.00  0.00     0.072 C 
HETATM    6  N   UNL     1      -3.027   5.631 -31.138  1.00  0.00    -0.228 NA
ENDROOT
BRANCH   1   7
HETATM    7  N   UNL     1      -0.882   4.738 -31.755  1.00  0.00    -0.287 N 
HETATM    8  C   UNL     1      -0.064   5.285 -30.811  1.00  0.00     0.326 C 
HETATM    9  N   UNL     1      -0.662   5.956 -29.780  1.00  0.00    -0.309 N 
HETATM   10  O   UNL     1       1.146   5.112 -30.958  1.00  0.00    -0.247 OA
HETATM   11  H   UNL     1      -1.679   5.929 -29.779  1.00  0.00     0.170 HD
HETATM   12  H   UNL     1      -0.407   4.232 -32.487  1.00  0.00     0.172 HD
BRANCH   9  13
HETATM   13  C   UNL     1      -0.041   6.614 -28.700  1.00  0.00     0.036 A 
HETATM   14  C   UNL     1      -0.157   6.205 -27.371  1.00  0.00     0.030 A 
HETATM   15  C   UNL     1       0.487   6.912 -26.350  1.00  0.00     0.009 A 
HETATM   16  C   UNL     1       1.257   8.042 -26.641  1.00  0.00    -0.062 A 
HETATM   17  C   UNL     1       1.912   8.807 -25.530  1.00  0.00     0.048 C 
HETATM   18  C   UNL     1       1.373   8.455 -27.971  1.00  0.00     0.009 A 
HETATM   19  C   UNL     1       0.738   7.739 -28.993  1.00  0.00     0.030 A 
ENDBRANCH   9  13
ENDBRANCH   1   7
BRANCH   3  20
HETATM   20  C   UNL     1      -5.721   4.231 -33.344  1.00  0.00     0.260 C 
HETATM   21  N   UNL     1      -6.346   3.022 -33.141  1.00  0.00    -0.352 N 
HETATM   22  H   UNL     1      -7.226   2.965 -33.645  1.00  0.00     0.163 HD
HETATM   23  O   UNL     1      -6.263   4.983 -34.157  1.00  0.00    -0.267 OA
BRANCH  21  24
HETATM   24  C   UNL     1      -5.953   1.876 -32.347  1.00  0.00     0.167 C 
BRANCH  24  25
HETATM   25  C   UNL     1      -6.031   0.545 -33.040  1.00  0.00     0.037 A 
HETATM   26  C   UNL     1      -4.842  -0.159 -33.268  1.00  0.00     0.127 A 
HETATM   27  F   UNL     1      -3.671   0.390 -32.916  1.00  0.00    -0.205 F 
HETATM   28  C   UNL     1      -4.835  -1.431 -33.839  1.00  0.00     0.043 A 
HETATM   29  C   UNL     1      -6.039  -2.036 -34.189  1.00  0.00     0.006 A 
HETATM   30  C   UNL     1      -7.237  -1.363 -33.959  1.00  0.00     0.043 A 
HETATM   31  C   UNL     1      -7.223  -0.091 -33.383  1.00  0.00     0.127 A 
HETATM   32  F   UNL     1      -8.398   0.515 -33.160  1.00  0.00    -0.205 F 
ENDBRANCH  24  25
ENDBRANCH  21  24
ENDBRANCH   3  20
TORSDOF 5
ENDMDL
MODEL 9
REMARK VINA RESULT:      -8.7      4.430      7.885
REMARK  5 active torsions:
REMARK  status: ('A' for Active; 'I' for Inactive)
REMARK    1  A    between atoms: C_5  and  N_6 
REMARK       I    between atoms: N_6  and  C_7 
REMARK       I    between atoms: C_7  and  N_8 
REMARK    2  A    between atoms: N_8  and  C_9 
REMARK    3  A    between atoms: C_11  and  C_12 
REMARK       I    between atoms: C_12  and  N_13 
REMARK    4  A    between atoms: N_13  and  C_14 
REMARK    5  A    between atoms: C_14  and  C_15 
ROOT
HETATM    1  C   UNL     1      -6.859   4.768 -33.028  1.00  0.00     0.175 A 
HETATM    2  S   UNL     1      -5.564   3.933 -33.731  1.00  0.00    -0.044 SA
HETATM    3  C   UNL     1      -5.062   3.397 -32.180  1.00  0.00     0.100 A 
HETATM    4  C   UNL     1      -5.876   3.999 -31.220  1.00  0.00     0.056 A 
HETATM    5  C   UNL     1      -5.746   3.879 -29.740  1.00  0.00     0.072 C 
HETATM    6  N   UNL     1      -6.920   4.772 -31.722  1.00  0.00    -0.228 NA
ENDROOT
BRANCH   1   7
HETATM    7  N   UNL     1      -7.706   5.345 -33.921  1.00  0.00    -0.287 N 
HETATM    8  C   UNL     1      -8.953   4.915 -34.263  1.00  0.00     0.326 C 
HETATM    9  N   UNL     1      -9.453   3.840 -33.580  1.00  0.00    -0.309 N 
HETATM   10  O   UNL     1      -9.534   5.543 -35.150  1.00  0.00    -0.247 OA
HETATM   11  H   UNL     1      -8.864   3.498 -32.824  1.00  0.00     0.170 HD
HETATM   12  H   UNL     1      -7.381   6.152 -34.430  1.00  0.00     0.172 HD
BRANCH   9  13
HETATM   13  C   UNL     1     -10.697   3.205 -33.756  1.00  0.00     0.036 A 
HETATM   14  C   UNL     1     -11.924   3.865 -33.675  1.00  0.00     0.030 A 
HETATM   15  C   UNL     1     -13.122   3.166 -33.858  1.00  0.00     0.009 A 
HETATM   16  C   UNL     1     -13.114   1.793 -34.123  1.00  0.00    -0.062 A 
HETATM   17  C   UNL     1     -14.408   1.054 -34.282  1.00  0.00     0.048 C 
HETATM   18  C   UNL     1     -11.886   1.130 -34.202  1.00  0.00     0.009 A 
HETATM   19  C   UNL     1     -10.688   1.834 -34.031  1.00  0.00     0.030 A 
ENDBRANCH   9  13
ENDBRANCH   1   7
BRANCH   3  20
HETATM   20  C   UNL     1      -3.898   2.559 -31.939  1.00  0.00     0.260 C 
HETATM   21  N   UNL     1      -3.996   1.234 -31.580  1.00  0.00    -0.352 N 
HETATM   22  H   UNL     1      -3.084   0.795 -31.509  1.00  0.00     0.163 HD
HETATM   23  O   UNL     1      -2.751   3.007 -32.015  1.00  0.00    -0.267 OA
BRANCH  21  24
HETATM   24  C   UNL     1      -5.159   0.414 -31.307  1.00  0.00     0.167 C 
BRANCH  24  25
HETATM   25  C   UNL     1      -5.782  -0.252 -32.501  1.00  0.00     0.037 A 
HETATM   26  C   UNL     1      -6.993   0.253 -32.991  1.00  0.00     0.127 A 
HETATM   27  F   UNL     1      -7.589   1.272 -32.356  1.00  0.00    -0.205 F 
HETATM   28  C   UNL     1      -7.599  -0.262 -34.136  1.00  0.00     0.043 A 
HETATM   29  C   UNL     1      -6.987  -1.302 -34.831  1.00  0.00     0.006 A 
HETATM   30  C   UNL     1      -5.775  -1.813 -34.373  1.00  0.00     0.043 A 
HETATM   31  C   UNL     1      -5.183  -1.282 -33.225  1.00  0.00     0.127 A 
HETATM   32  F   UNL     1      -4.006  -1.787 -32.830  1.00  0.00    -0.205 F 
ENDBRANCH  24  25
ENDBRANCH  21  24
ENDBRANCH   3  20
TORSDOF 5
ENDMDL
MODEL 10
REMARK VINA RESULT:      -8.7      2.896      3.992
REMARK  5 active torsions:
REMARK  status: ('A' for Active; 'I' for Inactive)
REMARK    1  A    between atoms: C_5  and  N_6 
REMARK       I    between atoms: N_6  and  C_7 
REMARK       I    between atoms: C_7  and  N_8 
REMARK    2  A    between atoms: N_8  and  C_9 
REMARK    3  A    between atoms: C_11  and  C_12 
REMARK       I    between atoms: C_12  and  N_13 
REMARK    4  A    between atoms: N_13  and  C_14 
REMARK    5  A    between atoms: C_14  and  C_15 
ROOT
HETATM    1  C   UNL     1      -3.811   3.512 -32.088  1.00  0.00     0.175 A 
HETATM    2  S   UNL     1      -3.766   1.847 -31.784  1.00  0.00    -0.044 SA
HETATM    3  C   UNL     1      -5.380   1.904 -31.206  1.00  0.00     0.100 A 
HETATM    4  C   UNL     1      -5.796   3.235 -31.190  1.00  0.00     0.056 A 
HETATM    5  C   UNL     1      -7.100   3.755 -30.687  1.00  0.00     0.072 C 
HETATM    6  N   UNL     1      -4.890   4.151 -31.719  1.00  0.00    -0.228 NA
ENDROOT
BRANCH   1   7
HETATM    7  N   UNL     1      -2.699   4.002 -32.699  1.00  0.00    -0.287 N 
HETATM    8  C   UNL     1      -1.782   4.858 -32.167  1.00  0.00     0.326 C 
HETATM    9  N   UNL     1      -1.936   5.199 -30.851  1.00  0.00    -0.309 N 
HETATM   10  O   UNL     1      -0.880   5.239 -32.913  1.00  0.00    -0.247 OA
HETATM   11  H   UNL     1      -2.695   4.723 -30.368  1.00  0.00     0.170 HD
HETATM   12  H   UNL     1      -2.541   3.756 -33.664  1.00  0.00     0.172 HD
BRANCH   9  13
HETATM   13  C   UNL     1      -1.137   6.068 -30.082  1.00  0.00     0.036 A 
HETATM   14  C   UNL     1      -1.411   7.425 -29.909  1.00  0.00     0.030 A 
HETATM   15  C   UNL     1      -0.567   8.228 -29.133  1.00  0.00     0.009 A 
HETATM   16  C   UNL     1       0.566   7.687 -28.519  1.00  0.00    -0.062 A 
HETATM   17  C   UNL     1       1.476   8.570 -27.719  1.00  0.00     0.048 C 
HETATM   18  C   UNL     1       0.843   6.328 -28.693  1.00  0.00     0.009 A 
HETATM   19  C   UNL     1      -0.009   5.524 -29.460  1.00  0.00     0.030 A 
ENDBRANCH   9  13
ENDBRANCH   1   7
BRANCH   3  20
HETATM   20  C   UNL     1      -6.113   0.752 -30.705  1.00  0.00     0.260 C 
HETATM   21  N   UNL     1      -6.897  -0.040 -31.513  1.00  0.00    -0.352 N 
HETATM   22  H   UNL     1      -7.285  -0.828 -31.004  1.00  0.00     0.163 HD
HETATM   23  O   UNL     1      -6.094   0.442 -29.511  1.00  0.00    -0.267 OA
BRANCH  21  24
HETATM   24  C   UNL     1      -7.226   0.078 -32.918  1.00  0.00     0.167 C 
BRANCH  24  25
HETATM   25  C   UNL     1      -8.444   0.899 -33.235  1.00  0.00     0.037 A 
HETATM   26  C   UNL     1      -8.268   2.148 -33.844  1.00  0.00     0.127 A 
HETATM   27  F   UNL     1      -7.028   2.600 -34.078  1.00  0.00    -0.205 F 
HETATM   28  C   UNL     1      -9.348   2.938 -34.235  1.00  0.00     0.043 A 
HETATM   29  C   UNL     1     -10.647   2.481 -34.030  1.00  0.00     0.006 A 
HETATM   30  C   UNL     1     -10.849   1.235 -33.439  1.00  0.00     0.043 A 
HETATM   31  C   UNL     1      -9.755   0.458 -33.057  1.00  0.00     0.127 A 
HETATM   32  F   UNL     1      -9.992  -0.743 -32.510  1.00  0.00    -0.205 F 
ENDBRANCH  24  25
ENDBRANCH  21  24
ENDBRANCH   3  20
TORSDOF 5
ENDMDL
