MODEL 1
REMARK VINA RESULT:      -7.6      0.000      0.000
REMARK  10 active torsions:
REMARK  status: ('A' for Active; 'I' for Inactive)
REMARK    1  A    between atoms: C_4  and  C_5 
REMARK    2  A    between atoms: C_5  and  O_6 
REMARK    3  A    between atoms: O_6  and  C_7 
REMARK    4  A    between atoms: C_10  and  N_11 
REMARK       I    between atoms: N_11  and  C_12 
REMARK       I    between atoms: C_12  and  N_13 
REMARK    5  A    between atoms: N_13  and  C_14 
REMARK    6  A    between atoms: C_14  and  C_15 
REMARK    7  A    between atoms: C_15  and  C_16 
REMARK    8  A    between atoms: C_16  and  C_17 
REMARK    9  A    between atoms: C_17  and  N_18 
REMARK   10  A    between atoms: C_25  and  C_26 
REMARK       I    between atoms: C_26  and  N_27 
ROOT
HETATM    1  C   UNL     1      -3.970   1.496 -31.073  1.00  0.00     0.191 C 
HETATM    2  N   UNL     1      -2.935   2.109 -31.638  1.00  0.00    -0.184 NA
HETATM    3  S   UNL     1      -3.251   3.730 -31.638  1.00  0.00     0.033 SA
HETATM    4  C   UNL     1      -4.712   3.625 -30.747  1.00  0.00     0.117 C 
HETATM    5  C   UNL     1      -5.076   2.292 -30.618  1.00  0.00     0.120 C 
ENDROOT
BRANCH   4   6
HETATM    6  N   UNL     1      -5.212   4.868 -30.405  1.00  0.00    -0.301 N 
HETATM    7  C   UNL     1      -6.332   5.467 -30.905  1.00  0.00     0.321 C 
HETATM    8  N   UNL     1      -6.892   4.952 -32.028  1.00  0.00    -0.343 N 
HETATM    9  O   UNL     1      -6.857   6.378 -30.262  1.00  0.00    -0.247 OA
HETATM   10  H   UNL     1      -6.181   4.776 -32.735  1.00  0.00     0.164 HD
HETATM   11  H   UNL     1      -5.051   5.152 -29.446  1.00  0.00     0.171 HD
BRANCH   8  12
HETATM   12  C   UNL     1      -8.132   5.438 -32.594  1.00  0.00     0.124 C 
BRANCH  12  13
HETATM   13  C   UNL     1      -9.366   4.678 -32.096  1.00  0.00     0.021 C 
BRANCH  13  14
HETATM   14  C   UNL     1     -10.298   4.113 -33.175  1.00  0.00     0.029 C 
BRANCH  14  15
HETATM   15  C   UNL     1     -10.870   2.747 -32.803  1.00  0.00     0.235 C 
BRANCH  15  16
HETATM   16  N   UNL     1     -10.373   1.682 -33.748  1.00  0.00    -0.071 N 
HETATM   17  H   UNL     1     -11.042   1.615 -34.525  1.00  0.00     0.279 HD
HETATM   18  C   UNL     1     -10.293   0.308 -33.102  1.00  0.00     0.235 C 
HETATM   19  C   UNL     1      -8.824  -0.063 -33.154  1.00  0.00     0.029 C 
HETATM   20  C   UNL     1      -8.343   0.609 -34.422  1.00  0.00     0.029 C 
HETATM   21  C   UNL     1      -9.003   1.970 -34.343  1.00  0.00     0.235 C 
ENDBRANCH  15  16
ENDBRANCH  14  15
ENDBRANCH  13  14
ENDBRANCH  12  13
ENDBRANCH   8  12
ENDBRANCH   4   6
BRANCH   5  22
HETATM   22  C   UNL     1      -6.354   1.790 -30.142  1.00  0.00     0.256 C 
HETATM   23  N   UNL     1      -6.327   0.751 -29.262  1.00  0.00    -0.366 N 
HETATM   24  H   UNL     1      -5.465   0.335 -28.929  1.00  0.00     0.159 HD
HETATM   25  H   UNL     1      -7.205   0.370 -28.934  1.00  0.00     0.159 HD
HETATM   26  O   UNL     1      -7.435   2.250 -30.502  1.00  0.00    -0.268 OA
ENDBRANCH   5  22
BRANCH   1  27
HETATM   27  O   UNL     1      -3.940   0.143 -31.025  1.00  0.00    -0.328 OA
BRANCH  27  28
HETATM   28  C   UNL     1      -3.052  -0.424 -31.996  1.00  0.00     0.222 C 
BRANCH  28  29
HETATM   29  C   UNL     1      -3.836  -1.408 -32.814  1.00  0.00     0.043 A 
HETATM   30  C   UNL     1      -4.860  -0.994 -33.663  1.00  0.00     0.129 A 
HETATM   31  C   UNL     1      -5.587  -1.905 -34.426  1.00  0.00     0.062 A 
HETATM   32  F   UNL     1      -5.160   0.308 -33.761  1.00  0.00    -0.205 F 
HETATM   33  C   UNL     1      -5.283  -3.262 -34.339  1.00  0.00     0.016 A 
HETATM   34  C   UNL     1      -4.262  -3.704 -33.504  1.00  0.00     0.062 A 
HETATM   35 BR   UNL     1      -6.263  -4.511 -35.364  1.00  0.00    -0.051 Br
HETATM   36  C   UNL     1      -3.548  -2.774 -32.755  1.00  0.00     0.129 A 
HETATM   37  F   UNL     1      -2.560  -3.210 -31.959  1.00  0.00    -0.205 F 
ENDBRANCH  28  29
ENDBRANCH  27  28
ENDBRANCH   1  27
TORSDOF 10
ENDMDL
MODEL 2
REMARK VINA RESULT:      -7.5      5.095      7.299
REMARK  10 active torsions:
REMARK  status: ('A' for Active; 'I' for Inactive)
REMARK    1  A    between atoms: C_4  and  C_5 
REMARK    2  A    between atoms: C_5  and  O_6 
REMARK    3  A    between atoms: O_6  and  C_7 
REMARK    4  A    between atoms: C_10  and  N_11 
REMARK       I    between atoms: N_11  and  C_12 
REMARK       I    between atoms: C_12  and  N_13 
REMARK    5  A    between atoms: N_13  and  C_14 
REMARK    6  A    between atoms: C_14  and  C_15 
REMARK    7  A    between atoms: C_15  and  C_16 
REMARK    8  A    between atoms: C_16  and  C_17 
REMARK    9  A    between atoms: C_17  and  N_18 
REMARK   10  A    between atoms: C_25  and  C_26 
REMARK       I    between atoms: C_26  and  N_27 
ROOT
HETATM    1  C   UNL     1      -2.181   4.774 -32.745  1.00  0.00     0.191 C 
HETATM    2  N   UNL     1      -1.800   4.939 -34.006  1.00  0.00    -0.184 NA
HETATM    3  S   UNL     1      -3.157   5.192 -34.911  1.00  0.00     0.033 SA
HETATM    4  C   UNL     1      -4.248   5.225 -33.589  1.00  0.00     0.117 C 
HETATM    5  C   UNL     1      -3.583   4.830 -32.436  1.00  0.00     0.120 C 
ENDROOT
BRANCH   4   6
HETATM    6  N   UNL     1      -5.528   5.584 -33.969  1.00  0.00    -0.301 N 
HETATM    7  C   UNL     1      -6.640   4.792 -33.956  1.00  0.00     0.321 C 
HETATM    8  N   UNL     1      -6.476   3.452 -33.817  1.00  0.00    -0.343 N 
HETATM    9  O   UNL     1      -7.750   5.326 -33.959  1.00  0.00    -0.247 OA
HETATM   10  H   UNL     1      -5.748   3.114 -34.442  1.00  0.00     0.164 HD
HETATM   11  H   UNL     1      -5.775   6.551 -33.801  1.00  0.00     0.171 HD
BRANCH   8  12
HETATM   12  C   UNL     1      -7.579   2.524 -33.691  1.00  0.00     0.124 C 
BRANCH  12  13
HETATM   13  C   UNL     1      -7.479   1.627 -32.452  1.00  0.00     0.021 C 
BRANCH  13  14
HETATM   14  C   UNL     1      -7.259   0.131 -32.713  1.00  0.00     0.029 C 
BRANCH  14  15
HETATM   15  C   UNL     1      -5.797  -0.283 -32.565  1.00  0.00     0.235 C 
BRANCH  15  16
HETATM   16  N   UNL     1      -5.293  -0.933 -33.829  1.00  0.00    -0.071 N 
HETATM   17  H   UNL     1      -4.800  -0.217 -34.377  1.00  0.00     0.279 HD
HETATM   18  C   UNL     1      -6.412  -1.477 -34.702  1.00  0.00     0.235 C 
HETATM   19  C   UNL     1      -6.168  -2.972 -34.765  1.00  0.00     0.029 C 
HETATM   20  C   UNL     1      -4.660  -3.079 -34.679  1.00  0.00     0.029 C 
HETATM   21  C   UNL     1      -4.322  -2.079 -33.593  1.00  0.00     0.235 C 
ENDBRANCH  15  16
ENDBRANCH  14  15
ENDBRANCH  13  14
ENDBRANCH  12  13
ENDBRANCH   8  12
ENDBRANCH   4   6
BRANCH   5  22
HETATM   22  C   UNL     1      -4.194   4.500 -31.160  1.00  0.00     0.256 C 
HETATM   23  N   UNL     1      -3.883   5.293 -30.097  1.00  0.00    -0.366 N 
HETATM   24  H   UNL     1      -3.263   6.092 -30.170  1.00  0.00     0.159 HD
HETATM   25  H   UNL     1      -4.278   5.070 -29.193  1.00  0.00     0.159 HD
HETATM   26  O   UNL     1      -4.955   3.549 -31.002  1.00  0.00    -0.268 OA
ENDBRANCH   5  22
BRANCH   1  27
HETATM   27  O   UNL     1      -1.217   4.492 -31.835  1.00  0.00    -0.328 OA
BRANCH  27  28
HETATM   28  C   UNL     1      -0.165   5.466 -31.829  1.00  0.00     0.222 C 
BRANCH  28  29
HETATM   29  C   UNL     1      -0.163   6.128 -30.481  1.00  0.00     0.043 A 
HETATM   30  C   UNL     1       0.442   5.528 -29.378  1.00  0.00     0.129 A 
HETATM   31  C   UNL     1       0.447   6.142 -28.128  1.00  0.00     0.062 A 
HETATM   32  F   UNL     1       1.039   4.337 -29.512  1.00  0.00    -0.205 F 
HETATM   33  C   UNL     1      -0.164   7.384 -27.975  1.00  0.00     0.016 A 
HETATM   34  C   UNL     1      -0.772   8.009 -29.060  1.00  0.00     0.062 A 
HETATM   35 BR   UNL     1      -0.169   8.227 -26.284  1.00  0.00    -0.051 Br
HETATM   36  C   UNL     1      -0.761   7.378 -30.300  1.00  0.00     0.129 A 
HETATM   37  F   UNL     1      -1.343   7.993 -31.340  1.00  0.00    -0.205 F 
ENDBRANCH  28  29
ENDBRANCH  27  28
ENDBRANCH   1  27
TORSDOF 10
ENDMDL
MODEL 3
REMARK VINA RESULT:      -7.5      4.482      7.536
REMARK  10 active torsions:
REMARK  status: ('A' for Active; 'I' for Inactive)
REMARK    1  A    between atoms: C_4  and  C_5 
REMARK    2  A    between atoms: C_5  and  O_6 
REMARK    3  A    between atoms: O_6  and  C_7 
REMARK    4  A    between atoms: C_10  and  N_11 
REMARK       I    between atoms: N_11  and  C_12 
REMARK       I    between atoms: C_12  and  N_13 
REMARK    5  A    between atoms: N_13  and  C_14 
REMARK    6  A    between atoms: C_14  and  C_15 
REMARK    7  A    between atoms: C_15  and  C_16 
REMARK    8  A    between atoms: C_16  and  C_17 
REMARK    9  A    between atoms: C_17  and  N_18 
REMARK   10  A    between atoms: C_25  and  C_26 
REMARK       I    between atoms: C_26  and  N_27 
ROOT
HETATM    1  C   UNL     1      -5.630   3.585 -32.166  1.00  0.00     0.191 C 
HETATM    2  N   UNL     1      -6.525   4.370 -32.756  1.00  0.00    -0.184 NA
HETATM    3  S   UNL     1      -5.705   5.423 -33.729  1.00  0.00     0.033 SA
HETATM    4  C   UNL     1      -4.157   4.732 -33.472  1.00  0.00     0.117 C 
HETATM    5  C   UNL     1      -4.237   3.793 -32.454  1.00  0.00     0.120 C 
ENDROOT
BRANCH   4   6
HETATM    6  N   UNL     1      -3.189   5.289 -34.287  1.00  0.00    -0.301 N 
HETATM    7  C   UNL     1      -2.174   6.120 -33.906  1.00  0.00     0.321 C 
HETATM    8  N   UNL     1      -2.235   6.689 -32.676  1.00  0.00    -0.343 N 
HETATM    9  O   UNL     1      -1.192   6.235 -34.641  1.00  0.00    -0.247 OA
HETATM   10  H   UNL     1      -3.160   7.079 -32.507  1.00  0.00     0.164 HD
HETATM   11  H   UNL     1      -2.910   4.722 -35.079  1.00  0.00     0.171 HD
BRANCH   8  12
HETATM   12  C   UNL     1      -1.176   7.506 -32.124  1.00  0.00     0.124 C 
BRANCH  12  13
HETATM   13  C   UNL     1      -0.095   6.692 -31.403  1.00  0.00     0.021 C 
BRANCH  13  14
HETATM   14  C   UNL     1       0.364   7.228 -30.041  1.00  0.00     0.029 C 
BRANCH  14  15
HETATM   15  C   UNL     1       0.277   6.179 -28.936  1.00  0.00     0.235 C 
BRANCH  15  16
HETATM   16  N   UNL     1       0.861   6.706 -27.649  1.00  0.00    -0.071 N 
HETATM   17  H   UNL     1       1.652   6.102 -27.392  1.00  0.00     0.279 HD
HETATM   18  C   UNL     1      -0.127   6.671 -26.493  1.00  0.00     0.235 C 
HETATM   19  C   UNL     1      -0.309   8.121 -26.091  1.00  0.00     0.029 C 
HETATM   20  C   UNL     1       1.041   8.736 -26.395  1.00  0.00     0.029 C 
HETATM   21  C   UNL     1       1.381   8.131 -27.741  1.00  0.00     0.235 C 
ENDBRANCH  15  16
ENDBRANCH  14  15
ENDBRANCH  13  14
ENDBRANCH  12  13
ENDBRANCH   8  12
ENDBRANCH   4   6
BRANCH   5  22
HETATM   22  C   UNL     1      -3.119   3.158 -31.777  1.00  0.00     0.256 C 
HETATM   23  N   UNL     1      -3.276   1.858 -31.400  1.00  0.00    -0.366 N 
HETATM   24  H   UNL     1      -4.122   1.331 -31.581  1.00  0.00     0.159 HD
HETATM   25  H   UNL     1      -2.519   1.401 -30.907  1.00  0.00     0.159 HD
HETATM   26  O   UNL     1      -2.065   3.737 -31.529  1.00  0.00    -0.268 OA
ENDBRANCH   5  22
BRANCH   1  27
HETATM   27  O   UNL     1      -6.092   2.678 -31.272  1.00  0.00    -0.328 OA
BRANCH  27  28
HETATM   28  C   UNL     1      -7.255   1.985 -31.742  1.00  0.00     0.222 C 
BRANCH  28  29
HETATM   29  C   UNL     1      -6.791   0.791 -32.525  1.00  0.00     0.043 A 
HETATM   30  C   UNL     1      -6.149  -0.279 -31.905  1.00  0.00     0.129 A 
HETATM   31  C   UNL     1      -5.721  -1.389 -32.630  1.00  0.00     0.062 A 
HETATM   32  F   UNL     1      -5.938  -0.255 -30.583  1.00  0.00    -0.205 F 
HETATM   33  C   UNL     1      -5.939  -1.431 -34.005  1.00  0.00     0.016 A 
HETATM   34  C   UNL     1      -6.582  -0.379 -34.650  1.00  0.00     0.062 A 
HETATM   35 BR   UNL     1      -5.359  -2.928 -35.002  1.00  0.00    -0.051 Br
HETATM   36  C   UNL     1      -7.004   0.717 -33.904  1.00  0.00     0.129 A 
HETATM   37  F   UNL     1      -7.629   1.722 -34.534  1.00  0.00    -0.205 F 
ENDBRANCH  28  29
ENDBRANCH  27  28
ENDBRANCH   1  27
TORSDOF 10
ENDMDL
MODEL 4
REMARK VINA RESULT:      -7.5      3.254      6.464
REMARK  10 active torsions:
REMARK  status: ('A' for Active; 'I' for Inactive)
REMARK    1  A    between atoms: C_4  and  C_5 
REMARK    2  A    between atoms: C_5  and  O_6 
REMARK    3  A    between atoms: O_6  and  C_7 
REMARK    4  A    between atoms: C_10  and  N_11 
REMARK       I    between atoms: N_11  and  C_12 
REMARK       I    between atoms: C_12  and  N_13 
REMARK    5  A    between atoms: N_13  and  C_14 
REMARK    6  A    between atoms: C_14  and  C_15 
REMARK    7  A    between atoms: C_15  and  C_16 
REMARK    8  A    between atoms: C_16  and  C_17 
REMARK    9  A    between atoms: C_17  and  N_18 
REMARK   10  A    between atoms: C_25  and  C_26 
REMARK       I    between atoms: C_26  and  N_27 
ROOT
HETATM    1  C   UNL     1      -7.951   3.957 -33.002  1.00  0.00     0.191 C 
HETATM    2  N   UNL     1      -7.532   4.890 -33.848  1.00  0.00    -0.184 NA
HETATM    3  S   UNL     1      -6.005   5.326 -33.398  1.00  0.00     0.033 SA
HETATM    4  C   UNL     1      -5.847   4.157 -32.153  1.00  0.00     0.117 C 
HETATM    5  C   UNL     1      -7.075   3.547 -31.940  1.00  0.00     0.120 C 
ENDROOT
BRANCH   4   6
HETATM    6  N   UNL     1      -4.571   4.121 -31.622  1.00  0.00    -0.301 N 
HETATM    7  C   UNL     1      -3.647   3.128 -31.775  1.00  0.00     0.321 C 
HETATM    8  N   UNL     1      -4.061   1.931 -32.263  1.00  0.00    -0.343 N 
HETATM    9  O   UNL     1      -2.459   3.385 -31.573  1.00  0.00    -0.247 OA
HETATM   10  H   UNL     1      -4.907   1.624 -31.787  1.00  0.00     0.164 HD
HETATM   11  H   UNL     1      -4.117   5.021 -31.523  1.00  0.00     0.171 HD
BRANCH   8  12
HETATM   12  C   UNL     1      -3.161   0.838 -32.560  1.00  0.00     0.124 C 
BRANCH  12  13
HETATM   13  C   UNL     1      -3.104  -0.220 -31.453  1.00  0.00     0.021 C 
BRANCH  13  14
HETATM   14  C   UNL     1      -3.882  -1.516 -31.711  1.00  0.00     0.029 C 
BRANCH  14  15
HETATM   15  C   UNL     1      -4.165  -1.747 -33.193  1.00  0.00     0.235 C 
BRANCH  15  16
HETATM   16  N   UNL     1      -5.647  -1.877 -33.443  1.00  0.00    -0.071 N 
HETATM   17  H   UNL     1      -5.945  -2.797 -33.095  1.00  0.00     0.279 HD
HETATM   18  C   UNL     1      -6.007  -1.814 -34.919  1.00  0.00     0.235 C 
HETATM   19  C   UNL     1      -6.884  -0.585 -35.055  1.00  0.00     0.029 C 
HETATM   20  C   UNL     1      -7.600  -0.522 -33.723  1.00  0.00     0.029 C 
HETATM   21  C   UNL     1      -6.490  -0.825 -32.739  1.00  0.00     0.235 C 
ENDBRANCH  15  16
ENDBRANCH  14  15
ENDBRANCH  13  14
ENDBRANCH  12  13
ENDBRANCH   8  12
ENDBRANCH   4   6
BRANCH   5  22
HETATM   22  C   UNL     1      -7.423   2.679 -30.828  1.00  0.00     0.256 C 
HETATM   23  N   UNL     1      -8.749   2.501 -30.568  1.00  0.00    -0.366 N 
HETATM   24  H   UNL     1      -9.480   2.935 -31.119  1.00  0.00     0.159 HD
HETATM   25  H   UNL     1      -9.016   1.918 -29.785  1.00  0.00     0.159 HD
HETATM   26  O   UNL     1      -6.588   2.119 -30.123  1.00  0.00    -0.268 OA
ENDBRANCH   5  22
BRANCH   1  27
HETATM   27  O   UNL     1      -9.217   3.498 -33.159  1.00  0.00    -0.328 OA
BRANCH  27  28
HETATM   28  C   UNL     1      -9.339   2.584 -34.256  1.00  0.00     0.222 C 
BRANCH  28  29
HETATM   29  C   UNL     1     -10.760   2.102 -34.293  1.00  0.00     0.043 A 
HETATM   30  C   UNL     1     -11.182   1.025 -33.516  1.00  0.00     0.129 A 
HETATM   31  C   UNL     1     -12.501   0.577 -33.547  1.00  0.00     0.062 A 
HETATM   32  F   UNL     1     -10.311   0.400 -32.712  1.00  0.00    -0.205 F 
HETATM   33  C   UNL     1     -13.420   1.221 -34.373  1.00  0.00     0.016 A 
HETATM   34  C   UNL     1     -13.028   2.302 -35.156  1.00  0.00     0.062 A 
HETATM   35 BR   UNL     1     -15.211   0.623 -34.430  1.00  0.00    -0.051 Br
HETATM   36  C   UNL     1     -11.706   2.733 -35.105  1.00  0.00     0.129 A 
HETATM   37  F   UNL     1     -11.340   3.781 -35.859  1.00  0.00    -0.205 F 
ENDBRANCH  28  29
ENDBRANCH  27  28
ENDBRANCH   1  27
TORSDOF 10
ENDMDL
MODEL 5
REMARK VINA RESULT:      -7.4      4.218      7.277
REMARK  10 active torsions:
REMARK  status: ('A' for Active; 'I' for Inactive)
REMARK    1  A    between atoms: C_4  and  C_5 
REMARK    2  A    between atoms: C_5  and  O_6 
REMARK    3  A    between atoms: O_6  and  C_7 
REMARK    4  A    between atoms: C_10  and  N_11 
REMARK       I    between atoms: N_11  and  C_12 
REMARK       I    between atoms: C_12  and  N_13 
REMARK    5  A    between atoms: N_13  and  C_14 
REMARK    6  A    between atoms: C_14  and  C_15 
REMARK    7  A    between atoms: C_15  and  C_16 
REMARK    8  A    between atoms: C_16  and  C_17 
REMARK    9  A    between atoms: C_17  and  N_18 
REMARK   10  A    between atoms: C_25  and  C_26 
REMARK       I    between atoms: C_26  and  N_27 
ROOT
HETATM    1  C   UNL     1      -5.162   4.229 -32.985  1.00  0.00     0.191 C 
HETATM    2  N   UNL     1      -5.610   4.302 -31.737  1.00  0.00    -0.184 NA
HETATM    3  S   UNL     1      -4.911   5.620 -31.029  1.00  0.00     0.033 SA
HETATM    4  C   UNL     1      -4.118   6.180 -32.442  1.00  0.00     0.117 C 
HETATM    5  C   UNL     1      -4.226   5.220 -33.439  1.00  0.00     0.120 C 
ENDROOT
BRANCH   4   6
HETATM    6  N   UNL     1      -3.522   7.414 -32.259  1.00  0.00    -0.301 N 
HETATM    7  C   UNL     1      -2.206   7.657 -31.991  1.00  0.00     0.321 C 
HETATM    8  N   UNL     1      -1.425   6.619 -31.600  1.00  0.00    -0.343 N 
HETATM    9  O   UNL     1      -1.750   8.779 -32.221  1.00  0.00    -0.247 OA
HETATM   10  H   UNL     1      -1.889   6.075 -30.876  1.00  0.00     0.164 HD
HETATM   11  H   UNL     1      -3.927   8.174 -32.793  1.00  0.00     0.171 HD
BRANCH   8  12
HETATM   12  C   UNL     1       0.001   6.734 -31.384  1.00  0.00     0.124 C 
BRANCH  12  13
HETATM   13  C   UNL     1       0.653   5.424 -30.927  1.00  0.00     0.021 C 
BRANCH  13  14
HETATM   14  C   UNL     1       0.789   5.225 -29.412  1.00  0.00     0.029 C 
BRANCH  14  15
HETATM   15  C   UNL     1       0.406   6.471 -28.618  1.00  0.00     0.235 C 
BRANCH  15  16
HETATM   16  N   UNL     1      -0.892   6.257 -27.878  1.00  0.00    -0.071 N 
HETATM   17  H   UNL     1      -1.322   5.398 -28.241  1.00  0.00     0.279 HD
HETATM   18  C   UNL     1      -1.887   7.386 -28.091  1.00  0.00     0.235 C 
HETATM   19  C   UNL     1      -2.105   7.981 -26.714  1.00  0.00     0.029 C 
HETATM   20  C   UNL     1      -1.940   6.790 -25.794  1.00  0.00     0.029 C 
HETATM   21  C   UNL     1      -0.729   6.091 -26.376  1.00  0.00     0.235 C 
ENDBRANCH  15  16
ENDBRANCH  14  15
ENDBRANCH  13  14
ENDBRANCH  12  13
ENDBRANCH   8  12
ENDBRANCH   4   6
BRANCH   5  22
HETATM   22  C   UNL     1      -3.501   5.200 -34.698  1.00  0.00     0.256 C 
HETATM   23  N   UNL     1      -2.153   5.010 -34.637  1.00  0.00    -0.366 N 
HETATM   24  H   UNL     1      -1.655   4.874 -33.765  1.00  0.00     0.159 HD
HETATM   25  H   UNL     1      -1.624   5.014 -35.500  1.00  0.00     0.159 HD
HETATM   26  O   UNL     1      -4.042   5.354 -35.790  1.00  0.00    -0.268 OA
ENDBRANCH   5  22
BRANCH   1  27
HETATM   27  O   UNL     1      -5.571   3.175 -33.732  1.00  0.00    -0.328 OA
BRANCH  27  28
HETATM   28  C   UNL     1      -6.503   2.337 -33.037  1.00  0.00     0.222 C 
BRANCH  28  29
HETATM   29  C   UNL     1      -6.285   0.926 -33.504  1.00  0.00     0.043 A 
HETATM   30  C   UNL     1      -5.278   0.129 -32.963  1.00  0.00     0.129 A 
HETATM   31  C   UNL     1      -5.076  -1.180 -33.392  1.00  0.00     0.062 A 
HETATM   32  F   UNL     1      -4.482   0.621 -32.004  1.00  0.00    -0.205 F 
HETATM   33  C   UNL     1      -5.900  -1.707 -34.385  1.00  0.00     0.016 A 
HETATM   34  C   UNL     1      -6.917  -0.936 -34.940  1.00  0.00     0.062 A 
HETATM   35 BR   UNL     1      -5.635  -3.480 -34.981  1.00  0.00    -0.051 Br
HETATM   36  C   UNL     1      -7.101   0.368 -34.491  1.00  0.00     0.129 A 
HETATM   37  F   UNL     1      -8.089   1.100 -35.028  1.00  0.00    -0.205 F 
ENDBRANCH  28  29
ENDBRANCH  27  28
ENDBRANCH   1  27
TORSDOF 10
ENDMDL
MODEL 6
REMARK VINA RESULT:      -7.4      7.248      9.835
REMARK  10 active torsions:
REMARK  status: ('A' for Active; 'I' for Inactive)
REMARK    1  A    between atoms: C_4  and  C_5 
REMARK    2  A    between atoms: C_5  and  O_6 
REMARK    3  A    between atoms: O_6  and  C_7 
REMARK    4  A    between atoms: C_10  and  N_11 
REMARK       I    between atoms: N_11  and  C_12 
REMARK       I    between atoms: C_12  and  N_13 
REMARK    5  A    between atoms: N_13  and  C_14 
REMARK    6  A    between atoms: C_14  and  C_15 
REMARK    7  A    between atoms: C_15  and  C_16 
REMARK    8  A    between atoms: C_16  and  C_17 
REMARK    9  A    between atoms: C_17  and  N_18 
REMARK   10  A    between atoms: C_25  and  C_26 
REMARK       I    between atoms: C_26  and  N_27 
ROOT
HETATM    1  C   UNL     1      -1.383   7.658 -29.674  1.00  0.00     0.191 C 
HETATM    2  N   UNL     1      -1.942   8.605 -30.418  1.00  0.00    -0.184 NA
HETATM    3  S   UNL     1      -1.839   8.128 -31.996  1.00  0.00     0.033 SA
HETATM    4  C   UNL     1      -1.174   6.582 -31.671  1.00  0.00     0.117 C 
HETATM    5  C   UNL     1      -0.832   6.503 -30.328  1.00  0.00     0.120 C 
ENDROOT
BRANCH   4   6
HETATM    6  N   UNL     1      -1.086   5.795 -32.804  1.00  0.00    -0.301 N 
HETATM    7  C   UNL     1      -1.956   4.817 -33.193  1.00  0.00     0.321 C 
HETATM    8  N   UNL     1      -2.857   4.359 -32.289  1.00  0.00    -0.343 N 
HETATM    9  O   UNL     1      -1.966   4.467 -34.375  1.00  0.00    -0.247 OA
HETATM   10  H   UNL     1      -2.403   4.163 -31.399  1.00  0.00     0.164 HD
HETATM   11  H   UNL     1      -0.665   6.242 -33.610  1.00  0.00     0.171 HD
BRANCH   8  12
HETATM   12  C   UNL     1      -3.889   3.397 -32.611  1.00  0.00     0.124 C 
BRANCH  12  13
HETATM   13  C   UNL     1      -3.519   1.959 -32.232  1.00  0.00     0.021 C 
BRANCH  13  14
HETATM   14  C   UNL     1      -4.661   0.935 -32.255  1.00  0.00     0.029 C 
BRANCH  14  15
HETATM   15  C   UNL     1      -4.169  -0.489 -32.504  1.00  0.00     0.235 C 
BRANCH  15  16
HETATM   16  N   UNL     1      -4.620  -0.983 -33.856  1.00  0.00    -0.071 N 
HETATM   17  H   UNL     1      -3.989  -0.585 -34.563  1.00  0.00     0.279 HD
HETATM   18  C   UNL     1      -6.031  -0.539 -34.208  1.00  0.00     0.235 C 
HETATM   19  C   UNL     1      -6.823  -1.825 -34.343  1.00  0.00     0.029 C 
HETATM   20  C   UNL     1      -5.795  -2.811 -34.858  1.00  0.00     0.029 C 
HETATM   21  C   UNL     1      -4.583  -2.496 -34.008  1.00  0.00     0.235 C 
ENDBRANCH  15  16
ENDBRANCH  14  15
ENDBRANCH  13  14
ENDBRANCH  12  13
ENDBRANCH   8  12
ENDBRANCH   4   6
BRANCH   5  22
HETATM   22  C   UNL     1      -0.034   5.463 -29.701  1.00  0.00     0.256 C 
HETATM   23  N   UNL     1       0.160   5.552 -28.355  1.00  0.00    -0.366 N 
HETATM   24  H   UNL     1      -0.235   6.296 -27.791  1.00  0.00     0.159 HD
HETATM   25  H   UNL     1       0.730   4.851 -27.900  1.00  0.00     0.159 HD
HETATM   26  O   UNL     1       0.470   4.533 -30.325  1.00  0.00    -0.268 OA
ENDBRANCH   5  22
BRANCH   1  27
HETATM   27  O   UNL     1      -1.309   7.879 -28.339  1.00  0.00    -0.328 OA
BRANCH  27  28
HETATM   28  C   UNL     1      -0.945   9.229 -28.024  1.00  0.00     0.222 C 
BRANCH  28  29
HETATM   29  C   UNL     1       0.047   9.185 -26.899  1.00  0.00     0.043 A 
HETATM   30  C   UNL     1       1.364   8.779 -27.107  1.00  0.00     0.129 A 
HETATM   31  C   UNL     1       2.287   8.740 -26.064  1.00  0.00     0.062 A 
HETATM   32  F   UNL     1       1.765   8.421 -28.333  1.00  0.00    -0.205 F 
HETATM   33  C   UNL     1       1.886   9.116 -24.784  1.00  0.00     0.016 A 
HETATM   34  C   UNL     1       0.579   9.531 -24.548  1.00  0.00     0.062 A 
HETATM   35 BR   UNL     1       3.125   9.064 -23.359  1.00  0.00    -0.051 Br
HETATM   36  C   UNL     1      -0.324   9.565 -25.606  1.00  0.00     0.129 A 
HETATM   37  F   UNL     1      -1.579   9.973 -25.369  1.00  0.00    -0.205 F 
ENDBRANCH  28  29
ENDBRANCH  27  28
ENDBRANCH   1  27
TORSDOF 10
ENDMDL
MODEL 7
REMARK VINA RESULT:      -7.4      3.952      6.895
REMARK  10 active torsions:
REMARK  status: ('A' for Active; 'I' for Inactive)
REMARK    1  A    between atoms: C_4  and  C_5 
REMARK    2  A    between atoms: C_5  and  O_6 
REMARK    3  A    between atoms: O_6  and  C_7 
REMARK    4  A    between atoms: C_10  and  N_11 
REMARK       I    between atoms: N_11  and  C_12 
REMARK       I    between atoms: C_12  and  N_13 
REMARK    5  A    between atoms: N_13  and  C_14 
REMARK    6  A    between atoms: C_14  and  C_15 
REMARK    7  A    between atoms: C_15  and  C_16 
REMARK    8  A    between atoms: C_16  and  C_17 
REMARK    9  A    between atoms: C_17  and  N_18 
REMARK   10  A    between atoms: C_25  and  C_26 
REMARK       I    between atoms: C_26  and  N_27 
ROOT
HETATM    1  C   UNL     1      -7.008   3.218 -32.073  1.00  0.00     0.191 C 
HETATM    2  N   UNL     1      -8.001   3.893 -32.641  1.00  0.00    -0.184 NA
HETATM    3  S   UNL     1      -7.348   4.853 -33.815  1.00  0.00     0.033 SA
HETATM    4  C   UNL     1      -5.748   4.256 -33.662  1.00  0.00     0.117 C 
HETATM    5  C   UNL     1      -5.668   3.441 -32.541  1.00  0.00     0.120 C 
ENDROOT
BRANCH   4   6
HETATM    6  N   UNL     1      -4.906   4.748 -34.642  1.00  0.00    -0.301 N 
HETATM    7  C   UNL     1      -3.721   5.399 -34.453  1.00  0.00     0.321 C 
HETATM    8  N   UNL     1      -3.430   5.861 -33.211  1.00  0.00    -0.343 N 
HETATM    9  O   UNL     1      -2.913   5.446 -35.383  1.00  0.00    -0.247 OA
HETATM   10  H   UNL     1      -4.228   6.355 -32.817  1.00  0.00     0.164 HD
HETATM   11  H   UNL     1      -4.891   4.220 -35.506  1.00  0.00     0.171 HD
BRANCH   8  12
HETATM   12  C   UNL     1      -2.167   6.478 -32.867  1.00  0.00     0.124 C 
BRANCH  12  13
HETATM   13  C   UNL     1      -1.074   5.465 -32.511  1.00  0.00     0.021 C 
BRANCH  13  14
HETATM   14  C   UNL     1      -0.036   5.920 -31.477  1.00  0.00     0.029 C 
BRANCH  14  15
HETATM   15  C   UNL     1      -0.077   5.090 -30.197  1.00  0.00     0.235 C 
BRANCH  15  16
HETATM   16  N   UNL     1      -0.339   5.966 -28.997  1.00  0.00    -0.071 N 
HETATM   17  H   UNL     1      -1.253   5.703 -28.610  1.00  0.00     0.279 HD
HETATM   18  C   UNL     1      -0.404   7.444 -29.347  1.00  0.00     0.235 C 
HETATM   19  C   UNL     1       0.740   8.078 -28.581  1.00  0.00     0.029 C 
HETATM   20  C   UNL     1       0.837   7.224 -27.335  1.00  0.00     0.029 C 
HETATM   21  C   UNL     1       0.690   5.821 -27.886  1.00  0.00     0.235 C 
ENDBRANCH  15  16
ENDBRANCH  14  15
ENDBRANCH  13  14
ENDBRANCH  12  13
ENDBRANCH   8  12
ENDBRANCH   4   6
BRANCH   5  22
HETATM   22  C   UNL     1      -4.451   2.933 -31.931  1.00  0.00     0.256 C 
HETATM   23  N   UNL     1      -4.438   2.815 -30.573  1.00  0.00    -0.366 N 
HETATM   24  H   UNL     1      -5.233   3.054 -29.993  1.00  0.00     0.159 HD
HETATM   25  H   UNL     1      -3.594   2.484 -30.124  1.00  0.00     0.159 HD
HETATM   26  O   UNL     1      -3.454   2.622 -32.575  1.00  0.00    -0.268 OA
ENDBRANCH   5  22
BRANCH   1  27
HETATM   27  O   UNL     1      -7.322   2.407 -31.034  1.00  0.00    -0.328 OA
BRANCH  27  28
HETATM   28  C   UNL     1      -8.244   1.373 -31.402  1.00  0.00     0.222 C 
BRANCH  28  29
HETATM   29  C   UNL     1      -7.496   0.365 -32.225  1.00  0.00     0.043 A 
HETATM   30  C   UNL     1      -7.882   0.060 -33.528  1.00  0.00     0.129 A 
HETATM   31  C   UNL     1      -7.188  -0.874 -34.294  1.00  0.00     0.062 A 
HETATM   32  F   UNL     1      -8.942   0.675 -34.070  1.00  0.00    -0.205 F 
HETATM   33  C   UNL     1      -6.081  -1.518 -33.746  1.00  0.00     0.016 A 
HETATM   34  C   UNL     1      -5.668  -1.229 -32.448  1.00  0.00     0.062 A 
HETATM   35 BR   UNL     1      -5.132  -2.790 -34.770  1.00  0.00    -0.051 Br
HETATM   36  C   UNL     1      -6.376  -0.290 -31.705  1.00  0.00     0.129 A 
HETATM   37  F   UNL     1      -5.966  -0.015 -30.458  1.00  0.00    -0.205 F 
ENDBRANCH  28  29
ENDBRANCH  27  28
ENDBRANCH   1  27
TORSDOF 10
ENDMDL
MODEL 8
REMARK VINA RESULT:      -7.4      4.040      6.731
REMARK  10 active torsions:
REMARK  status: ('A' for Active; 'I' for Inactive)
REMARK    1  A    between atoms: C_4  and  C_5 
REMARK    2  A    between atoms: C_5  and  O_6 
REMARK    3  A    between atoms: O_6  and  C_7 
REMARK    4  A    between atoms: C_10  and  N_11 
REMARK       I    between atoms: N_11  and  C_12 
REMARK       I    between atoms: C_12  and  N_13 
REMARK    5  A    between atoms: N_13  and  C_14 
REMARK    6  A    between atoms: C_14  and  C_15 
REMARK    7  A    between atoms: C_15  and  C_16 
REMARK    8  A    between atoms: C_16  and  C_17 
REMARK    9  A    between atoms: C_17  and  N_18 
REMARK   10  A    between atoms: C_25  and  C_26 
REMARK       I    between atoms: C_26  and  N_27 
ROOT
HETATM    1  C   UNL     1      -3.748   3.508 -32.473  1.00  0.00     0.191 C 
HETATM    2  N   UNL     1      -2.779   3.293 -31.591  1.00  0.00    -0.184 NA
HETATM    3  S   UNL     1      -1.726   4.561 -31.684  1.00  0.00     0.033 SA
HETATM    4  C   UNL     1      -2.646   5.474 -32.806  1.00  0.00     0.117 C 
HETATM    5  C   UNL     1      -3.694   4.696 -33.280  1.00  0.00     0.120 C 
ENDROOT
BRANCH   4   6
HETATM    6  N   UNL     1      -2.121   6.735 -33.018  1.00  0.00    -0.301 N 
HETATM    7  C   UNL     1      -2.462   7.886 -32.367  1.00  0.00     0.321 C 
HETATM    8  N   UNL     1      -3.596   7.893 -31.622  1.00  0.00    -0.343 N 
HETATM    9  O   UNL     1      -1.676   8.835 -32.386  1.00  0.00    -0.247 OA
HETATM   10  H   UNL     1      -4.368   7.480 -32.142  1.00  0.00     0.164 HD
HETATM   11  H   UNL     1      -1.149   6.758 -33.301  1.00  0.00     0.171 HD
BRANCH   8  12
HETATM   12  C   UNL     1      -4.008   9.018 -30.811  1.00  0.00     0.124 C 
BRANCH  12  13
HETATM   13  C   UNL     1      -3.500   8.943 -29.367  1.00  0.00     0.021 C 
BRANCH  13  14
HETATM   14  C   UNL     1      -2.447   9.982 -28.962  1.00  0.00     0.029 C 
BRANCH  14  15
HETATM   15  C   UNL     1      -1.190   9.348 -28.372  1.00  0.00     0.235 C 
BRANCH  15  16
HETATM   16  N   UNL     1      -1.184   7.857 -28.599  1.00  0.00    -0.071 N 
HETATM   17  H   UNL     1      -2.072   7.604 -29.049  1.00  0.00     0.279 HD
HETATM   18  C   UNL     1      -1.092   7.062 -27.306  1.00  0.00     0.235 C 
HETATM   19  C   UNL     1       0.212   6.296 -27.410  1.00  0.00     0.029 C 
HETATM   20  C   UNL     1       0.342   6.038 -28.897  1.00  0.00     0.029 C 
HETATM   21  C   UNL     1      -0.058   7.370 -29.497  1.00  0.00     0.235 C 
ENDBRANCH  15  16
ENDBRANCH  14  15
ENDBRANCH  13  14
ENDBRANCH  12  13
ENDBRANCH   8  12
ENDBRANCH   4   6
BRANCH   5  22
HETATM   22  C   UNL     1      -4.558   5.008 -34.406  1.00  0.00     0.256 C 
HETATM   23  N   UNL     1      -5.902   4.905 -34.207  1.00  0.00    -0.366 N 
HETATM   24  H   UNL     1      -6.307   4.635 -33.318  1.00  0.00     0.159 HD
HETATM   25  H   UNL     1      -6.523   5.095 -34.983  1.00  0.00     0.159 HD
HETATM   26  O   UNL     1      -4.133   5.344 -35.508  1.00  0.00    -0.268 OA
ENDBRANCH   5  22
BRANCH   1  27
HETATM   27  O   UNL     1      -4.696   2.548 -32.602  1.00  0.00    -0.328 OA
BRANCH  27  28
HETATM   28  C   UNL     1      -4.422   1.393 -31.801  1.00  0.00     0.222 C 
BRANCH  28  29
HETATM   29  C   UNL     1      -4.878   0.186 -32.568  1.00  0.00     0.043 A 
HETATM   30  C   UNL     1      -3.967  -0.683 -33.165  1.00  0.00     0.129 A 
HETATM   31  C   UNL     1      -4.388  -1.805 -33.875  1.00  0.00     0.062 A 
HETATM   32  F   UNL     1      -2.653  -0.448 -33.057  1.00  0.00    -0.205 F 
HETATM   33  C   UNL     1      -5.751  -2.066 -33.991  1.00  0.00     0.016 A 
HETATM   34  C   UNL     1      -6.685  -1.219 -33.401  1.00  0.00     0.062 A 
HETATM   35 BR   UNL     1      -6.339  -3.582 -34.955  1.00  0.00    -0.051 Br
HETATM   36  C   UNL     1      -6.239  -0.107 -32.694  1.00  0.00     0.129 A 
HETATM   37  F   UNL     1      -7.147   0.699 -32.123  1.00  0.00    -0.205 F 
ENDBRANCH  28  29
ENDBRANCH  27  28
ENDBRANCH   1  27
TORSDOF 10
ENDMDL
MODEL 9
REMARK VINA RESULT:      -7.4      3.812      6.599
REMARK  10 active torsions:
REMARK  status: ('A' for Active; 'I' for Inactive)
REMARK    1  A    between atoms: C_4  and  C_5 
REMARK    2  A    between atoms: C_5  and  O_6 
REMARK    3  A    between atoms: O_6  and  C_7 
REMARK    4  A    between atoms: C_10  and  N_11 
REMARK       I    between atoms: N_11  and  C_12 
REMARK       I    between atoms: C_12  and  N_13 
REMARK    5  A    between atoms: N_13  and  C_14 
REMARK    6  A    between atoms: C_14  and  C_15 
REMARK    7  A    between atoms: C_15  and  C_16 
REMARK    8  A    between atoms: C_16  and  C_17 
REMARK    9  A    between atoms: C_17  and  N_18 
REMARK   10  A    between atoms: C_25  and  C_26 
REMARK       I    between atoms: C_26  and  N_27 
ROOT
HETATM    1  C   UNL     1      -4.334   3.645 -32.916  1.00  0.00     0.191 C 
HETATM    2  N   UNL     1      -3.085   3.210 -33.029  1.00  0.00    -0.184 NA
HETATM    3  S   UNL     1      -2.120   4.522 -33.307  1.00  0.00     0.033 SA
HETATM    4  C   UNL     1      -3.359   5.693 -33.131  1.00  0.00     0.117 C 
HETATM    5  C   UNL     1      -4.589   5.053 -33.056  1.00  0.00     0.120 C 
ENDROOT
BRANCH   4   6
HETATM    6  N   UNL     1      -2.870   6.986 -33.150  1.00  0.00    -0.301 N 
HETATM    7  C   UNL     1      -2.737   7.829 -32.084  1.00  0.00     0.321 C 
HETATM    8  N   UNL     1      -3.371   7.511 -30.928  1.00  0.00    -0.343 N 
HETATM    9  O   UNL     1      -1.961   8.782 -32.174  1.00  0.00    -0.247 OA
HETATM   10  H   UNL     1      -4.336   7.242 -31.111  1.00  0.00     0.164 HD
HETATM   11  H   UNL     1      -2.154   7.168 -33.843  1.00  0.00     0.171 HD
BRANCH   8  12
HETATM   12  C   UNL     1      -3.226   8.271 -29.706  1.00  0.00     0.124 C 
BRANCH  12  13
HETATM   13  C   UNL     1      -2.890   7.404 -28.487  1.00  0.00     0.021 C 
BRANCH  13  14
HETATM   14  C   UNL     1      -1.547   7.687 -27.801  1.00  0.00     0.029 C 
BRANCH  14  15
HETATM   15  C   UNL     1      -0.520   8.302 -28.749  1.00  0.00     0.235 C 
BRANCH  15  16
HETATM   16  N   UNL     1       0.546   7.299 -29.111  1.00  0.00    -0.071 N 
HETATM   17  H   UNL     1       1.460   7.736 -28.942  1.00  0.00     0.279 HD
HETATM   18  C   UNL     1       0.503   6.892 -30.575  1.00  0.00     0.235 C 
HETATM   19  C   UNL     1       0.210   5.405 -30.560  1.00  0.00     0.029 C 
HETATM   20  C   UNL     1       0.877   4.935 -29.284  1.00  0.00     0.029 C 
HETATM   21  C   UNL     1       0.493   6.016 -28.295  1.00  0.00     0.235 C 
ENDBRANCH  15  16
ENDBRANCH  14  15
ENDBRANCH  13  14
ENDBRANCH  12  13
ENDBRANCH   8  12
ENDBRANCH   4   6
BRANCH   5  22
HETATM   22  C   UNL     1      -5.895   5.684 -33.138  1.00  0.00     0.256 C 
HETATM   23  N   UNL     1      -6.863   5.023 -33.833  1.00  0.00    -0.366 N 
HETATM   24  H   UNL     1      -6.707   4.123 -34.274  1.00  0.00     0.159 HD
HETATM   25  H   UNL     1      -7.774   5.452 -33.923  1.00  0.00     0.159 HD
HETATM   26  O   UNL     1      -6.153   6.769 -32.625  1.00  0.00    -0.268 OA
ENDBRANCH   5  22
BRANCH   1  27
HETATM   27  O   UNL     1      -5.303   2.715 -32.741  1.00  0.00    -0.328 OA
BRANCH  27  28
HETATM   28  C   UNL     1      -4.868   1.611 -31.938  1.00  0.00     0.222 C 
BRANCH  28  29
HETATM   29  C   UNL     1      -5.230   0.347 -32.664  1.00  0.00     0.043 A 
HETATM   30  C   UNL     1      -6.554  -0.072 -32.778  1.00  0.00     0.129 A 
HETATM   31  C   UNL     1      -6.892  -1.242 -33.453  1.00  0.00     0.062 A 
HETATM   32  F   UNL     1      -7.534   0.662 -32.234  1.00  0.00    -0.205 F 
HETATM   33  C   UNL     1      -5.883  -2.012 -34.028  1.00  0.00     0.016 A 
HETATM   34  C   UNL     1      -4.553  -1.616 -33.935  1.00  0.00     0.062 A 
HETATM   35 BR   UNL     1      -6.325  -3.605 -34.944  1.00  0.00    -0.051 Br
HETATM   36  C   UNL     1      -4.241  -0.441 -33.259  1.00  0.00     0.129 A 
HETATM   37  F   UNL     1      -2.956  -0.065 -33.181  1.00  0.00    -0.205 F 
ENDBRANCH  28  29
ENDBRANCH  27  28
ENDBRANCH   1  27
TORSDOF 10
ENDMDL
MODEL 10
REMARK VINA RESULT:      -7.3      3.053      5.138
REMARK  10 active torsions:
REMARK  status: ('A' for Active; 'I' for Inactive)
REMARK    1  A    between atoms: C_4  and  C_5 
REMARK    2  A    between atoms: C_5  and  O_6 
REMARK    3  A    between atoms: O_6  and  C_7 
REMARK    4  A    between atoms: C_10  and  N_11 
REMARK       I    between atoms: N_11  and  C_12 
REMARK       I    between atoms: C_12  and  N_13 
REMARK    5  A    between atoms: N_13  and  C_14 
REMARK    6  A    between atoms: C_14  and  C_15 
REMARK    7  A    between atoms: C_15  and  C_16 
REMARK    8  A    between atoms: C_16  and  C_17 
REMARK    9  A    between atoms: C_17  and  N_18 
REMARK   10  A    between atoms: C_25  and  C_26 
REMARK       I    between atoms: C_26  and  N_27 
ROOT
HETATM    1  C   UNL     1      -6.549   3.225 -32.413  1.00  0.00     0.191 C 
HETATM    2  N   UNL     1      -6.865   3.783 -33.577  1.00  0.00    -0.184 NA
HETATM    3  S   UNL     1      -7.081   5.399 -33.315  1.00  0.00     0.033 SA
HETATM    4  C   UNL     1      -6.609   5.377 -31.667  1.00  0.00     0.117 C 
HETATM    5  C   UNL     1      -6.474   4.061 -31.247  1.00  0.00     0.120 C 
ENDROOT
BRANCH   4   6
HETATM    6  N   UNL     1      -6.517   6.646 -31.128  1.00  0.00    -0.301 N 
HETATM    7  C   UNL     1      -5.393   7.253 -30.645  1.00  0.00     0.321 C 
HETATM    8  N   UNL     1      -4.298   6.488 -30.410  1.00  0.00    -0.343 N 
HETATM    9  O   UNL     1      -5.376   8.481 -30.546  1.00  0.00    -0.247 OA
HETATM   10  H   UNL     1      -4.553   5.646 -29.897  1.00  0.00     0.164 HD
HETATM   11  H   UNL     1      -7.154   7.330 -31.517  1.00  0.00     0.171 HD
BRANCH   8  12
HETATM   12  C   UNL     1      -3.023   7.030 -29.993  1.00  0.00     0.124 C 
BRANCH  12  13
HETATM   13  C   UNL     1      -1.823   6.308 -30.617  1.00  0.00     0.021 C 
BRANCH  13  14
HETATM   14  C   UNL     1      -1.033   7.091 -31.673  1.00  0.00     0.029 C 
BRANCH  14  15
HETATM   15  C   UNL     1      -1.937   7.865 -32.630  1.00  0.00     0.235 C 
BRANCH  15  16
HETATM   16  N   UNL     1      -2.214   7.060 -33.875  1.00  0.00    -0.071 N 
HETATM   17  H   UNL     1      -2.400   7.720 -34.641  1.00  0.00     0.279 HD
HETATM   18  C   UNL     1      -3.437   6.167 -33.742  1.00  0.00     0.235 C 
HETATM   19  C   UNL     1      -2.907   4.754 -33.891  1.00  0.00     0.029 C 
HETATM   20  C   UNL     1      -1.738   4.922 -34.838  1.00  0.00     0.029 C 
HETATM   21  C   UNL     1      -1.061   6.168 -34.307  1.00  0.00     0.235 C 
ENDBRANCH  15  16
ENDBRANCH  14  15
ENDBRANCH  13  14
ENDBRANCH  12  13
ENDBRANCH   8  12
ENDBRANCH   4   6
BRANCH   5  22
HETATM   22  C   UNL     1      -6.319   3.607 -29.875  1.00  0.00     0.256 C 
HETATM   23  N   UNL     1      -6.908   2.424 -29.541  1.00  0.00    -0.366 N 
HETATM   24  H   UNL     1      -7.427   1.861 -30.204  1.00  0.00     0.159 HD
HETATM   25  H   UNL     1      -6.833   2.098 -28.586  1.00  0.00     0.159 HD
HETATM   26  O   UNL     1      -5.701   4.237 -29.022  1.00  0.00    -0.268 OA
ENDBRANCH   5  22
BRANCH   1  27
HETATM   27  O   UNL     1      -6.385   1.880 -32.392  1.00  0.00    -0.328 OA
BRANCH  27  28
HETATM   28  C   UNL     1      -5.257   1.452 -33.166  1.00  0.00     0.222 C 
BRANCH  28  29
HETATM   29  C   UNL     1      -5.536   0.058 -33.648  1.00  0.00     0.043 A 
HETATM   30  C   UNL     1      -6.600  -0.214 -34.506  1.00  0.00     0.129 A 
HETATM   31  C   UNL     1      -6.859  -1.506 -34.958  1.00  0.00     0.062 A 
HETATM   32  F   UNL     1      -7.396   0.781 -34.918  1.00  0.00    -0.205 F 
HETATM   33  C   UNL     1      -6.036  -2.551 -34.543  1.00  0.00     0.016 A 
HETATM   34  C   UNL     1      -4.963  -2.308 -33.691  1.00  0.00     0.062 A 
HETATM   35 BR   UNL     1      -6.377  -4.310 -35.143  1.00  0.00    -0.051 Br
HETATM   36  C   UNL     1      -4.723  -1.008 -33.257  1.00  0.00     0.129 A 
HETATM   37  F   UNL     1      -3.681  -0.784 -32.441  1.00  0.00    -0.205 F 
ENDBRANCH  28  29
ENDBRANCH  27  28
ENDBRANCH   1  27
TORSDOF 10
ENDMDL
