MODEL 1
REMARK VINA RESULT:      -8.9      0.000      0.000
REMARK  5 active torsions:
REMARK  status: ('A' for Active; 'I' for Inactive)
REMARK    1  A    between atoms: C_2  and  C_3 
REMARK    2  A    between atoms: C_3  and  N_4 
REMARK    3  A    between atoms: N_8  and  C_10 
REMARK    4  A    between atoms: C_10  and  C_11 
REMARK    5  A    between atoms: C_14  and  C_15 
ROOT
HETATM    1  N   UNL     1      -3.456   6.046 -31.655  1.00  0.00     0.104 N 
HETATM    2  C   UNL     1      -4.591   5.202 -31.104  1.00  0.00     0.206 C 
HETATM    3  C   UNL     1      -4.343   3.679 -31.226  1.00  0.00     0.076 C 
HETATM    4  C   UNL     1      -4.175   3.259 -32.684  1.00  0.00     0.238 C 
HETATM    5  N   UNL     1      -5.427   3.569 -33.475  1.00  0.00    -0.065 N 
HETATM    6  H   UNL     1      -5.154   3.410 -34.457  1.00  0.00     0.280 HD
HETATM    7  C   UNL     1      -5.786   5.031 -33.383  1.00  0.00     0.238 C 
HETATM    8  C   UNL     1      -5.889   5.481 -31.924  1.00  0.00     0.076 C 
HETATM    9  C   UNL     1      -4.840   5.590 -29.659  1.00  0.00     0.072 A 
HETATM   10  C   UNL     1      -4.416   6.775 -29.091  1.00  0.00     0.037 A 
HETATM   11  N   UNL     1      -4.838   6.755 -27.780  1.00  0.00    -0.354 N 
HETATM   12  H   UNL     1      -4.667   7.487 -27.091  1.00  0.00     0.166 HD
HETATM   13  C   UNL     1      -5.494   5.621 -27.516  1.00  0.00     0.181 A 
HETATM   14  N   UNL     1      -5.508   4.909 -28.655  1.00  0.00    -0.352 N 
HETATM   15  H   UNL     1      -5.939   3.988 -28.715  1.00  0.00     0.166 HD
HETATM   16  C   UNL     1      -3.622   7.812 -29.775  1.00  0.00     0.089 C 
HETATM   17  C   UNL     1      -3.609   7.501 -31.294  1.00  0.00     0.280 C 
ENDROOT
BRANCH   1  18
HETATM   18  C   UNL     1      -2.092   5.570 -31.285  1.00  0.00     0.273 C 
BRANCH  18  19
HETATM   19  C   UNL     1      -1.136   5.304 -32.460  1.00  0.00     0.026 C 
HETATM   20  C   UNL     1      -1.705   5.734 -33.805  1.00  0.00     0.007 C 
ENDBRANCH  18  19
ENDBRANCH   1  18
BRANCH   5  21
HETATM   21  C   UNL     1      -6.616   2.621 -33.283  1.00  0.00     0.301 C 
BRANCH  21  22
HETATM   22  C   UNL     1      -6.402   1.296 -33.894  1.00  0.00     0.107 A 
HETATM   23  O   UNL     1      -7.240   0.995 -34.917  1.00  0.00    -0.216 OA
HETATM   24  N   UNL     1      -7.126  -0.336 -35.228  1.00  0.00    -0.128 NA
HETATM   25  C   UNL     1      -6.159  -0.834 -34.440  1.00  0.00     0.097 A 
HETATM   26  C   UNL     1      -5.633   0.195 -33.604  1.00  0.00     0.071 A 
BRANCH  25  27
HETATM   27  C   UNL     1      -5.829  -2.254 -34.418  1.00  0.00    -0.005 A 
HETATM   28  C   UNL     1      -4.540  -2.668 -34.043  1.00  0.00     0.014 A 
HETATM   29  C   UNL     1      -4.189  -4.018 -34.090  1.00  0.00     0.001 A 
HETATM   30  C   UNL     1      -5.122  -4.967 -34.500  1.00  0.00     0.000 A 
HETATM   31  C   UNL     1      -6.409  -4.568 -34.859  1.00  0.00     0.001 A 
HETATM   32  C   UNL     1      -6.762  -3.217 -34.822  1.00  0.00     0.014 A 
ENDBRANCH  25  27
ENDBRANCH  21  22
ENDBRANCH   5  21
TORSDOF 5
ENDMDL
MODEL 2
REMARK VINA RESULT:      -8.7      4.525      7.024
REMARK  5 active torsions:
REMARK  status: ('A' for Active; 'I' for Inactive)
REMARK    1  A    between atoms: C_2  and  C_3 
REMARK    2  A    between atoms: C_3  and  N_4 
REMARK    3  A    between atoms: N_8  and  C_10 
REMARK    4  A    between atoms: C_10  and  C_11 
REMARK    5  A    between atoms: C_14  and  C_15 
ROOT
HETATM    1  N   UNL     1     -12.195   3.080 -32.949  1.00  0.00     0.104 N 
HETATM    2  C   UNL     1     -10.794   3.557 -33.286  1.00  0.00     0.206 C 
HETATM    3  C   UNL     1      -9.912   2.464 -33.939  1.00  0.00     0.076 C 
HETATM    4  C   UNL     1      -9.737   1.265 -33.012  1.00  0.00     0.238 C 
HETATM    5  N   UNL     1      -9.052   1.679 -31.728  1.00  0.00    -0.065 N 
HETATM    6  H   UNL     1      -9.136   0.853 -31.115  1.00  0.00     0.280 HD
HETATM    7  C   UNL     1      -9.812   2.780 -31.032  1.00  0.00     0.238 C 
HETATM    8  C   UNL     1     -10.054   3.961 -31.973  1.00  0.00     0.076 C 
HETATM    9  C   UNL     1     -10.888   4.775 -34.184  1.00  0.00     0.072 A 
HETATM   10  C   UNL     1     -12.018   5.558 -34.311  1.00  0.00     0.037 A 
HETATM   11  N   UNL     1     -11.704   6.559 -35.203  1.00  0.00    -0.354 N 
HETATM   12  H   UNL     1     -12.339   7.294 -35.517  1.00  0.00     0.166 HD
HETATM   13  C   UNL     1     -10.444   6.429 -35.630  1.00  0.00     0.181 A 
HETATM   14  N   UNL     1      -9.937   5.351 -35.009  1.00  0.00    -0.352 N 
HETATM   15  H   UNL     1      -8.986   5.026 -35.176  1.00  0.00     0.166 HD
HETATM   16  C   UNL     1     -13.309   5.306 -33.644  1.00  0.00     0.089 C 
HETATM   17  C   UNL     1     -13.099   4.220 -32.557  1.00  0.00     0.280 C 
ENDROOT
BRANCH   1  18
HETATM   18  C   UNL     1     -12.843   2.257 -34.010  1.00  0.00     0.273 C 
BRANCH  18  19
HETATM   19  C   UNL     1     -13.538   0.972 -33.529  1.00  0.00     0.026 C 
HETATM   20  C   UNL     1     -14.866   0.712 -34.227  1.00  0.00     0.007 C 
ENDBRANCH  18  19
ENDBRANCH   1  18
BRANCH   5  21
HETATM   21  C   UNL     1      -7.539   1.913 -31.798  1.00  0.00     0.301 C 
BRANCH  21  22
HETATM   22  C   UNL     1      -6.832   0.887 -32.587  1.00  0.00     0.107 A 
HETATM   23  O   UNL     1      -6.566   1.236 -33.871  1.00  0.00    -0.216 OA
HETATM   24  N   UNL     1      -6.151   0.132 -34.570  1.00  0.00    -0.128 NA
HETATM   25  C   UNL     1      -6.095  -0.882 -33.691  1.00  0.00     0.097 A 
HETATM   26  C   UNL     1      -6.475  -0.425 -32.395  1.00  0.00     0.071 A 
BRANCH  25  27
HETATM   27  C   UNL     1      -5.790  -2.248 -34.099  1.00  0.00    -0.005 A 
HETATM   28  C   UNL     1      -6.794  -3.052 -34.663  1.00  0.00     0.014 A 
HETATM   29  C   UNL     1      -6.536  -4.384 -34.989  1.00  0.00     0.001 A 
HETATM   30  C   UNL     1      -5.272  -4.922 -34.766  1.00  0.00     0.000 A 
HETATM   31  C   UNL     1      -4.262  -4.129 -34.222  1.00  0.00     0.001 A 
HETATM   32  C   UNL     1      -4.519  -2.798 -33.886  1.00  0.00     0.014 A 
ENDBRANCH  25  27
ENDBRANCH  21  22
ENDBRANCH   5  21
TORSDOF 5
ENDMDL
MODEL 3
REMARK VINA RESULT:      -8.3      3.413      8.921
REMARK  5 active torsions:
REMARK  status: ('A' for Active; 'I' for Inactive)
REMARK    1  A    between atoms: C_2  and  C_3 
REMARK    2  A    between atoms: C_3  and  N_4 
REMARK    3  A    between atoms: N_8  and  C_10 
REMARK    4  A    between atoms: C_10  and  C_11 
REMARK    5  A    between atoms: C_14  and  C_15 
ROOT
HETATM    1  N   UNL     1      -6.594   1.177 -32.400  1.00  0.00     0.104 N 
HETATM    2  C   UNL     1      -6.899   2.653 -32.214  1.00  0.00     0.206 C 
HETATM    3  C   UNL     1      -6.170   3.566 -33.229  1.00  0.00     0.076 C 
HETATM    4  C   UNL     1      -4.655   3.432 -33.108  1.00  0.00     0.238 C 
HETATM    5  N   UNL     1      -4.191   3.844 -31.728  1.00  0.00    -0.065 N 
HETATM    6  H   UNL     1      -3.201   3.559 -31.695  1.00  0.00     0.280 HD
HETATM    7  C   UNL     1      -4.882   3.040 -30.655  1.00  0.00     0.238 C 
HETATM    8  C   UNL     1      -6.403   3.112 -30.807  1.00  0.00     0.076 C 
HETATM    9  C   UNL     1      -8.400   2.861 -32.289  1.00  0.00     0.072 A 
HETATM   10  C   UNL     1      -9.331   1.855 -32.120  1.00  0.00     0.037 A 
HETATM   11  N   UNL     1     -10.570   2.441 -32.252  1.00  0.00    -0.354 N 
HETATM   12  H   UNL     1     -11.465   1.955 -32.193  1.00  0.00     0.166 HD
HETATM   13  C   UNL     1     -10.446   3.749 -32.496  1.00  0.00     0.181 A 
HETATM   14  N   UNL     1      -9.130   4.016 -32.512  1.00  0.00    -0.352 N 
HETATM   15  H   UNL     1      -8.767   4.950 -32.693  1.00  0.00     0.166 HD
HETATM   16  C   UNL     1      -9.017   0.432 -31.895  1.00  0.00     0.089 C 
HETATM   17  C   UNL     1      -7.505   0.305 -31.575  1.00  0.00     0.280 C 
ENDROOT
BRANCH   1  18
HETATM   18  C   UNL     1      -6.595   0.717 -33.819  1.00  0.00     0.273 C 
BRANCH  18  19
HETATM   19  C   UNL     1      -5.891  -0.624 -34.086  1.00  0.00     0.026 C 
HETATM   20  C   UNL     1      -6.833  -1.700 -34.609  1.00  0.00     0.007 C 
ENDBRANCH  18  19
ENDBRANCH   1  18
BRANCH   5  21
HETATM   21  C   UNL     1      -4.134   5.349 -31.441  1.00  0.00     0.301 C 
BRANCH  21  22
HETATM   22  C   UNL     1      -2.834   5.783 -30.898  1.00  0.00     0.107 A 
HETATM   23  O   UNL     1      -1.769   5.047 -31.306  1.00  0.00    -0.216 OA
HETATM   24  N   UNL     1      -0.672   5.369 -30.549  1.00  0.00    -0.128 NA
HETATM   25  C   UNL     1      -1.050   6.358 -29.723  1.00  0.00     0.097 A 
HETATM   26  C   UNL     1      -2.418   6.688 -29.952  1.00  0.00     0.071 A 
BRANCH  25  27
HETATM   27  C   UNL     1      -0.167   6.890 -28.692  1.00  0.00    -0.005 A 
HETATM   28  C   UNL     1      -0.254   6.403 -27.377  1.00  0.00     0.014 A 
HETATM   29  C   UNL     1       0.533   6.954 -26.364  1.00  0.00     0.001 A 
HETATM   30  C   UNL     1       1.420   7.987 -26.656  1.00  0.00     0.000 A 
HETATM   31  C   UNL     1       1.526   8.467 -27.962  1.00  0.00     0.001 A 
HETATM   32  C   UNL     1       0.734   7.924 -28.976  1.00  0.00     0.014 A 
ENDBRANCH  25  27
ENDBRANCH  21  22
ENDBRANCH   5  21
TORSDOF 5
ENDMDL
MODEL 4
REMARK VINA RESULT:      -8.2      3.223      8.822
REMARK  5 active torsions:
REMARK  status: ('A' for Active; 'I' for Inactive)
REMARK    1  A    between atoms: C_2  and  C_3 
REMARK    2  A    between atoms: C_3  and  N_4 
REMARK    3  A    between atoms: N_8  and  C_10 
REMARK    4  A    between atoms: C_10  and  C_11 
REMARK    5  A    between atoms: C_14  and  C_15 
ROOT
HETATM    1  N   UNL     1      -6.802   3.330 -31.769  1.00  0.00     0.104 N 
HETATM    2  C   UNL     1      -5.439   2.907 -32.288  1.00  0.00     0.206 C 
HETATM    3  C   UNL     1      -4.281   3.231 -31.313  1.00  0.00     0.076 C 
HETATM    4  C   UNL     1      -4.183   4.730 -31.046  1.00  0.00     0.238 C 
HETATM    5  N   UNL     1      -3.906   5.483 -32.329  1.00  0.00    -0.065 N 
HETATM    6  H   UNL     1      -4.028   6.475 -32.075  1.00  0.00     0.280 HD
HETATM    7  C   UNL     1      -4.959   5.197 -33.370  1.00  0.00     0.238 C 
HETATM    8  C   UNL     1      -5.115   3.692 -33.597  1.00  0.00     0.076 C 
HETATM    9  C   UNL     1      -5.469   1.424 -32.608  1.00  0.00     0.072 A 
HETATM   10  C   UNL     1      -6.627   0.699 -32.806  1.00  0.00     0.037 A 
HETATM   11  N   UNL     1      -6.238  -0.594 -33.079  1.00  0.00    -0.354 N 
HETATM   12  H   UNL     1      -6.867  -1.377 -33.258  1.00  0.00     0.166 HD
HETATM   13  C   UNL     1      -4.906  -0.697 -33.055  1.00  0.00     0.181 A 
HETATM   14  N   UNL     1      -4.429   0.527 -32.778  1.00  0.00    -0.352 N 
HETATM   15  H   UNL     1      -3.432   0.714 -32.689  1.00  0.00     0.166 HD
HETATM   16  C   UNL     1      -7.997   1.231 -32.688  1.00  0.00     0.089 C 
HETATM   17  C   UNL     1      -7.921   2.777 -32.613  1.00  0.00     0.280 C 
ENDROOT
BRANCH   1  18
HETATM   18  C   UNL     1      -7.044   3.016 -30.332  1.00  0.00     0.273 C 
BRANCH  18  19
HETATM   19  C   UNL     1      -7.915   4.026 -29.566  1.00  0.00     0.026 C 
HETATM   20  C   UNL     1      -7.100   5.038 -28.772  1.00  0.00     0.007 C 
ENDBRANCH  18  19
ENDBRANCH   1  18
BRANCH   5  21
HETATM   21  C   UNL     1      -2.470   5.430 -32.863  1.00  0.00     0.301 C 
BRANCH  21  22
HETATM   22  C   UNL     1      -1.457   5.660 -31.817  1.00  0.00     0.107 A 
HETATM   23  O   UNL     1      -0.761   4.556 -31.442  1.00  0.00    -0.216 OA
HETATM   24  N   UNL     1      -0.047   4.829 -30.304  1.00  0.00    -0.128 NA
HETATM   25  C   UNL     1      -0.250   6.127 -30.024  1.00  0.00     0.097 A 
HETATM   26  C   UNL     1      -1.108   6.709 -31.002  1.00  0.00     0.071 A 
BRANCH  25  27
HETATM   27  C   UNL     1       0.274   6.751 -28.815  1.00  0.00    -0.005 A 
HETATM   28  C   UNL     1      -0.067   6.234 -27.554  1.00  0.00     0.014 A 
HETATM   29  C   UNL     1       0.366   6.865 -26.388  1.00  0.00     0.001 A 
HETATM   30  C   UNL     1       1.152   8.012 -26.468  1.00  0.00     0.000 A 
HETATM   31  C   UNL     1       1.511   8.525 -27.714  1.00  0.00     0.001 A 
HETATM   32  C   UNL     1       1.072   7.901 -28.884  1.00  0.00     0.014 A 
ENDBRANCH  25  27
ENDBRANCH  21  22
ENDBRANCH   5  21
TORSDOF 5
ENDMDL
MODEL 5
REMARK VINA RESULT:      -8.2      4.091      6.824
REMARK  5 active torsions:
REMARK  status: ('A' for Active; 'I' for Inactive)
REMARK    1  A    between atoms: C_2  and  C_3 
REMARK    2  A    between atoms: C_3  and  N_4 
REMARK    3  A    between atoms: N_8  and  C_10 
REMARK    4  A    between atoms: C_10  and  C_11 
REMARK    5  A    between atoms: C_14  and  C_15 
ROOT
HETATM    1  N   UNL     1     -10.772   4.382 -34.224  1.00  0.00     0.104 N 
HETATM    2  C   UNL     1     -10.643   3.129 -33.376  1.00  0.00     0.206 C 
HETATM    3  C   UNL     1     -10.631   3.413 -31.854  1.00  0.00     0.076 C 
HETATM    4  C   UNL     1      -9.456   4.306 -31.466  1.00  0.00     0.238 C 
HETATM    5  N   UNL     1      -8.142   3.636 -31.803  1.00  0.00    -0.065 N 
HETATM    6  H   UNL     1      -7.435   4.374 -31.665  1.00  0.00     0.280 HD
HETATM    7  C   UNL     1      -8.071   3.272 -33.265  1.00  0.00     0.238 C 
HETATM    8  C   UNL     1      -9.280   2.433 -33.683  1.00  0.00     0.076 C 
HETATM    9  C   UNL     1     -11.765   2.172 -33.733  1.00  0.00     0.072 A 
HETATM   10  C   UNL     1     -12.497   2.239 -34.902  1.00  0.00     0.037 A 
HETATM   11  N   UNL     1     -13.405   1.205 -34.855  1.00  0.00    -0.354 N 
HETATM   12  H   UNL     1     -14.102   0.995 -35.571  1.00  0.00     0.166 HD
HETATM   13  C   UNL     1     -13.270   0.512 -33.720  1.00  0.00     0.181 A 
HETATM   14  N   UNL     1     -12.269   1.088 -33.034  1.00  0.00    -0.352 N 
HETATM   15  H   UNL     1     -11.975   0.754 -32.119  1.00  0.00     0.166 HD
HETATM   16  C   UNL     1     -12.341   3.266 -35.948  1.00  0.00     0.089 C 
HETATM   17  C   UNL     1     -11.037   4.057 -35.672  1.00  0.00     0.280 C 
ENDROOT
BRANCH   1  18
HETATM   18  C   UNL     1     -11.778   5.365 -33.729  1.00  0.00     0.273 C 
BRANCH  18  19
HETATM   19  C   UNL     1     -11.394   6.847 -33.882  1.00  0.00     0.026 C 
HETATM   20  C   UNL     1      -9.918   7.114 -33.620  1.00  0.00     0.007 C 
ENDBRANCH  18  19
ENDBRANCH   1  18
BRANCH   5  21
HETATM   21  C   UNL     1      -7.675   2.521 -30.860  1.00  0.00     0.301 C 
BRANCH  21  22
HETATM   22  C   UNL     1      -6.878   1.485 -31.542  1.00  0.00     0.107 A 
HETATM   23  O   UNL     1      -5.746   1.934 -32.139  1.00  0.00    -0.216 OA
HETATM   24  N   UNL     1      -5.233   0.953 -32.947  1.00  0.00    -0.128 NA
HETATM   25  C   UNL     1      -6.016  -0.127 -32.786  1.00  0.00     0.097 A 
HETATM   26  C   UNL     1      -7.054   0.158 -31.852  1.00  0.00     0.071 A 
BRANCH  25  27
HETATM   27  C   UNL     1      -5.835  -1.341 -33.573  1.00  0.00    -0.005 A 
HETATM   28  C   UNL     1      -6.952  -2.001 -34.111  1.00  0.00     0.014 A 
HETATM   29  C   UNL     1      -6.800  -3.203 -34.802  1.00  0.00     0.001 A 
HETATM   30  C   UNL     1      -5.533  -3.753 -34.972  1.00  0.00     0.000 A 
HETATM   31  C   UNL     1      -4.414  -3.099 -34.456  1.00  0.00     0.001 A 
HETATM   32  C   UNL     1      -4.563  -1.899 -33.756  1.00  0.00     0.014 A 
ENDBRANCH  25  27
ENDBRANCH  21  22
ENDBRANCH   5  21
TORSDOF 5
ENDMDL
MODEL 6
REMARK VINA RESULT:      -8.1      1.563      3.672
REMARK  5 active torsions:
REMARK  status: ('A' for Active; 'I' for Inactive)
REMARK    1  A    between atoms: C_2  and  C_3 
REMARK    2  A    between atoms: C_3  and  N_4 
REMARK    3  A    between atoms: N_8  and  C_10 
REMARK    4  A    between atoms: C_10  and  C_11 
REMARK    5  A    between atoms: C_14  and  C_15 
ROOT
HETATM    1  N   UNL     1      -3.787   5.338 -30.850  1.00  0.00     0.104 N 
HETATM    2  C   UNL     1      -4.636   4.641 -31.898  1.00  0.00     0.206 C 
HETATM    3  C   UNL     1      -6.141   4.991 -31.802  1.00  0.00     0.076 C 
HETATM    4  C   UNL     1      -6.721   4.582 -30.451  1.00  0.00     0.238 C 
HETATM    5  N   UNL     1      -6.599   3.088 -30.247  1.00  0.00    -0.065 N 
HETATM    6  H   UNL     1      -6.855   2.943 -29.259  1.00  0.00     0.280 HD
HETATM    7  C   UNL     1      -5.166   2.634 -30.368  1.00  0.00     0.238 C 
HETATM    8  C   UNL     1      -4.551   3.097 -31.690  1.00  0.00     0.076 C 
HETATM    9  C   UNL     1      -4.095   4.975 -33.275  1.00  0.00     0.072 A 
HETATM   10  C   UNL     1      -2.823   5.457 -33.512  1.00  0.00     0.037 A 
HETATM   11  N   UNL     1      -2.715   5.625 -34.874  1.00  0.00    -0.354 N 
HETATM   12  H   UNL     1      -1.894   5.982 -35.364  1.00  0.00     0.166 HD
HETATM   13  C   UNL     1      -3.853   5.275 -35.482  1.00  0.00     0.181 A 
HETATM   14  N   UNL     1      -4.696   4.870 -34.518  1.00  0.00    -0.352 N 
HETATM   15  H   UNL     1      -5.645   4.562 -34.721  1.00  0.00     0.166 HD
HETATM   16  C   UNL     1      -1.823   5.768 -32.474  1.00  0.00     0.089 C 
HETATM   17  C   UNL     1      -2.313   5.182 -31.125  1.00  0.00     0.280 C 
ENDROOT
BRANCH   1  18
HETATM   18  C   UNL     1      -4.116   6.777 -30.639  1.00  0.00     0.273 C 
BRANCH  18  19
HETATM   19  C   UNL     1      -3.801   7.337 -29.242  1.00  0.00     0.026 C 
HETATM   20  C   UNL     1      -4.657   6.722 -28.143  1.00  0.00     0.007 C 
ENDBRANCH  18  19
ENDBRANCH   1  18
BRANCH   5  21
HETATM   21  C   UNL     1      -7.599   2.205 -31.003  1.00  0.00     0.301 C 
BRANCH  21  22
HETATM   22  C   UNL     1      -6.951   1.288 -31.958  1.00  0.00     0.107 A 
HETATM   23  O   UNL     1      -6.824   1.772 -33.219  1.00  0.00    -0.216 OA
HETATM   24  N   UNL     1      -6.455   0.757 -34.064  1.00  0.00    -0.128 NA
HETATM   25  C   UNL     1      -6.285  -0.337 -33.303  1.00  0.00     0.097 A 
HETATM   26  C   UNL     1      -6.544  -0.024 -31.936  1.00  0.00     0.071 A 
BRANCH  25  27
HETATM   27  C   UNL     1      -5.989  -1.644 -33.876  1.00  0.00    -0.005 A 
HETATM   28  C   UNL     1      -7.033  -2.450 -34.360  1.00  0.00     0.014 A 
HETATM   29  C   UNL     1      -6.773  -3.733 -34.842  1.00  0.00     0.001 A 
HETATM   30  C   UNL     1      -5.468  -4.220 -34.857  1.00  0.00     0.000 A 
HETATM   31  C   UNL     1      -4.422  -3.422 -34.395  1.00  0.00     0.001 A 
HETATM   32  C   UNL     1      -4.679  -2.141 -33.903  1.00  0.00     0.014 A 
ENDBRANCH  25  27
ENDBRANCH  21  22
ENDBRANCH   5  21
TORSDOF 5
ENDMDL
MODEL 7
REMARK VINA RESULT:      -8.0      5.106      8.103
REMARK  5 active torsions:
REMARK  status: ('A' for Active; 'I' for Inactive)
REMARK    1  A    between atoms: C_2  and  C_3 
REMARK    2  A    between atoms: C_3  and  N_4 
REMARK    3  A    between atoms: N_8  and  C_10 
REMARK    4  A    between atoms: C_10  and  C_11 
REMARK    5  A    between atoms: C_14  and  C_15 
ROOT
HETATM    1  N   UNL     1      -5.359   1.430 -31.868  1.00  0.00     0.104 N 
HETATM    2  C   UNL     1      -6.166   0.668 -32.904  1.00  0.00     0.206 C 
HETATM    3  C   UNL     1      -6.471   1.495 -34.177  1.00  0.00     0.076 C 
HETATM    4  C   UNL     1      -7.282   2.744 -33.847  1.00  0.00     0.238 C 
HETATM    5  N   UNL     1      -8.613   2.369 -33.233  1.00  0.00    -0.065 N 
HETATM    6  H   UNL     1      -9.001   3.263 -32.896  1.00  0.00     0.280 HD
HETATM    7  C   UNL     1      -8.428   1.516 -32.003  1.00  0.00     0.238 C 
HETATM    8  C   UNL     1      -7.558   0.295 -32.305  1.00  0.00     0.076 C 
HETATM    9  C   UNL     1      -5.433  -0.611 -33.260  1.00  0.00     0.072 A 
HETATM   10  C   UNL     1      -4.450  -1.184 -32.477  1.00  0.00     0.037 A 
HETATM   11  N   UNL     1      -4.043  -2.325 -33.131  1.00  0.00    -0.354 N 
HETATM   12  H   UNL     1      -3.314  -2.963 -32.811  1.00  0.00     0.166 HD
HETATM   13  C   UNL     1      -4.721  -2.478 -34.272  1.00  0.00     0.181 A 
HETATM   14  N   UNL     1      -5.575  -1.446 -34.355  1.00  0.00    -0.352 N 
HETATM   15  H   UNL     1      -6.203  -1.322 -35.147  1.00  0.00     0.166 HD
HETATM   16  C   UNL     1      -3.929  -0.622 -31.217  1.00  0.00     0.089 C 
HETATM   17  C   UNL     1      -4.865   0.529 -30.766  1.00  0.00     0.280 C 
ENDROOT
BRANCH   1  18
HETATM   18  C   UNL     1      -4.227   2.225 -32.424  1.00  0.00     0.273 C 
BRANCH  18  19
HETATM   19  C   UNL     1      -3.591   3.245 -31.464  1.00  0.00     0.026 C 
HETATM   20  C   UNL     1      -2.518   4.100 -32.124  1.00  0.00     0.007 C 
ENDBRANCH  18  19
ENDBRANCH   1  18
BRANCH   5  21
HETATM   21  C   UNL     1      -9.694   1.855 -34.191  1.00  0.00     0.301 C 
BRANCH  21  22
HETATM   22  C   UNL     1     -11.042   1.854 -33.593  1.00  0.00     0.107 A 
HETATM   23  O   UNL     1     -11.742   0.704 -33.763  1.00  0.00    -0.216 OA
HETATM   24  N   UNL     1     -13.050   0.906 -33.403  1.00  0.00    -0.128 NA
HETATM   25  C   UNL     1     -13.132   2.165 -32.942  1.00  0.00     0.097 A 
HETATM   26  C   UNL     1     -11.853   2.790 -32.999  1.00  0.00     0.071 A 
BRANCH  25  27
HETATM   27  C   UNL     1     -14.403   2.770 -32.561  1.00  0.00    -0.005 A 
HETATM   28  C   UNL     1     -15.572   1.993 -32.543  1.00  0.00     0.014 A 
HETATM   29  C   UNL     1     -16.806   2.576 -32.254  1.00  0.00     0.001 A 
HETATM   30  C   UNL     1     -16.884   3.937 -31.969  1.00  0.00     0.000 A 
HETATM   31  C   UNL     1     -15.727   4.715 -31.968  1.00  0.00     0.001 A 
HETATM   32  C   UNL     1     -14.491   4.137 -32.266  1.00  0.00     0.014 A 
ENDBRANCH  25  27
ENDBRANCH  21  22
ENDBRANCH   5  21
TORSDOF 5
ENDMDL
MODEL 8
REMARK VINA RESULT:      -7.8      5.548      6.884
REMARK  5 active torsions:
REMARK  status: ('A' for Active; 'I' for Inactive)
REMARK    1  A    between atoms: C_2  and  C_3 
REMARK    2  A    between atoms: C_3  and  N_4 
REMARK    3  A    between atoms: N_8  and  C_10 
REMARK    4  A    between atoms: C_10  and  C_11 
REMARK    5  A    between atoms: C_14  and  C_15 
ROOT
HETATM    1  N   UNL     1     -11.974   5.562 -34.927  1.00  0.00     0.104 N 
HETATM    2  C   UNL     1     -11.965   4.618 -33.738  1.00  0.00     0.206 C 
HETATM    3  C   UNL     1     -10.556   4.401 -33.135  1.00  0.00     0.076 C 
HETATM    4  C   UNL     1      -9.601   3.796 -34.159  1.00  0.00     0.238 C 
HETATM    5  N   UNL     1     -10.100   2.443 -34.620  1.00  0.00    -0.065 N 
HETATM    6  H   UNL     1      -9.492   2.204 -35.417  1.00  0.00     0.280 HD
HETATM    7  C   UNL     1     -11.495   2.537 -35.185  1.00  0.00     0.238 C 
HETATM    8  C   UNL     1     -12.448   3.206 -34.192  1.00  0.00     0.076 C 
HETATM    9  C   UNL     1     -12.923   5.141 -32.684  1.00  0.00     0.072 A 
HETATM   10  C   UNL     1     -13.930   6.051 -32.936  1.00  0.00     0.037 A 
HETATM   11  N   UNL     1     -14.577   6.263 -31.739  1.00  0.00    -0.354 N 
HETATM   12  H   UNL     1     -15.362   6.898 -31.593  1.00  0.00     0.166 HD
HETATM   13  C   UNL     1     -14.017   5.534 -30.768  1.00  0.00     0.181 A 
HETATM   14  N   UNL     1     -13.016   4.841 -31.335  1.00  0.00    -0.352 N 
HETATM   15  H   UNL     1     -12.417   4.215 -30.800  1.00  0.00     0.166 HD
HETATM   16  C   UNL     1     -14.196   6.689 -34.239  1.00  0.00     0.089 C 
HETATM   17  C   UNL     1     -13.375   5.951 -35.326  1.00  0.00     0.280 C 
ENDROOT
BRANCH   1  18
HETATM   18  C   UNL     1     -11.135   6.783 -34.758  1.00  0.00     0.273 C 
BRANCH  18  19
HETATM   19  C   UNL     1     -10.400   7.268 -36.019  1.00  0.00     0.026 C 
HETATM   20  C   UNL     1     -10.960   8.572 -36.573  1.00  0.00     0.007 C 
ENDBRANCH  18  19
ENDBRANCH   1  18
BRANCH   5  21
HETATM   21  C   UNL     1      -9.895   1.269 -33.656  1.00  0.00     0.301 C 
BRANCH  21  22
HETATM   22  C   UNL     1      -8.677   0.491 -33.946  1.00  0.00     0.107 A 
HETATM   23  O   UNL     1      -8.001   0.880 -35.056  1.00  0.00    -0.216 OA
HETATM   24  N   UNL     1      -7.052  -0.060 -35.368  1.00  0.00    -0.128 NA
HETATM   25  C   UNL     1      -7.100  -0.991 -34.402  1.00  0.00     0.097 A 
HETATM   26  C   UNL     1      -8.096  -0.647 -33.442  1.00  0.00     0.071 A 
BRANCH  25  27
HETATM   27  C   UNL     1      -6.298  -2.208 -34.455  1.00  0.00    -0.005 A 
HETATM   28  C   UNL     1      -6.898  -3.428 -34.804  1.00  0.00     0.014 A 
HETATM   29  C   UNL     1      -6.159  -4.612 -34.787  1.00  0.00     0.001 A 
HETATM   30  C   UNL     1      -4.813  -4.587 -34.432  1.00  0.00     0.000 A 
HETATM   31  C   UNL     1      -4.202  -3.378 -34.099  1.00  0.00     0.001 A 
HETATM   32  C   UNL     1      -4.941  -2.193 -34.107  1.00  0.00     0.014 A 
ENDBRANCH  25  27
ENDBRANCH  21  22
ENDBRANCH   5  21
TORSDOF 5
ENDMDL
MODEL 9
REMARK VINA RESULT:      -7.5      4.863      8.096
REMARK  5 active torsions:
REMARK  status: ('A' for Active; 'I' for Inactive)
REMARK    1  A    between atoms: C_2  and  C_3 
REMARK    2  A    between atoms: C_3  and  N_4 
REMARK    3  A    between atoms: N_8  and  C_10 
REMARK    4  A    between atoms: C_10  and  C_11 
REMARK    5  A    between atoms: C_14  and  C_15 
ROOT
HETATM    1  N   UNL     1      -6.934   0.963 -33.070  1.00  0.00     0.104 N 
HETATM    2  C   UNL     1      -8.087   1.615 -32.328  1.00  0.00     0.206 C 
HETATM    3  C   UNL     1      -9.138   0.603 -31.811  1.00  0.00     0.076 C 
HETATM    4  C   UNL     1      -9.766  -0.181 -32.961  1.00  0.00     0.238 C 
HETATM    5  N   UNL     1     -10.480   0.752 -33.914  1.00  0.00    -0.065 N 
HETATM    6  H   UNL     1     -10.715   0.159 -34.725  1.00  0.00     0.280 HD
HETATM    7  C   UNL     1      -9.549   1.814 -34.443  1.00  0.00     0.238 C 
HETATM    8  C   UNL     1      -8.860   2.561 -33.299  1.00  0.00     0.076 C 
HETATM    9  C   UNL     1      -7.535   2.444 -31.184  1.00  0.00     0.072 A 
HETATM   10  C   UNL     1      -6.225   2.874 -31.101  1.00  0.00     0.037 A 
HETATM   11  N   UNL     1      -6.122   3.595 -29.933  1.00  0.00    -0.354 N 
HETATM   12  H   UNL     1      -5.272   4.035 -29.580  1.00  0.00     0.166 HD
HETATM   13  C   UNL     1      -7.297   3.626 -29.296  1.00  0.00     0.181 A 
HETATM   14  N   UNL     1      -8.165   2.936 -30.053  1.00  0.00    -0.352 N 
HETATM   15  H   UNL     1      -9.136   2.797 -29.779  1.00  0.00     0.166 HD
HETATM   16  C   UNL     1      -5.161   2.557 -32.071  1.00  0.00     0.089 C 
HETATM   17  C   UNL     1      -5.813   1.935 -33.333  1.00  0.00     0.280 C 
ENDROOT
BRANCH   1  18
HETATM   18  C   UNL     1      -6.399  -0.270 -32.425  1.00  0.00     0.273 C 
BRANCH  18  19
HETATM   19  C   UNL     1      -5.854  -1.342 -33.383  1.00  0.00     0.026 C 
HETATM   20  C   UNL     1      -6.733  -1.553 -34.609  1.00  0.00     0.007 C 
ENDBRANCH  18  19
ENDBRANCH   1  18
BRANCH   5  21
HETATM   21  C   UNL     1     -11.844   1.287 -33.464  1.00  0.00     0.301 C 
BRANCH  21  22
HETATM   22  C   UNL     1     -12.292   2.455 -34.244  1.00  0.00     0.107 A 
HETATM   23  O   UNL     1     -12.619   2.189 -35.534  1.00  0.00    -0.216 OA
HETATM   24  N   UNL     1     -12.765   3.367 -36.222  1.00  0.00    -0.128 NA
HETATM   25  C   UNL     1     -12.599   4.357 -35.329  1.00  0.00     0.097 A 
HETATM   26  C   UNL     1     -12.345   3.812 -34.037  1.00  0.00     0.071 A 
BRANCH  25  27
HETATM   27  C   UNL     1     -12.583   5.761 -35.722  1.00  0.00    -0.005 A 
HETATM   28  C   UNL     1     -13.683   6.312 -36.400  1.00  0.00     0.014 A 
HETATM   29  C   UNL     1     -13.650   7.634 -36.847  1.00  0.00     0.001 A 
HETATM   30  C   UNL     1     -12.526   8.421 -36.612  1.00  0.00     0.000 A 
HETATM   31  C   UNL     1     -11.435   7.889 -35.925  1.00  0.00     0.001 A 
HETATM   32  C   UNL     1     -11.460   6.564 -35.484  1.00  0.00     0.014 A 
ENDBRANCH  25  27
ENDBRANCH  21  22
ENDBRANCH   5  21
TORSDOF 5
ENDMDL
MODEL 10
REMARK VINA RESULT:      -7.4      3.223      5.842
REMARK  5 active torsions:
REMARK  status: ('A' for Active; 'I' for Inactive)
REMARK    1  A    between atoms: C_2  and  C_3 
REMARK    2  A    between atoms: C_3  and  N_4 
REMARK    3  A    between atoms: N_8  and  C_10 
REMARK    4  A    between atoms: C_10  and  C_11 
REMARK    5  A    between atoms: C_14  and  C_15 
ROOT
HETATM    1  N   UNL     1     -10.032   4.282 -32.665  1.00  0.00     0.104 N 
HETATM    2  C   UNL     1      -9.092   3.092 -32.578  1.00  0.00     0.206 C 
HETATM    3  C   UNL     1      -8.261   3.058 -31.272  1.00  0.00     0.076 C 
HETATM    4  C   UNL     1      -7.383   4.299 -31.141  1.00  0.00     0.238 C 
HETATM    5  N   UNL     1      -6.402   4.383 -32.289  1.00  0.00    -0.065 N 
HETATM    6  H   UNL     1      -5.984   5.322 -32.202  1.00  0.00     0.280 HD
HETATM    7  C   UNL     1      -7.112   4.374 -33.619  1.00  0.00     0.238 C 
HETATM    8  C   UNL     1      -8.049   3.170 -33.736  1.00  0.00     0.076 C 
HETATM    9  C   UNL     1      -9.894   1.814 -32.735  1.00  0.00     0.072 A 
HETATM   10  C   UNL     1     -11.159   1.757 -33.287  1.00  0.00     0.037 A 
HETATM   11  N   UNL     1     -11.539   0.434 -33.259  1.00  0.00    -0.354 N 
HETATM   12  H   UNL     1     -12.434   0.067 -33.586  1.00  0.00     0.166 HD
HETATM   13  C   UNL     1     -10.577  -0.319 -32.717  1.00  0.00     0.181 A 
HETATM   14  N   UNL     1      -9.569   0.510 -32.404  1.00  0.00    -0.352 N 
HETATM   15  H   UNL     1      -8.713   0.182 -31.959  1.00  0.00     0.166 HD
HETATM   16  C   UNL     1     -11.938   2.918 -33.755  1.00  0.00     0.089 C 
HETATM   17  C   UNL     1     -11.000   4.151 -33.813  1.00  0.00     0.280 C 
ENDROOT
BRANCH   1  18
HETATM   18  C   UNL     1     -10.772   4.582 -31.406  1.00  0.00     0.273 C 
BRANCH  18  19
HETATM   19  C   UNL     1     -10.505   5.964 -30.788  1.00  0.00     0.026 C 
HETATM   20  C   UNL     1     -10.077   7.006 -31.812  1.00  0.00     0.007 C 
ENDBRANCH  18  19
ENDBRANCH   1  18
BRANCH   5  21
HETATM   21  C   UNL     1      -5.186   3.450 -32.225  1.00  0.00     0.301 C 
BRANCH  21  22
HETATM   22  C   UNL     1      -5.540   2.029 -32.391  1.00  0.00     0.107 A 
HETATM   23  O   UNL     1      -5.592   1.315 -31.238  1.00  0.00    -0.216 OA
HETATM   24  N   UNL     1      -5.670  -0.023 -31.531  1.00  0.00    -0.128 NA
HETATM   25  C   UNL     1      -5.740  -0.121 -32.869  1.00  0.00     0.097 A 
HETATM   26  C   UNL     1      -5.711   1.178 -33.455  1.00  0.00     0.071 A 
BRANCH  25  27
HETATM   27  C   UNL     1      -5.730  -1.408 -33.554  1.00  0.00    -0.005 A 
HETATM   28  C   UNL     1      -4.509  -2.051 -33.819  1.00  0.00     0.014 A 
HETATM   29  C   UNL     1      -4.480  -3.245 -34.540  1.00  0.00     0.001 A 
HETATM   30  C   UNL     1      -5.667  -3.815 -34.993  1.00  0.00     0.000 A 
HETATM   31  C   UNL     1      -6.886  -3.194 -34.721  1.00  0.00     0.001 A 
HETATM   32  C   UNL     1      -6.919  -1.993 -34.008  1.00  0.00     0.014 A 
ENDBRANCH  25  27
ENDBRANCH  21  22
ENDBRANCH   5  21
TORSDOF 5
ENDMDL
