MODEL 1
REMARK VINA RESULT:      -8.8      0.000      0.000
REMARK  6 active torsions:
REMARK  status: ('A' for Active; 'I' for Inactive)
REMARK    1  A    between atoms: C_9  and  C_10 
REMARK    2  A    between atoms: C_10  and  N_11 
REMARK       I    between atoms: N_11  and  C_12 
REMARK    3  A    between atoms: N_11  and  C_22 
REMARK    4  A    between atoms: C_12  and  C_13 
REMARK    5  A    between atoms: C_16  and  O_17 
REMARK    6  A    between atoms: C_22  and  C_23 
ROOT
HETATM    1  N   UNL     1      -6.993   1.080 -33.580  1.00  0.00    -0.341 N 
HETATM    2  C   UNL     1      -6.841   0.309 -34.735  1.00  0.00     0.254 C 
HETATM    3  O   UNL     1      -7.099   0.721 -35.864  1.00  0.00    -0.267 OA
ENDROOT
BRANCH   1   4
HETATM    4  C   UNL     1      -7.513   2.447 -33.745  1.00  0.00     0.170 C 
BRANCH   4   5
HETATM    5  C   UNL     1      -8.995   2.581 -33.503  1.00  0.00     0.029 A 
HETATM    6  C   UNL     1      -9.342   3.674 -32.536  1.00  0.00     0.253 A 
HETATM    7  N   UNL     1     -10.666   3.868 -32.251  1.00  0.00    -0.322 N 
HETATM    8  O   UNL     1      -8.482   4.372 -32.006  1.00  0.00    -0.268 OA
HETATM    9  C   UNL     1     -11.696   3.082 -32.776  1.00  0.00     0.045 A 
HETATM   10  H   UNL     1     -10.870   4.606 -31.593  1.00  0.00     0.169 HD
HETATM   11  C   UNL     1     -11.381   2.053 -33.667  1.00  0.00    -0.008 A 
HETATM   12  C   UNL     1     -13.015   3.321 -32.394  1.00  0.00     0.031 A 
HETATM   13  C   UNL     1     -12.407   1.242 -34.165  1.00  0.00     0.020 A 
HETATM   14  C   UNL     1      -9.982   1.837 -34.037  1.00  0.00     0.028 A 
HETATM   15  C   UNL     1     -13.737   1.454 -33.769  1.00  0.00    -0.061 A 
HETATM   16  C   UNL     1     -14.841   0.589 -34.305  1.00  0.00     0.048 C 
HETATM   17  C   UNL     1     -14.033   2.509 -32.895  1.00  0.00     0.009 A 
ENDBRANCH   4   5
ENDBRANCH   1   4
BRANCH   1  18
HETATM   18  C   UNL     1      -7.024   0.534 -32.210  1.00  0.00     0.158 C 
BRANCH  18  19
HETATM   19  C   UNL     1      -5.768   0.856 -31.390  1.00  0.00     0.139 C 
HETATM   20  O   UNL     1      -5.050  -0.334 -31.022  1.00  0.00    -0.384 OA
HETATM   21  C   UNL     1      -3.644  -0.046 -31.036  1.00  0.00     0.168 C 
HETATM   22  C   UNL     1      -3.489   1.414 -31.413  1.00  0.00     0.029 C 
HETATM   23  C   UNL     1      -4.764   1.691 -32.169  1.00  0.00     0.035 C 
ENDBRANCH  18  19
ENDBRANCH   1  18
BRANCH   2  24
HETATM   24  C   UNL     1      -6.330  -1.078 -34.632  1.00  0.00     0.032 A 
HETATM   25  C   UNL     1      -4.979  -1.268 -34.333  1.00  0.00     0.020 A 
HETATM   26  C   UNL     1      -4.476  -2.563 -34.199  1.00  0.00     0.038 A 
HETATM   27  C   UNL     1      -5.312  -3.673 -34.349  1.00  0.00     0.068 A 
HETATM   28  C   UNL     1      -6.669  -3.478 -34.619  1.00  0.00     0.038 A 
HETATM   29  C   UNL     1      -7.182  -2.180 -34.747  1.00  0.00     0.020 A 
BRANCH  27  30
HETATM   30  O   UNL     1      -4.687  -4.880 -34.197  1.00  0.00    -0.356 OA
HETATM   31  C   UNL     1      -3.370  -4.864 -33.663  1.00  0.00     0.210 C 
ENDBRANCH  27  30
ENDBRANCH   2  24
TORSDOF 6
ENDMDL
MODEL 2
REMARK VINA RESULT:      -8.7      2.246      7.566
REMARK  6 active torsions:
REMARK  status: ('A' for Active; 'I' for Inactive)
REMARK    1  A    between atoms: C_9  and  C_10 
REMARK    2  A    between atoms: C_10  and  N_11 
REMARK       I    between atoms: N_11  and  C_12 
REMARK    3  A    between atoms: N_11  and  C_22 
REMARK    4  A    between atoms: C_12  and  C_13 
REMARK    5  A    between atoms: C_16  and  O_17 
REMARK    6  A    between atoms: C_22  and  C_23 
ROOT
HETATM    1  N   UNL     1      -9.375   2.077 -32.928  1.00  0.00    -0.341 N 
HETATM    2  C   UNL     1     -10.346   2.466 -33.854  1.00  0.00     0.254 C 
HETATM    3  O   UNL     1     -10.083   3.028 -34.916  1.00  0.00    -0.267 OA
ENDROOT
BRANCH   1   4
HETATM    4  C   UNL     1      -7.973   2.387 -33.248  1.00  0.00     0.170 C 
BRANCH   4   5
HETATM    5  C   UNL     1      -7.093   1.175 -33.418  1.00  0.00     0.029 A 
HETATM    6  C   UNL     1      -5.680   1.401 -32.968  1.00  0.00     0.253 A 
HETATM    7  N   UNL     1      -4.804   0.356 -33.089  1.00  0.00    -0.322 N 
HETATM    8  O   UNL     1      -5.305   2.478 -32.515  1.00  0.00    -0.268 OA
HETATM    9  C   UNL     1      -5.145  -0.882 -33.642  1.00  0.00     0.045 A 
HETATM   10  H   UNL     1      -3.859   0.537 -32.784  1.00  0.00     0.169 HD
HETATM   11  C   UNL     1      -6.456  -1.096 -34.076  1.00  0.00    -0.008 A 
HETATM   12  C   UNL     1      -4.176  -1.876 -33.769  1.00  0.00     0.031 A 
HETATM   13  C   UNL     1      -6.790  -2.322 -34.662  1.00  0.00     0.020 A 
HETATM   14  C   UNL     1      -7.439  -0.023 -33.925  1.00  0.00     0.028 A 
HETATM   15  C   UNL     1      -5.818  -3.323 -34.822  1.00  0.00    -0.061 A 
HETATM   16  C   UNL     1      -6.174  -4.641 -35.446  1.00  0.00     0.048 C 
HETATM   17  C   UNL     1      -4.516  -3.096 -34.354  1.00  0.00     0.009 A 
ENDBRANCH   4   5
ENDBRANCH   1   4
BRANCH   1  18
HETATM   18  C   UNL     1      -9.658   1.720 -31.524  1.00  0.00     0.158 C 
BRANCH  18  19
HETATM   19  C   UNL     1      -9.382   2.857 -30.532  1.00  0.00     0.139 C 
HETATM   20  O   UNL     1      -7.993   2.921 -30.166  1.00  0.00    -0.384 OA
HETATM   21  C   UNL     1      -7.628   4.297 -29.983  1.00  0.00     0.168 C 
HETATM   22  C   UNL     1      -8.872   5.127 -30.228  1.00  0.00     0.029 C 
HETATM   23  C   UNL     1      -9.694   4.226 -31.115  1.00  0.00     0.035 C 
ENDBRANCH  18  19
ENDBRANCH   1  18
BRANCH   2  24
HETATM   24  C   UNL     1     -11.776   2.190 -33.583  1.00  0.00     0.032 A 
HETATM   25  C   UNL     1     -12.591   3.247 -33.173  1.00  0.00     0.020 A 
HETATM   26  C   UNL     1     -13.949   3.024 -32.940  1.00  0.00     0.038 A 
HETATM   27  C   UNL     1     -14.505   1.756 -33.125  1.00  0.00     0.068 A 
HETATM   28  C   UNL     1     -13.693   0.708 -33.565  1.00  0.00     0.038 A 
HETATM   29  C   UNL     1     -12.331   0.927 -33.807  1.00  0.00     0.020 A 
BRANCH  27  30
HETATM   30  O   UNL     1     -15.844   1.679 -32.857  1.00  0.00    -0.356 OA
HETATM   31  C   UNL     1     -16.402   2.700 -32.041  1.00  0.00     0.210 C 
ENDBRANCH  27  30
ENDBRANCH   2  24
TORSDOF 6
ENDMDL
MODEL 3
REMARK VINA RESULT:      -8.3      2.660      8.496
REMARK  6 active torsions:
REMARK  status: ('A' for Active; 'I' for Inactive)
REMARK    1  A    between atoms: C_9  and  C_10 
REMARK    2  A    between atoms: C_10  and  N_11 
REMARK       I    between atoms: N_11  and  C_12 
REMARK    3  A    between atoms: N_11  and  C_22 
REMARK    4  A    between atoms: C_12  and  C_13 
REMARK    5  A    between atoms: C_16  and  O_17 
REMARK    6  A    between atoms: C_22  and  C_23 
ROOT
HETATM    1  N   UNL     1      -9.621   2.458 -32.937  1.00  0.00    -0.341 N 
HETATM    2  C   UNL     1      -9.671   3.820 -32.632  1.00  0.00     0.254 C 
HETATM    3  O   UNL     1      -9.217   4.300 -31.595  1.00  0.00    -0.267 OA
ENDROOT
BRANCH   1   4
HETATM    4  C   UNL     1      -9.009   1.564 -31.940  1.00  0.00     0.170 C 
BRANCH   4   5
HETATM    5  C   UNL     1      -7.946   0.653 -32.495  1.00  0.00     0.029 A 
HETATM    6  C   UNL     1      -6.559   1.212 -32.367  1.00  0.00     0.253 A 
HETATM    7  N   UNL     1      -5.525   0.455 -32.848  1.00  0.00    -0.322 N 
HETATM    8  O   UNL     1      -6.344   2.309 -31.860  1.00  0.00    -0.268 OA
HETATM    9  C   UNL     1      -5.697  -0.779 -33.483  1.00  0.00     0.045 A 
HETATM   10  H   UNL     1      -4.605   0.858 -32.754  1.00  0.00     0.169 HD
HETATM   11  C   UNL     1      -6.986  -1.302 -33.618  1.00  0.00    -0.008 A 
HETATM   12  C   UNL     1      -4.591  -1.462 -33.984  1.00  0.00     0.031 A 
HETATM   13  C   UNL     1      -7.164  -2.519 -34.284  1.00  0.00     0.020 A 
HETATM   14  C   UNL     1      -8.119  -0.548 -33.078  1.00  0.00     0.028 A 
HETATM   15  C   UNL     1      -6.061  -3.205 -34.819  1.00  0.00    -0.061 A 
HETATM   16  C   UNL     1      -6.247  -4.514 -35.529  1.00  0.00     0.048 C 
HETATM   17  C   UNL     1      -4.775  -2.675 -34.647  1.00  0.00     0.009 A 
ENDBRANCH   4   5
ENDBRANCH   1   4
BRANCH   1  18
HETATM   18  C   UNL     1     -10.436   1.806 -33.981  1.00  0.00     0.158 C 
BRANCH  18  19
HETATM   19  C   UNL     1     -11.880   1.523 -33.547  1.00  0.00     0.139 C 
HETATM   20  O   UNL     1     -12.834   2.129 -34.437  1.00  0.00    -0.384 OA
HETATM   21  C   UNL     1     -13.976   1.267 -34.544  1.00  0.00     0.168 C 
HETATM   22  C   UNL     1     -13.720   0.070 -33.651  1.00  0.00     0.029 C 
HETATM   23  C   UNL     1     -12.214   0.040 -33.572  1.00  0.00     0.035 C 
ENDBRANCH  18  19
ENDBRANCH   1  18
BRANCH   2  24
HETATM   24  C   UNL     1     -10.283   4.768 -33.592  1.00  0.00     0.032 A 
HETATM   25  C   UNL     1     -11.567   5.249 -33.324  1.00  0.00     0.020 A 
HETATM   26  C   UNL     1     -12.157   6.167 -34.194  1.00  0.00     0.038 A 
HETATM   27  C   UNL     1     -11.473   6.620 -35.325  1.00  0.00     0.068 A 
HETATM   28  C   UNL     1     -10.178   6.159 -35.574  1.00  0.00     0.038 A 
HETATM   29  C   UNL     1      -9.577   5.243 -34.701  1.00  0.00     0.020 A 
BRANCH  27  30
HETATM   30  O   UNL     1     -12.171   7.513 -36.091  1.00  0.00    -0.356 OA
HETATM   31  C   UNL     1     -11.861   8.890 -35.925  1.00  0.00     0.210 C 
ENDBRANCH  27  30
ENDBRANCH   2  24
TORSDOF 6
ENDMDL
MODEL 4
REMARK VINA RESULT:      -8.2      2.862      5.270
REMARK  6 active torsions:
REMARK  status: ('A' for Active; 'I' for Inactive)
REMARK    1  A    between atoms: C_9  and  C_10 
REMARK    2  A    between atoms: C_10  and  N_11 
REMARK       I    between atoms: N_11  and  C_12 
REMARK    3  A    between atoms: N_11  and  C_22 
REMARK    4  A    between atoms: C_12  and  C_13 
REMARK    5  A    between atoms: C_16  and  O_17 
REMARK    6  A    between atoms: C_22  and  C_23 
ROOT
HETATM    1  N   UNL     1      -7.332   0.882 -33.551  1.00  0.00    -0.341 N 
HETATM    2  C   UNL     1      -6.934   0.223 -34.717  1.00  0.00     0.254 C 
HETATM    3  O   UNL     1      -6.985   0.735 -35.834  1.00  0.00    -0.267 OA
ENDROOT
BRANCH   1   4
HETATM    4  C   UNL     1      -7.857   2.249 -33.692  1.00  0.00     0.170 C 
BRANCH   4   5
HETATM    5  C   UNL     1      -6.861   3.333 -33.369  1.00  0.00     0.029 A 
HETATM    6  C   UNL     1      -7.382   4.344 -32.390  1.00  0.00     0.253 A 
HETATM    7  N   UNL     1      -6.548   5.371 -32.038  1.00  0.00    -0.322 N 
HETATM    8  O   UNL     1      -8.514   4.273 -31.921  1.00  0.00    -0.268 OA
HETATM    9  C   UNL     1      -5.266   5.546 -32.569  1.00  0.00     0.045 A 
HETATM   10  H   UNL     1      -6.926   6.039 -31.384  1.00  0.00     0.169 HD
HETATM   11  C   UNL     1      -4.778   4.616 -33.490  1.00  0.00    -0.008 A 
HETATM   12  C   UNL     1      -4.502   6.647 -32.188  1.00  0.00     0.031 A 
HETATM   13  C   UNL     1      -3.510   4.809 -34.049  1.00  0.00     0.020 A 
HETATM   14  C   UNL     1      -5.617   3.476 -33.863  1.00  0.00     0.028 A 
HETATM   15  C   UNL     1      -2.739   5.928 -33.696  1.00  0.00    -0.061 A 
HETATM   16  C   UNL     1      -1.376   6.136 -34.289  1.00  0.00     0.048 C 
HETATM   17  C   UNL     1      -3.238   6.833 -32.749  1.00  0.00     0.009 A 
ENDBRANCH   4   5
ENDBRANCH   1   4
BRANCH   1  18
HETATM   18  C   UNL     1      -7.607   0.210 -32.266  1.00  0.00     0.158 C 
BRANCH  18  19
HETATM   19  C   UNL     1      -6.505   0.412 -31.218  1.00  0.00     0.139 C 
HETATM   20  O   UNL     1      -5.236   0.705 -31.826  1.00  0.00    -0.384 OA
HETATM   21  C   UNL     1      -4.527   1.629 -30.988  1.00  0.00     0.168 C 
HETATM   22  C   UNL     1      -5.402   1.904 -29.782  1.00  0.00     0.029 C 
HETATM   23  C   UNL     1      -6.782   1.596 -30.306  1.00  0.00     0.035 C 
ENDBRANCH  18  19
ENDBRANCH   1  18
BRANCH   2  24
HETATM   24  C   UNL     1      -6.406  -1.158 -34.640  1.00  0.00     0.032 A 
HETATM   25  C   UNL     1      -5.076  -1.341 -34.255  1.00  0.00     0.020 A 
HETATM   26  C   UNL     1      -4.558  -2.632 -34.144  1.00  0.00     0.038 A 
HETATM   27  C   UNL     1      -5.362  -3.746 -34.400  1.00  0.00     0.068 A 
HETATM   28  C   UNL     1      -6.700  -3.561 -34.756  1.00  0.00     0.038 A 
HETATM   29  C   UNL     1      -7.226  -2.268 -34.863  1.00  0.00     0.020 A 
BRANCH  27  30
HETATM   30  O   UNL     1      -4.726  -4.949 -34.257  1.00  0.00    -0.356 OA
HETATM   31  C   UNL     1      -3.472  -4.944 -33.588  1.00  0.00     0.210 C 
ENDBRANCH  27  30
ENDBRANCH   2  24
TORSDOF 6
ENDMDL
MODEL 5
REMARK VINA RESULT:      -8.2      2.455      7.676
REMARK  6 active torsions:
REMARK  status: ('A' for Active; 'I' for Inactive)
REMARK    1  A    between atoms: C_9  and  C_10 
REMARK    2  A    between atoms: C_10  and  N_11 
REMARK       I    between atoms: N_11  and  C_12 
REMARK    3  A    between atoms: N_11  and  C_22 
REMARK    4  A    between atoms: C_12  and  C_13 
REMARK    5  A    between atoms: C_16  and  O_17 
REMARK    6  A    between atoms: C_22  and  C_23 
ROOT
HETATM    1  N   UNL     1      -6.038   2.213 -32.397  1.00  0.00    -0.341 N 
HETATM    2  C   UNL     1      -7.137   1.780 -31.652  1.00  0.00     0.254 C 
HETATM    3  O   UNL     1      -7.053   0.974 -30.727  1.00  0.00    -0.267 OA
ENDROOT
BRANCH   1   4
HETATM    4  C   UNL     1      -4.723   1.647 -32.055  1.00  0.00     0.170 C 
BRANCH   4   5
HETATM    5  C   UNL     1      -4.557   0.197 -32.429  1.00  0.00     0.029 A 
HETATM    6  C   UNL     1      -3.361  -0.447 -31.791  1.00  0.00     0.253 A 
HETATM    7  N   UNL     1      -3.125  -1.764 -32.076  1.00  0.00    -0.322 N 
HETATM    8  O   UNL     1      -2.608   0.174 -31.046  1.00  0.00    -0.268 OA
HETATM    9  C   UNL     1      -3.908  -2.521 -32.952  1.00  0.00     0.045 A 
HETATM   10  H   UNL     1      -2.311  -2.169 -31.638  1.00  0.00     0.169 HD
HETATM   11  C   UNL     1      -5.016  -1.926 -33.561  1.00  0.00    -0.008 A 
HETATM   12  C   UNL     1      -3.567  -3.845 -33.220  1.00  0.00     0.031 A 
HETATM   13  C   UNL     1      -5.780  -2.671 -34.466  1.00  0.00     0.020 A 
HETATM   14  C   UNL     1      -5.334  -0.532 -33.252  1.00  0.00     0.028 A 
HETATM   15  C   UNL     1      -5.433  -3.998 -34.767  1.00  0.00    -0.061 A 
HETATM   16  C   UNL     1      -6.253  -4.802 -35.734  1.00  0.00     0.048 C 
HETATM   17  C   UNL     1      -4.333  -4.582 -34.124  1.00  0.00     0.009 A 
ENDBRANCH   4   5
ENDBRANCH   1   4
BRANCH   1  18
HETATM   18  C   UNL     1      -6.132   2.896 -33.702  1.00  0.00     0.158 C 
BRANCH  18  19
HETATM   19  C   UNL     1      -5.771   4.386 -33.646  1.00  0.00     0.139 C 
HETATM   20  O   UNL     1      -5.882   4.912 -32.312  1.00  0.00    -0.384 OA
HETATM   21  C   UNL     1      -4.855   5.895 -32.118  1.00  0.00     0.168 C 
HETATM   22  C   UNL     1      -4.079   5.995 -33.415  1.00  0.00     0.029 C 
HETATM   23  C   UNL     1      -4.329   4.649 -34.048  1.00  0.00     0.035 C 
ENDBRANCH  18  19
ENDBRANCH   1  18
BRANCH   2  24
HETATM   24  C   UNL     1      -8.487   2.307 -31.955  1.00  0.00     0.032 A 
HETATM   25  C   UNL     1      -9.327   1.553 -32.778  1.00  0.00     0.020 A 
HETATM   26  C   UNL     1     -10.616   2.010 -33.057  1.00  0.00     0.038 A 
HETATM   27  C   UNL     1     -11.081   3.208 -32.510  1.00  0.00     0.068 A 
HETATM   28  C   UNL     1     -10.250   3.945 -31.664  1.00  0.00     0.038 A 
HETATM   29  C   UNL     1      -8.957   3.489 -31.375  1.00  0.00     0.020 A 
BRANCH  27  30
HETATM   30  O   UNL     1     -12.360   3.537 -32.870  1.00  0.00    -0.356 OA
HETATM   31  C   UNL     1     -13.090   4.369 -31.978  1.00  0.00     0.210 C 
ENDBRANCH  27  30
ENDBRANCH   2  24
TORSDOF 6
ENDMDL
MODEL 6
REMARK VINA RESULT:      -8.2      3.410      7.812
REMARK  6 active torsions:
REMARK  status: ('A' for Active; 'I' for Inactive)
REMARK    1  A    between atoms: C_9  and  C_10 
REMARK    2  A    between atoms: C_10  and  N_11 
REMARK       I    between atoms: N_11  and  C_12 
REMARK    3  A    between atoms: N_11  and  C_22 
REMARK    4  A    between atoms: C_12  and  C_13 
REMARK    5  A    between atoms: C_16  and  O_17 
REMARK    6  A    between atoms: C_22  and  C_23 
ROOT
HETATM    1  N   UNL     1      -5.568   3.112 -32.828  1.00  0.00    -0.341 N 
HETATM    2  C   UNL     1      -4.656   3.298 -31.786  1.00  0.00     0.254 C 
HETATM    3  O   UNL     1      -4.732   2.713 -30.707  1.00  0.00    -0.267 OA
ENDROOT
BRANCH   1   4
HETATM    4  C   UNL     1      -6.682   2.180 -32.593  1.00  0.00     0.170 C 
BRANCH   4   5
HETATM    5  C   UNL     1      -6.494   0.820 -33.216  1.00  0.00     0.029 A 
HETATM    6  C   UNL     1      -7.604   0.438 -34.151  1.00  0.00     0.253 A 
HETATM    7  N   UNL     1      -7.523  -0.784 -34.761  1.00  0.00    -0.322 N 
HETATM    8  O   UNL     1      -8.560   1.179 -34.364  1.00  0.00    -0.268 OA
HETATM    9  C   UNL     1      -6.493  -1.700 -34.530  1.00  0.00     0.045 A 
HETATM   10  H   UNL     1      -8.286  -1.017 -35.379  1.00  0.00     0.169 HD
HETATM   11  C   UNL     1      -5.462  -1.358 -33.651  1.00  0.00    -0.008 A 
HETATM   12  C   UNL     1      -6.514  -2.942 -35.161  1.00  0.00     0.031 A 
HETATM   13  C   UNL     1      -4.449  -2.287 -33.390  1.00  0.00     0.020 A 
HETATM   14  C   UNL     1      -5.482  -0.043 -33.009  1.00  0.00     0.028 A 
HETATM   15  C   UNL     1      -4.471  -3.553 -33.997  1.00  0.00    -0.061 A 
HETATM   16  C   UNL     1      -3.384  -4.551 -33.724  1.00  0.00     0.048 C 
HETATM   17  C   UNL     1      -5.501  -3.865 -34.896  1.00  0.00     0.009 A 
ENDBRANCH   4   5
ENDBRANCH   1   4
BRANCH   1  18
HETATM   18  C   UNL     1      -5.713   4.023 -33.981  1.00  0.00     0.158 C 
BRANCH  18  19
HETATM   19  C   UNL     1      -6.707   5.166 -33.740  1.00  0.00     0.139 C 
HETATM   20  O   UNL     1      -8.001   4.875 -34.296  1.00  0.00    -0.384 OA
HETATM   21  C   UNL     1      -9.006   5.437 -33.439  1.00  0.00     0.168 C 
HETATM   22  C   UNL     1      -8.288   6.133 -32.302  1.00  0.00     0.029 C 
HETATM   23  C   UNL     1      -6.965   5.411 -32.262  1.00  0.00     0.035 C 
ENDBRANCH  18  19
ENDBRANCH   1  18
BRANCH   2  24
HETATM   24  C   UNL     1      -3.519   4.232 -31.959  1.00  0.00     0.032 A 
HETATM   25  C   UNL     1      -3.427   5.333 -31.105  1.00  0.00     0.020 A 
HETATM   26  C   UNL     1      -2.350   6.213 -31.224  1.00  0.00     0.038 A 
HETATM   27  C   UNL     1      -1.355   5.996 -32.181  1.00  0.00     0.068 A 
HETATM   28  C   UNL     1      -1.435   4.878 -33.013  1.00  0.00     0.038 A 
HETATM   29  C   UNL     1      -2.510   3.987 -32.894  1.00  0.00     0.020 A 
BRANCH  27  30
HETATM   30  O   UNL     1      -0.362   6.938 -32.190  1.00  0.00    -0.356 OA
HETATM   31  C   UNL     1       0.578   6.899 -31.125  1.00  0.00     0.210 C 
ENDBRANCH  27  30
ENDBRANCH   2  24
TORSDOF 6
ENDMDL
MODEL 7
REMARK VINA RESULT:      -8.1      3.253      8.272
REMARK  6 active torsions:
REMARK  status: ('A' for Active; 'I' for Inactive)
REMARK    1  A    between atoms: C_9  and  C_10 
REMARK    2  A    between atoms: C_10  and  N_11 
REMARK       I    between atoms: N_11  and  C_12 
REMARK    3  A    between atoms: N_11  and  C_22 
REMARK    4  A    between atoms: C_12  and  C_13 
REMARK    5  A    between atoms: C_16  and  O_17 
REMARK    6  A    between atoms: C_22  and  C_23 
ROOT
HETATM    1  N   UNL     1      -4.805   2.364 -31.727  1.00  0.00    -0.341 N 
HETATM    2  C   UNL     1      -4.707   3.705 -31.349  1.00  0.00     0.254 C 
HETATM    3  O   UNL     1      -3.698   4.385 -31.523  1.00  0.00    -0.267 OA
ENDROOT
BRANCH   1   4
HETATM    4  C   UNL     1      -3.620   1.746 -32.343  1.00  0.00     0.170 C 
BRANCH   4   5
HETATM    5  C   UNL     1      -3.730   0.256 -32.543  1.00  0.00     0.029 A 
HETATM    6  C   UNL     1      -2.807  -0.530 -31.658  1.00  0.00     0.253 A 
HETATM    7  N   UNL     1      -2.833  -1.894 -31.772  1.00  0.00    -0.322 N 
HETATM    8  O   UNL     1      -2.047   0.014 -30.863  1.00  0.00    -0.268 OA
HETATM    9  C   UNL     1      -3.635  -2.581 -32.689  1.00  0.00     0.045 A 
HETATM   10  H   UNL     1      -2.199  -2.397 -31.170  1.00  0.00     0.169 HD
HETATM   11  C   UNL     1      -4.487  -1.855 -33.526  1.00  0.00    -0.008 A 
HETATM   12  C   UNL     1      -3.563  -3.970 -32.769  1.00  0.00     0.031 A 
HETATM   13  C   UNL     1      -5.263  -2.538 -34.468  1.00  0.00     0.020 A 
HETATM   14  C   UNL     1      -4.527  -0.397 -33.409  1.00  0.00     0.028 A 
HETATM   15  C   UNL     1      -5.182  -3.935 -34.579  1.00  0.00    -0.061 A 
HETATM   16  C   UNL     1      -6.017  -4.672 -35.586  1.00  0.00     0.048 C 
HETATM   17  C   UNL     1      -4.340  -4.645 -33.711  1.00  0.00     0.009 A 
ENDBRANCH   4   5
ENDBRANCH   1   4
BRANCH   1  18
HETATM   18  C   UNL     1      -5.844   1.435 -31.242  1.00  0.00     0.158 C 
BRANCH  18  19
HETATM   19  C   UNL     1      -7.165   1.528 -32.017  1.00  0.00     0.139 C 
HETATM   20  O   UNL     1      -6.962   1.997 -33.361  1.00  0.00    -0.384 OA
HETATM   21  C   UNL     1      -7.901   1.339 -34.224  1.00  0.00     0.168 C 
HETATM   22  C   UNL     1      -8.745   0.427 -33.357  1.00  0.00     0.029 C 
HETATM   23  C   UNL     1      -7.843   0.177 -32.175  1.00  0.00     0.035 C 
ENDBRANCH  18  19
ENDBRANCH   1  18
BRANCH   2  24
HETATM   24  C   UNL     1      -5.864   4.379 -30.716  1.00  0.00     0.032 A 
HETATM   25  C   UNL     1      -6.801   5.006 -31.541  1.00  0.00     0.020 A 
HETATM   26  C   UNL     1      -7.917   5.623 -30.975  1.00  0.00     0.038 A 
HETATM   27  C   UNL     1      -8.116   5.609 -29.592  1.00  0.00     0.068 A 
HETATM   28  C   UNL     1      -7.192   4.956 -28.773  1.00  0.00     0.038 A 
HETATM   29  C   UNL     1      -6.073   4.329 -29.335  1.00  0.00     0.020 A 
BRANCH  27  30
HETATM   30  O   UNL     1      -9.248   6.255 -29.175  1.00  0.00    -0.356 OA
HETATM   31  C   UNL     1      -9.906   7.085 -30.121  1.00  0.00     0.210 C 
ENDBRANCH  27  30
ENDBRANCH   2  24
TORSDOF 6
ENDMDL
MODEL 8
REMARK VINA RESULT:      -8.1      3.032      7.129
REMARK  6 active torsions:
REMARK  status: ('A' for Active; 'I' for Inactive)
REMARK    1  A    between atoms: C_9  and  C_10 
REMARK    2  A    between atoms: C_10  and  N_11 
REMARK       I    between atoms: N_11  and  C_12 
REMARK    3  A    between atoms: N_11  and  C_22 
REMARK    4  A    between atoms: C_12  and  C_13 
REMARK    5  A    between atoms: C_16  and  O_17 
REMARK    6  A    between atoms: C_22  and  C_23 
ROOT
HETATM    1  N   UNL     1      -6.560   2.064 -32.538  1.00  0.00    -0.341 N 
HETATM    2  C   UNL     1      -5.663   1.035 -32.240  1.00  0.00     0.254 C 
HETATM    3  O   UNL     1      -4.845   1.094 -31.325  1.00  0.00    -0.267 OA
ENDROOT
BRANCH   1   4
HETATM    4  C   UNL     1      -6.488   3.282 -31.716  1.00  0.00     0.170 C 
BRANCH   4   5
HETATM    5  C   UNL     1      -5.282   4.143 -31.986  1.00  0.00     0.029 A 
HETATM    6  C   UNL     1      -5.525   5.194 -33.030  1.00  0.00     0.253 A 
HETATM    7  N   UNL     1      -4.483   6.023 -33.347  1.00  0.00    -0.322 N 
HETATM    8  O   UNL     1      -6.609   5.312 -33.594  1.00  0.00    -0.268 OA
HETATM    9  C   UNL     1      -3.208   5.916 -32.785  1.00  0.00     0.045 A 
HETATM   10  H   UNL     1      -4.674   6.715 -34.056  1.00  0.00     0.169 HD
HETATM   11  C   UNL     1      -2.968   4.932 -31.822  1.00  0.00    -0.008 A 
HETATM   12  C   UNL     1      -2.192   6.774 -33.201  1.00  0.00     0.031 A 
HETATM   13  C   UNL     1      -1.683   4.800 -31.285  1.00  0.00     0.020 A 
HETATM   14  C   UNL     1      -4.065   4.051 -31.418  1.00  0.00     0.028 A 
HETATM   15  C   UNL     1      -0.643   5.640 -31.714  1.00  0.00    -0.061 A 
HETATM   16  C   UNL     1       0.736   5.505 -31.136  1.00  0.00     0.048 C 
HETATM   17  C   UNL     1      -0.913   6.637 -32.661  1.00  0.00     0.009 A 
ENDBRANCH   4   5
ENDBRANCH   1   4
BRANCH   1  18
HETATM   18  C   UNL     1      -7.306   2.179 -33.806  1.00  0.00     0.158 C 
BRANCH  18  19
HETATM   19  C   UNL     1      -8.818   2.352 -33.617  1.00  0.00     0.139 C 
HETATM   20  O   UNL     1      -9.306   3.538 -34.267  1.00  0.00    -0.384 OA
HETATM   21  C   UNL     1     -10.621   3.276 -34.779  1.00  0.00     0.168 C 
HETATM   22  C   UNL     1     -10.972   1.851 -34.401  1.00  0.00     0.029 C 
HETATM   23  C   UNL     1      -9.615   1.215 -34.236  1.00  0.00     0.035 C 
ENDBRANCH  18  19
ENDBRANCH   1  18
BRANCH   2  24
HETATM   24  C   UNL     1      -5.681  -0.213 -33.039  1.00  0.00     0.032 A 
HETATM   25  C   UNL     1      -4.462  -0.758 -33.447  1.00  0.00     0.020 A 
HETATM   26  C   UNL     1      -4.446  -1.949 -34.175  1.00  0.00     0.038 A 
HETATM   27  C   UNL     1      -5.637  -2.609 -34.488  1.00  0.00     0.068 A 
HETATM   28  C   UNL     1      -6.852  -2.077 -34.052  1.00  0.00     0.038 A 
HETATM   29  C   UNL     1      -6.875  -0.885 -33.316  1.00  0.00     0.020 A 
BRANCH  27  30
HETATM   30  O   UNL     1      -5.474  -3.762 -35.208  1.00  0.00    -0.356 OA
HETATM   31  C   UNL     1      -6.623  -4.576 -35.396  1.00  0.00     0.210 C 
ENDBRANCH  27  30
ENDBRANCH   2  24
TORSDOF 6
ENDMDL
MODEL 9
REMARK VINA RESULT:      -8.1      6.792     10.418
REMARK  6 active torsions:
REMARK  status: ('A' for Active; 'I' for Inactive)
REMARK    1  A    between atoms: C_9  and  C_10 
REMARK    2  A    between atoms: C_10  and  N_11 
REMARK       I    between atoms: N_11  and  C_12 
REMARK    3  A    between atoms: N_11  and  C_22 
REMARK    4  A    between atoms: C_12  and  C_13 
REMARK    5  A    between atoms: C_16  and  O_17 
REMARK    6  A    between atoms: C_22  and  C_23 
ROOT
HETATM    1  N   UNL     1      -0.951   6.550 -31.097  1.00  0.00    -0.341 N 
HETATM    2  C   UNL     1       0.177   6.165 -30.368  1.00  0.00     0.254 C 
HETATM    3  O   UNL     1       1.023   5.382 -30.794  1.00  0.00    -0.267 OA
ENDROOT
BRANCH   1   4
HETATM    4  C   UNL     1      -1.129   5.958 -32.432  1.00  0.00     0.170 C 
BRANCH   4   5
HETATM    5  C   UNL     1      -2.321   5.045 -32.551  1.00  0.00     0.029 A 
HETATM    6  C   UNL     1      -3.282   5.462 -33.626  1.00  0.00     0.253 A 
HETATM    7  N   UNL     1      -4.401   4.694 -33.806  1.00  0.00    -0.322 N 
HETATM    8  O   UNL     1      -3.091   6.456 -34.319  1.00  0.00    -0.268 OA
HETATM    9  C   UNL     1      -4.710   3.578 -33.023  1.00  0.00     0.045 A 
HETATM   10  H   UNL     1      -5.032   5.001 -34.531  1.00  0.00     0.169 HD
HETATM   11  C   UNL     1      -3.828   3.190 -32.011  1.00  0.00    -0.008 A 
HETATM   12  C   UNL     1      -5.895   2.880 -33.247  1.00  0.00     0.031 A 
HETATM   13  C   UNL     1      -4.153   2.095 -31.203  1.00  0.00     0.020 A 
HETATM   14  C   UNL     1      -2.596   3.954 -31.811  1.00  0.00     0.028 A 
HETATM   15  C   UNL     1      -5.356   1.399 -31.399  1.00  0.00    -0.061 A 
HETATM   16  C   UNL     1      -5.707   0.221 -30.537  1.00  0.00     0.048 C 
HETATM   17  C   UNL     1      -6.214   1.789 -32.437  1.00  0.00     0.009 A 
ENDBRANCH   4   5
ENDBRANCH   1   4
BRANCH   1  18
HETATM   18  C   UNL     1      -2.139   7.202 -30.511  1.00  0.00     0.158 C 
BRANCH  18  19
HETATM   19  C   UNL     1      -2.173   8.721 -30.718  1.00  0.00     0.139 C 
HETATM   20  O   UNL     1      -3.427   9.157 -31.272  1.00  0.00    -0.384 OA
HETATM   21  C   UNL     1      -3.753  10.441 -30.719  1.00  0.00     0.168 C 
HETATM   22  C   UNL     1      -2.622  10.828 -29.787  1.00  0.00     0.029 C 
HETATM   23  C   UNL     1      -2.037   9.489 -29.414  1.00  0.00     0.035 C 
ENDBRANCH  18  19
ENDBRANCH   1  18
BRANCH   2  24
HETATM   24  C   UNL     1       0.406   6.721 -29.014  1.00  0.00     0.032 A 
HETATM   25  C   UNL     1       1.078   7.940 -28.901  1.00  0.00     0.020 A 
HETATM   26  C   UNL     1       1.281   8.504 -27.641  1.00  0.00     0.038 A 
HETATM   27  C   UNL     1       0.807   7.868 -26.490  1.00  0.00     0.068 A 
HETATM   28  C   UNL     1       0.109   6.664 -26.610  1.00  0.00     0.038 A 
HETATM   29  C   UNL     1      -0.104   6.096 -27.873  1.00  0.00     0.020 A 
BRANCH  27  30
HETATM   30  O   UNL     1       1.080   8.528 -25.324  1.00  0.00    -0.356 OA
HETATM   31  C   UNL     1       2.447   8.663 -24.959  1.00  0.00     0.210 C 
ENDBRANCH  27  30
ENDBRANCH   2  24
TORSDOF 6
ENDMDL
MODEL 10
REMARK VINA RESULT:      -8.0      2.856      7.580
REMARK  6 active torsions:
REMARK  status: ('A' for Active; 'I' for Inactive)
REMARK    1  A    between atoms: C_9  and  C_10 
REMARK    2  A    between atoms: C_10  and  N_11 
REMARK       I    between atoms: N_11  and  C_12 
REMARK    3  A    between atoms: N_11  and  C_22 
REMARK    4  A    between atoms: C_12  and  C_13 
REMARK    5  A    between atoms: C_16  and  O_17 
REMARK    6  A    between atoms: C_22  and  C_23 
ROOT
HETATM    1  N   UNL     1      -7.223   1.095 -32.891  1.00  0.00    -0.341 N 
HETATM    2  C   UNL     1      -8.458   1.056 -32.241  1.00  0.00     0.254 C 
HETATM    3  O   UNL     1      -8.583   0.855 -31.035  1.00  0.00    -0.267 OA
ENDROOT
BRANCH   1   4
HETATM    4  C   UNL     1      -6.022   0.858 -32.075  1.00  0.00     0.170 C 
BRANCH   4   5
HETATM    5  C   UNL     1      -5.111   2.052 -31.949  1.00  0.00     0.029 A 
HETATM    6  C   UNL     1      -5.225   2.748 -30.624  1.00  0.00     0.253 A 
HETATM    7  N   UNL     1      -4.438   3.849 -30.419  1.00  0.00    -0.322 N 
HETATM    8  O   UNL     1      -5.996   2.361 -29.751  1.00  0.00    -0.268 OA
HETATM    9  C   UNL     1      -3.575   4.376 -31.384  1.00  0.00     0.045 A 
HETATM   10  H   UNL     1      -4.540   4.299 -29.522  1.00  0.00     0.169 HD
HETATM   11  C   UNL     1      -3.472   3.742 -32.625  1.00  0.00    -0.008 A 
HETATM   12  C   UNL     1      -2.844   5.529 -31.105  1.00  0.00     0.031 A 
HETATM   13  C   UNL     1      -2.636   4.289 -33.604  1.00  0.00     0.020 A 
HETATM   14  C   UNL     1      -4.261   2.535 -32.874  1.00  0.00     0.028 A 
HETATM   15  C   UNL     1      -1.915   5.466 -33.348  1.00  0.00    -0.061 A 
HETATM   16  C   UNL     1      -1.012   6.053 -34.394  1.00  0.00     0.048 C 
HETATM   17  C   UNL     1      -2.012   6.069 -32.086  1.00  0.00     0.009 A 
ENDBRANCH   4   5
ENDBRANCH   1   4
BRANCH   1  18
HETATM   18  C   UNL     1      -7.046   0.993 -34.353  1.00  0.00     0.158 C 
BRANCH  18  19
HETATM   19  C   UNL     1      -6.605  -0.399 -34.824  1.00  0.00     0.139 C 
HETATM   20  O   UNL     1      -5.288  -0.730 -34.351  1.00  0.00    -0.384 OA
HETATM   21  C   UNL     1      -5.239  -2.137 -34.071  1.00  0.00     0.168 C 
HETATM   22  C   UNL     1      -6.600  -2.708 -34.413  1.00  0.00     0.029 C 
HETATM   23  C   UNL     1      -7.499  -1.504 -34.288  1.00  0.00     0.035 C 
ENDBRANCH  18  19
ENDBRANCH   1  18
BRANCH   2  24
HETATM   24  C   UNL     1      -9.704   1.278 -33.011  1.00  0.00     0.032 A 
HETATM   25  C   UNL     1     -10.638   0.242 -33.078  1.00  0.00     0.020 A 
HETATM   26  C   UNL     1     -11.835   0.432 -33.771  1.00  0.00     0.038 A 
HETATM   27  C   UNL     1     -12.114   1.654 -34.388  1.00  0.00     0.068 A 
HETATM   28  C   UNL     1     -11.191   2.698 -34.294  1.00  0.00     0.038 A 
HETATM   29  C   UNL     1      -9.991   2.515 -33.595  1.00  0.00     0.020 A 
BRANCH  27  30
HETATM   30  O   UNL     1     -13.319   1.701 -35.035  1.00  0.00    -0.356 OA
HETATM   31  C   UNL     1     -14.411   1.030 -34.420  1.00  0.00     0.210 C 
ENDBRANCH  27  30
ENDBRANCH   2  24
TORSDOF 6
ENDMDL
