MODEL 1
REMARK VINA RESULT:      -8.6      0.000      0.000
REMARK  3 active torsions:
REMARK  status: ('A' for Active; 'I' for Inactive)
REMARK    1  A    between atoms: C_9  and  C_10 
REMARK    2  A    between atoms: C_16  and  C_17 
REMARK       I    between atoms: C_17  and  N_18 
REMARK    3  A    between atoms: N_18  and  C_19 
ROOT
HETATM    1  C   UNL     1      -3.353   0.863 -30.961  1.00  0.00     0.070 C 
HETATM    2  C   UNL     1      -4.220   1.731 -31.839  1.00  0.00     0.037 C 
HETATM    3  N   UNL     1      -3.851   3.074 -31.904  1.00  0.00    -0.191 N 
HETATM    4  C   UNL     1      -4.354   3.927 -32.821  1.00  0.00     0.735 A 
HETATM    5  N   UNL     1      -5.377   3.514 -33.626  1.00  0.00    -0.092 N 
HETATM    6  N   UNL     1      -5.686   4.470 -34.514  1.00  0.00     0.012 NA
HETATM    7  N   UNL     1      -4.872   5.477 -34.212  1.00  0.00     0.033 NA
HETATM    8  N   UNL     1      -4.036   5.151 -33.160  1.00  0.00     0.030 NA
HETATM    9  C   UNL     1      -6.010   2.199 -33.557  1.00  0.00     0.199 C 
HETATM   10  C   UNL     1      -5.254   1.283 -32.596  1.00  0.00     0.062 C 
HETATM   11  H   UNL     1      -3.020   3.357 -31.388  1.00  0.00     0.184 HD
ENDROOT
BRANCH  10  12
HETATM   12  C   UNL     1      -5.679  -0.142 -32.671  1.00  0.00     0.256 C 
HETATM   13  N   UNL     1      -5.141  -0.823 -33.739  1.00  0.00    -0.323 N 
HETATM   14  H   UNL     1      -4.494  -0.319 -34.334  1.00  0.00     0.169 HD
HETATM   15  O   UNL     1      -6.398  -0.582 -31.783  1.00  0.00    -0.267 OA
BRANCH  13  16
HETATM   16  C   UNL     1      -5.407  -2.154 -34.124  1.00  0.00     0.035 A 
HETATM   17  C   UNL     1      -6.629  -2.589 -34.640  1.00  0.00     0.029 A 
HETATM   18  C   UNL     1      -6.805  -3.924 -35.020  1.00  0.00     0.002 A 
HETATM   19  C   UNL     1      -5.759  -4.834 -34.893  1.00  0.00     0.000 A 
HETATM   20  C   UNL     1      -4.535  -4.412 -34.378  1.00  0.00     0.002 A 
HETATM   21  C   UNL     1      -4.363  -3.080 -33.991  1.00  0.00     0.029 A 
ENDBRANCH  13  16
ENDBRANCH  10  12
BRANCH   9  22
HETATM   22  C   UNL     1      -7.475   2.336 -33.181  1.00  0.00    -0.011 A 
HETATM   23  C   UNL     1      -7.881   2.847 -31.949  1.00  0.00     0.125 A 
HETATM   24  N   UNL     1      -9.171   2.956 -31.559  1.00  0.00    -0.272 NA
HETATM   25  C   UNL     1     -10.110   2.553 -32.441  1.00  0.00     0.116 A 
HETATM   26  C   UNL     1      -9.818   2.028 -33.688  1.00  0.00     0.020 A 
HETATM   27  C   UNL     1      -8.481   1.911 -34.057  1.00  0.00     0.012 A 
ENDBRANCH   9  22
TORSDOF 3
ENDMDL
MODEL 2
REMARK VINA RESULT:      -8.2      1.937      4.197
REMARK  3 active torsions:
REMARK  status: ('A' for Active; 'I' for Inactive)
REMARK    1  A    between atoms: C_9  and  C_10 
REMARK    2  A    between atoms: C_16  and  C_17 
REMARK       I    between atoms: C_17  and  N_18 
REMARK    3  A    between atoms: N_18  and  C_19 
ROOT
HETATM    1  C   UNL     1      -9.646   0.771 -32.590  1.00  0.00     0.070 C 
HETATM    2  C   UNL     1      -8.700   1.695 -31.863  1.00  0.00     0.037 C 
HETATM    3  N   UNL     1      -9.240   2.920 -31.475  1.00  0.00    -0.191 N 
HETATM    4  C   UNL     1      -8.621   3.750 -30.610  1.00  0.00     0.735 A 
HETATM    5  N   UNL     1      -7.347   3.467 -30.209  1.00  0.00    -0.092 N 
HETATM    6  N   UNL     1      -6.934   4.362 -29.300  1.00  0.00     0.012 NA
HETATM    7  N   UNL     1      -7.952   5.211 -29.186  1.00  0.00     0.033 NA
HETATM    8  N   UNL     1      -9.010   4.840 -29.996  1.00  0.00     0.030 NA
HETATM    9  C   UNL     1      -6.565   2.323 -30.671  1.00  0.00     0.199 C 
HETATM   10  C   UNL     1      -7.425   1.384 -31.516  1.00  0.00     0.062 C 
HETATM   11  H   UNL     1     -10.224   3.084 -31.679  1.00  0.00     0.184 HD
ENDROOT
BRANCH  10  12
HETATM   12  C   UNL     1      -6.776   0.075 -31.802  1.00  0.00     0.256 C 
HETATM   13  N   UNL     1      -6.652  -0.199 -33.144  1.00  0.00    -0.323 N 
HETATM   14  H   UNL     1      -6.967   0.510 -33.795  1.00  0.00     0.169 HD
HETATM   15  O   UNL     1      -6.376  -0.593 -30.857  1.00  0.00    -0.267 OA
BRANCH  13  16
HETATM   16  C   UNL     1      -6.152  -1.380 -33.732  1.00  0.00     0.035 A 
HETATM   17  C   UNL     1      -4.795  -1.693 -33.825  1.00  0.00     0.029 A 
HETATM   18  C   UNL     1      -4.381  -2.898 -34.403  1.00  0.00     0.002 A 
HETATM   19  C   UNL     1      -5.321  -3.803 -34.888  1.00  0.00     0.000 A 
HETATM   20  C   UNL     1      -6.678  -3.501 -34.802  1.00  0.00     0.002 A 
HETATM   21  C   UNL     1      -7.091  -2.293 -34.232  1.00  0.00     0.029 A 
ENDBRANCH  13  16
ENDBRANCH  10  12
BRANCH   9  22
HETATM   22  C   UNL     1      -5.330   2.793 -31.420  1.00  0.00    -0.011 A 
HETATM   23  C   UNL     1      -4.040   2.461 -31.010  1.00  0.00     0.125 A 
HETATM   24  N   UNL     1      -2.914   2.885 -31.624  1.00  0.00    -0.272 NA
HETATM   25  C   UNL     1      -3.071   3.665 -32.714  1.00  0.00     0.116 A 
HETATM   26  C   UNL     1      -4.304   4.057 -33.206  1.00  0.00     0.020 A 
HETATM   27  C   UNL     1      -5.447   3.621 -32.544  1.00  0.00     0.012 A 
ENDBRANCH   9  22
TORSDOF 3
ENDMDL
MODEL 3
REMARK VINA RESULT:      -8.0      1.670      4.286
REMARK  3 active torsions:
REMARK  status: ('A' for Active; 'I' for Inactive)
REMARK    1  A    between atoms: C_9  and  C_10 
REMARK    2  A    between atoms: C_16  and  C_17 
REMARK       I    between atoms: C_17  and  N_18 
REMARK    3  A    between atoms: N_18  and  C_19 
ROOT
HETATM    1  C   UNL     1     -10.198   1.292 -34.170  1.00  0.00     0.070 C 
HETATM    2  C   UNL     1      -9.238   2.032 -33.271  1.00  0.00     0.037 C 
HETATM    3  N   UNL     1      -9.819   2.968 -32.417  1.00  0.00    -0.191 N 
HETATM    4  C   UNL     1      -9.152   3.531 -31.387  1.00  0.00     0.735 A 
HETATM    5  N   UNL     1      -7.813   3.302 -31.255  1.00  0.00    -0.092 N 
HETATM    6  N   UNL     1      -7.348   3.882 -30.139  1.00  0.00     0.012 NA
HETATM    7  N   UNL     1      -8.407   4.497 -29.621  1.00  0.00     0.033 NA
HETATM    8  N   UNL     1      -9.538   4.285 -30.388  1.00  0.00     0.030 NA
HETATM    9  C   UNL     1      -7.012   2.499 -32.176  1.00  0.00     0.199 C 
HETATM   10  C   UNL     1      -7.903   1.796 -33.199  1.00  0.00     0.062 C 
HETATM   11  H   UNL     1     -10.833   3.058 -32.440  1.00  0.00     0.184 HD
ENDROOT
BRANCH  10  12
HETATM   12  C   UNL     1      -7.193   0.762 -34.000  1.00  0.00     0.256 C 
HETATM   13  N   UNL     1      -7.040  -0.437 -33.342  1.00  0.00    -0.323 N 
HETATM   14  H   UNL     1      -7.449  -0.517 -32.419  1.00  0.00     0.169 HD
HETATM   15  O   UNL     1      -6.866   1.038 -35.147  1.00  0.00    -0.267 OA
BRANCH  13  16
HETATM   16  C   UNL     1      -6.351  -1.581 -33.799  1.00  0.00     0.035 A 
HETATM   17  C   UNL     1      -4.974  -1.767 -33.668  1.00  0.00     0.029 A 
HETATM   18  C   UNL     1      -4.369  -2.942 -34.129  1.00  0.00     0.002 A 
HETATM   19  C   UNL     1      -5.137  -3.941 -34.720  1.00  0.00     0.000 A 
HETATM   20  C   UNL     1      -6.512  -3.766 -34.858  1.00  0.00     0.002 A 
HETATM   21  C   UNL     1      -7.114  -2.589 -34.404  1.00  0.00     0.029 A 
ENDBRANCH  13  16
ENDBRANCH  10  12
BRANCH   9  22
HETATM   22  C   UNL     1      -5.949   3.357 -32.840  1.00  0.00    -0.011 A 
HETATM   23  C   UNL     1      -6.257   4.285 -33.834  1.00  0.00     0.125 A 
HETATM   24  N   UNL     1      -5.342   5.045 -34.475  1.00  0.00    -0.272 NA
HETATM   25  C   UNL     1      -4.054   4.891 -34.102  1.00  0.00     0.116 A 
HETATM   26  C   UNL     1      -3.637   3.998 -33.130  1.00  0.00     0.020 A 
HETATM   27  C   UNL     1      -4.599   3.215 -32.498  1.00  0.00     0.012 A 
ENDBRANCH   9  22
TORSDOF 3
ENDMDL
MODEL 4
REMARK VINA RESULT:      -7.5      2.325      5.641
REMARK  3 active torsions:
REMARK  status: ('A' for Active; 'I' for Inactive)
REMARK    1  A    between atoms: C_9  and  C_10 
REMARK    2  A    between atoms: C_16  and  C_17 
REMARK       I    between atoms: C_17  and  N_18 
REMARK    3  A    between atoms: N_18  and  C_19 
ROOT
HETATM    1  C   UNL     1      -8.969   5.540 -33.873  1.00  0.00     0.070 C 
HETATM    2  C   UNL     1      -7.870   4.550 -33.577  1.00  0.00     0.037 C 
HETATM    3  N   UNL     1      -6.580   4.978 -33.886  1.00  0.00    -0.191 N 
HETATM    4  C   UNL     1      -5.474   4.331 -33.461  1.00  0.00     0.735 A 
HETATM    5  N   UNL     1      -5.606   3.125 -32.834  1.00  0.00    -0.092 N 
HETATM    6  N   UNL     1      -4.410   2.678 -32.425  1.00  0.00     0.012 NA
HETATM    7  N   UNL     1      -3.551   3.603 -32.846  1.00  0.00     0.033 NA
HETATM    8  N   UNL     1      -4.201   4.638 -33.492  1.00  0.00     0.030 NA
HETATM    9  C   UNL     1      -6.877   2.443 -32.603  1.00  0.00     0.199 C 
HETATM   10  C   UNL     1      -8.052   3.342 -32.985  1.00  0.00     0.062 C 
HETATM   11  H   UNL     1      -6.474   5.922 -34.251  1.00  0.00     0.184 HD
ENDROOT
BRANCH  10  12
HETATM   12  C   UNL     1      -9.372   2.822 -32.535  1.00  0.00     0.256 C 
HETATM   13  N   UNL     1     -10.227   2.517 -33.569  1.00  0.00    -0.323 N 
HETATM   14  H   UNL     1      -9.877   2.631 -34.512  1.00  0.00     0.169 HD
HETATM   15  O   UNL     1      -9.558   2.668 -31.334  1.00  0.00    -0.267 OA
BRANCH  13  16
HETATM   16  C   UNL     1     -11.565   2.078 -33.469  1.00  0.00     0.035 A 
HETATM   17  C   UNL     1     -12.638   2.910 -33.147  1.00  0.00     0.029 A 
HETATM   18  C   UNL     1     -13.940   2.401 -33.091  1.00  0.00     0.002 A 
HETATM   19  C   UNL     1     -14.180   1.057 -33.362  1.00  0.00     0.000 A 
HETATM   20  C   UNL     1     -13.117   0.216 -33.683  1.00  0.00     0.002 A 
HETATM   21  C   UNL     1     -11.816   0.724 -33.731  1.00  0.00     0.029 A 
ENDBRANCH  13  16
ENDBRANCH  10  12
BRANCH   9  22
HETATM   22  C   UNL     1      -6.910   1.117 -33.343  1.00  0.00    -0.011 A 
HETATM   23  C   UNL     1      -6.768  -0.104 -32.687  1.00  0.00     0.125 A 
HETATM   24  N   UNL     1      -6.757  -1.304 -33.307  1.00  0.00    -0.272 NA
HETATM   25  C   UNL     1      -6.912  -1.298 -34.648  1.00  0.00     0.116 A 
HETATM   26  C   UNL     1      -7.059  -0.144 -35.399  1.00  0.00     0.020 A 
HETATM   27  C   UNL     1      -7.049   1.079 -34.736  1.00  0.00     0.012 A 
ENDBRANCH   9  22
TORSDOF 3
ENDMDL
MODEL 5
REMARK VINA RESULT:      -7.4     15.424     16.838
REMARK  3 active torsions:
REMARK  status: ('A' for Active; 'I' for Inactive)
REMARK    1  A    between atoms: C_9  and  C_10 
REMARK    2  A    between atoms: C_16  and  C_17 
REMARK       I    between atoms: C_17  and  N_18 
REMARK    3  A    between atoms: N_18  and  C_19 
ROOT
HETATM    1  C   UNL     1      -5.755 -13.789 -36.000  1.00  0.00     0.070 C 
HETATM    2  C   UNL     1      -6.398 -13.580 -37.350  1.00  0.00     0.037 C 
HETATM    3  N   UNL     1      -7.787 -13.687 -37.374  1.00  0.00    -0.191 N 
HETATM    4  C   UNL     1      -8.533 -13.289 -38.426  1.00  0.00     0.735 A 
HETATM    5  N   UNL     1      -7.909 -12.907 -39.579  1.00  0.00    -0.092 N 
HETATM    6  N   UNL     1      -8.809 -12.480 -40.476  1.00  0.00     0.012 NA
HETATM    7  N   UNL     1      -9.983 -12.645 -39.872  1.00  0.00     0.033 NA
HETATM    8  N   UNL     1      -9.824 -13.147 -38.594  1.00  0.00     0.030 NA
HETATM    9  C   UNL     1      -6.463 -12.920 -39.786  1.00  0.00     0.199 C 
HETATM   10  C   UNL     1      -5.732 -13.237 -38.482  1.00  0.00     0.062 C 
HETATM   11  H   UNL     1      -8.259 -13.863 -36.489  1.00  0.00     0.184 HD
ENDROOT
BRANCH  10  12
HETATM   12  C   UNL     1      -4.262 -13.011 -38.551  1.00  0.00     0.256 C 
HETATM   13  N   UNL     1      -3.546 -14.136 -38.887  1.00  0.00    -0.323 N 
HETATM   14  H   UNL     1      -4.070 -14.979 -39.090  1.00  0.00     0.169 HD
HETATM   15  O   UNL     1      -3.839 -11.877 -38.364  1.00  0.00    -0.267 OA
BRANCH  13  16
HETATM   16  C   UNL     1      -2.142 -14.265 -38.962  1.00  0.00     0.035 A 
HETATM   17  C   UNL     1      -1.319 -14.491 -37.857  1.00  0.00     0.029 A 
HETATM   18  C   UNL     1       0.064 -14.628 -38.018  1.00  0.00     0.002 A 
HETATM   19  C   UNL     1       0.634 -14.547 -39.285  1.00  0.00     0.000 A 
HETATM   20  C   UNL     1      -0.177 -14.321 -40.395  1.00  0.00     0.002 A 
HETATM   21  C   UNL     1      -1.558 -14.175 -40.232  1.00  0.00     0.029 A 
ENDBRANCH  13  16
ENDBRANCH  10  12
BRANCH   9  22
HETATM   22  C   UNL     1      -6.095 -13.889 -40.895  1.00  0.00    -0.011 A 
HETATM   23  C   UNL     1      -6.474 -15.231 -40.866  1.00  0.00     0.125 A 
HETATM   24  N   UNL     1      -6.141 -16.136 -41.813  1.00  0.00    -0.272 NA
HETATM   25  C   UNL     1      -5.408 -15.687 -42.854  1.00  0.00     0.116 A 
HETATM   26  C   UNL     1      -4.977 -14.378 -42.981  1.00  0.00     0.020 A 
HETATM   27  C   UNL     1      -5.319 -13.470 -41.983  1.00  0.00     0.012 A 
ENDBRANCH   9  22
TORSDOF 3
ENDMDL
MODEL 6
REMARK VINA RESULT:      -7.2      2.644      4.956
REMARK  3 active torsions:
REMARK  status: ('A' for Active; 'I' for Inactive)
REMARK    1  A    between atoms: C_9  and  C_10 
REMARK    2  A    between atoms: C_16  and  C_17 
REMARK       I    between atoms: C_17  and  N_18 
REMARK    3  A    between atoms: N_18  and  C_19 
ROOT
HETATM    1  C   UNL     1      -7.974   3.913 -30.222  1.00  0.00     0.070 C 
HETATM    2  C   UNL     1      -6.628   4.575 -30.395  1.00  0.00     0.037 C 
HETATM    3  N   UNL     1      -6.526   5.866 -29.879  1.00  0.00    -0.191 N 
HETATM    4  C   UNL     1      -5.344   6.499 -29.725  1.00  0.00     0.735 A 
HETATM    5  N   UNL     1      -4.211   5.929 -30.230  1.00  0.00    -0.092 N 
HETATM    6  N   UNL     1      -3.137   6.668 -29.914  1.00  0.00     0.012 NA
HETATM    7  N   UNL     1      -3.635   7.708 -29.251  1.00  0.00     0.033 NA
HETATM    8  N   UNL     1      -5.008   7.614 -29.126  1.00  0.00     0.030 NA
HETATM    9  C   UNL     1      -4.172   4.669 -30.969  1.00  0.00     0.199 C 
HETATM   10  C   UNL     1      -5.535   3.981 -30.939  1.00  0.00     0.062 C 
HETATM   11  H   UNL     1      -7.341   6.247 -29.404  1.00  0.00     0.184 HD
ENDROOT
BRANCH  10  12
HETATM   12  C   UNL     1      -5.508   2.580 -31.440  1.00  0.00     0.256 C 
HETATM   13  N   UNL     1      -5.990   2.442 -32.722  1.00  0.00    -0.323 N 
HETATM   14  H   UNL     1      -6.272   3.286 -33.206  1.00  0.00     0.169 HD
HETATM   15  O   UNL     1      -5.029   1.714 -30.719  1.00  0.00    -0.267 OA
BRANCH  13  16
HETATM   16  C   UNL     1      -6.162   1.243 -33.445  1.00  0.00     0.035 A 
HETATM   17  C   UNL     1      -5.380   0.101 -33.262  1.00  0.00     0.029 A 
HETATM   18  C   UNL     1      -5.630  -1.058 -34.005  1.00  0.00     0.002 A 
HETATM   19  C   UNL     1      -6.668  -1.087 -34.933  1.00  0.00     0.000 A 
HETATM   20  C   UNL     1      -7.455   0.047 -35.125  1.00  0.00     0.002 A 
HETATM   21  C   UNL     1      -7.199   1.207 -34.388  1.00  0.00     0.029 A 
ENDBRANCH  13  16
ENDBRANCH  10  12
BRANCH   9  22
HETATM   22  C   UNL     1      -3.682   4.902 -32.387  1.00  0.00    -0.011 A 
HETATM   23  C   UNL     1      -4.450   5.570 -33.339  1.00  0.00     0.125 A 
HETATM   24  N   UNL     1      -4.070   5.771 -34.620  1.00  0.00    -0.272 NA
HETATM   25  C   UNL     1      -2.856   5.300 -34.975  1.00  0.00     0.116 A 
HETATM   26  C   UNL     1      -2.013   4.621 -34.112  1.00  0.00     0.020 A 
HETATM   27  C   UNL     1      -2.437   4.413 -32.803  1.00  0.00     0.012 A 
ENDBRANCH   9  22
TORSDOF 3
ENDMDL
MODEL 7
REMARK VINA RESULT:      -7.2      2.260      4.408
REMARK  3 active torsions:
REMARK  status: ('A' for Active; 'I' for Inactive)
REMARK    1  A    between atoms: C_9  and  C_10 
REMARK    2  A    between atoms: C_16  and  C_17 
REMARK       I    between atoms: C_17  and  N_18 
REMARK    3  A    between atoms: N_18  and  C_19 
ROOT
HETATM    1  C   UNL     1      -8.671   2.496 -31.235  1.00  0.00     0.070 C 
HETATM    2  C   UNL     1      -7.571   3.528 -31.219  1.00  0.00     0.037 C 
HETATM    3  N   UNL     1      -7.968   4.821 -30.884  1.00  0.00    -0.191 N 
HETATM    4  C   UNL     1      -7.090   5.800 -30.581  1.00  0.00     0.735 A 
HETATM    5  N   UNL     1      -5.755   5.576 -30.755  1.00  0.00    -0.092 N 
HETATM    6  N   UNL     1      -5.045   6.633 -30.334  1.00  0.00     0.012 NA
HETATM    7  N   UNL     1      -5.963   7.512 -29.943  1.00  0.00     0.033 NA
HETATM    8  N   UNL     1      -7.241   7.006 -30.092  1.00  0.00     0.030 NA
HETATM    9  C   UNL     1      -5.181   4.339 -31.282  1.00  0.00     0.199 C 
HETATM   10  C   UNL     1      -6.257   3.265 -31.435  1.00  0.00     0.062 C 
HETATM   11  H   UNL     1      -8.948   4.964 -30.646  1.00  0.00     0.184 HD
ENDROOT
BRANCH  10  12
HETATM   12  C   UNL     1      -5.710   1.909 -31.715  1.00  0.00     0.256 C 
HETATM   13  N   UNL     1      -6.079   1.407 -32.942  1.00  0.00    -0.323 N 
HETATM   14  H   UNL     1      -6.636   2.004 -33.540  1.00  0.00     0.169 HD
HETATM   15  O   UNL     1      -4.967   1.400 -30.885  1.00  0.00    -0.267 OA
BRANCH  13  16
HETATM   16  C   UNL     1      -5.786   0.129 -33.464  1.00  0.00     0.035 A 
HETATM   17  C   UNL     1      -4.541  -0.492 -33.358  1.00  0.00     0.029 A 
HETATM   18  C   UNL     1      -4.339  -1.773 -33.884  1.00  0.00     0.002 A 
HETATM   19  C   UNL     1      -5.381  -2.445 -34.516  1.00  0.00     0.000 A 
HETATM   20  C   UNL     1      -6.628  -1.835 -34.629  1.00  0.00     0.002 A 
HETATM   21  C   UNL     1      -6.827  -0.552 -34.110  1.00  0.00     0.029 A 
ENDBRANCH  13  16
ENDBRANCH  10  12
BRANCH   9  22
HETATM   22  C   UNL     1      -4.453   4.607 -32.587  1.00  0.00    -0.011 A 
HETATM   23  C   UNL     1      -5.122   5.003 -33.744  1.00  0.00     0.125 A 
HETATM   24  N   UNL     1      -4.521   5.220 -34.935  1.00  0.00    -0.272 NA
HETATM   25  C   UNL     1      -3.182   5.053 -34.980  1.00  0.00     0.116 A 
HETATM   26  C   UNL     1      -2.420   4.661 -33.893  1.00  0.00     0.020 A 
HETATM   27  C   UNL     1      -3.067   4.427 -32.683  1.00  0.00     0.012 A 
ENDBRANCH   9  22
TORSDOF 3
ENDMDL
MODEL 8
REMARK VINA RESULT:      -7.1      3.150      4.976
REMARK  3 active torsions:
REMARK  status: ('A' for Active; 'I' for Inactive)
REMARK    1  A    between atoms: C_9  and  C_10 
REMARK    2  A    between atoms: C_16  and  C_17 
REMARK       I    between atoms: C_17  and  N_18 
REMARK    3  A    between atoms: N_18  and  C_19 
ROOT
HETATM    1  C   UNL     1      -8.367   4.273 -31.044  1.00  0.00     0.070 C 
HETATM    2  C   UNL     1      -9.403   4.332 -32.139  1.00  0.00     0.037 C 
HETATM    3  N   UNL     1      -9.955   5.590 -32.374  1.00  0.00    -0.191 N 
HETATM    4  C   UNL     1     -10.698   5.871 -33.465  1.00  0.00     0.735 A 
HETATM    5  N   UNL     1     -11.062   4.856 -34.303  1.00  0.00    -0.092 N 
HETATM    6  N   UNL     1     -11.730   5.340 -35.360  1.00  0.00     0.012 NA
HETATM    7  N   UNL     1     -11.803   6.649 -35.133  1.00  0.00     0.033 NA
HETATM    8  N   UNL     1     -11.163   6.992 -33.956  1.00  0.00     0.030 NA
HETATM    9  C   UNL     1     -10.728   3.448 -34.098  1.00  0.00     0.199 C 
HETATM   10  C   UNL     1      -9.762   3.285 -32.926  1.00  0.00     0.062 C 
HETATM   11  H   UNL     1      -9.601   6.368 -31.821  1.00  0.00     0.184 HD
ENDROOT
BRANCH  10  12
HETATM   12  C   UNL     1      -9.175   1.921 -32.821  1.00  0.00     0.256 C 
HETATM   13  N   UNL     1      -8.055   1.741 -33.601  1.00  0.00    -0.323 N 
HETATM   14  H   UNL     1      -7.721   2.539 -34.126  1.00  0.00     0.169 HD
HETATM   15  O   UNL     1      -9.686   1.127 -32.042  1.00  0.00    -0.267 OA
BRANCH  13  16
HETATM   16  C   UNL     1      -7.321   0.549 -33.777  1.00  0.00     0.035 A 
HETATM   17  C   UNL     1      -7.479  -0.314 -34.862  1.00  0.00     0.029 A 
HETATM   18  C   UNL     1      -6.694  -1.467 -34.975  1.00  0.00     0.002 A 
HETATM   19  C   UNL     1      -5.740  -1.763 -34.005  1.00  0.00     0.000 A 
HETATM   20  C   UNL     1      -5.573  -0.910 -32.917  1.00  0.00     0.002 A 
HETATM   21  C   UNL     1      -6.364   0.237 -32.801  1.00  0.00     0.029 A 
ENDBRANCH  13  16
ENDBRANCH  10  12
BRANCH   9  22
HETATM   22  C   UNL     1     -11.992   2.626 -33.913  1.00  0.00    -0.011 A 
HETATM   23  C   UNL     1     -12.939   2.928 -32.937  1.00  0.00     0.125 A 
HETATM   24  N   UNL     1     -14.060   2.206 -32.714  1.00  0.00    -0.272 NA
HETATM   25  C   UNL     1     -14.263   1.137 -33.512  1.00  0.00     0.116 A 
HETATM   26  C   UNL     1     -13.387   0.745 -34.510  1.00  0.00     0.020 A 
HETATM   27  C   UNL     1     -12.233   1.497 -34.706  1.00  0.00     0.012 A 
ENDBRANCH   9  22
TORSDOF 3
ENDMDL
MODEL 9
REMARK VINA RESULT:      -6.9      3.996      6.724
REMARK  3 active torsions:
REMARK  status: ('A' for Active; 'I' for Inactive)
REMARK    1  A    between atoms: C_9  and  C_10 
REMARK    2  A    between atoms: C_16  and  C_17 
REMARK       I    between atoms: C_17  and  N_18 
REMARK    3  A    between atoms: N_18  and  C_19 
ROOT
HETATM    1  C   UNL     1      -6.353   6.987 -29.465  1.00  0.00     0.070 C 
HETATM    2  C   UNL     1      -4.860   7.005 -29.685  1.00  0.00     0.037 C 
HETATM    3  N   UNL     1      -4.180   8.063 -29.084  1.00  0.00    -0.191 N 
HETATM    4  C   UNL     1      -2.836   8.097 -28.968  1.00  0.00     0.735 A 
HETATM    5  N   UNL     1      -2.089   7.140 -29.593  1.00  0.00    -0.092 N 
HETATM    6  N   UNL     1      -0.790   7.298 -29.301  1.00  0.00     0.012 NA
HETATM    7  N   UNL     1      -0.754   8.381 -28.530  1.00  0.00     0.033 NA
HETATM    8  N   UNL     1      -2.023   8.888 -28.314  1.00  0.00     0.030 NA
HETATM    9  C   UNL     1      -2.635   6.068 -30.423  1.00  0.00     0.199 C 
HETATM   10  C   UNL     1      -4.161   6.048 -30.346  1.00  0.00     0.062 C 
HETATM   11  H   UNL     1      -4.727   8.715 -28.526  1.00  0.00     0.184 HD
ENDROOT
BRANCH  10  12
HETATM   12  C   UNL     1      -4.773   4.833 -30.950  1.00  0.00     0.256 C 
HETATM   13  N   UNL     1      -4.531   3.681 -30.237  1.00  0.00    -0.323 N 
HETATM   14  H   UNL     1      -4.011   3.769 -29.373  1.00  0.00     0.169 HD
HETATM   15  O   UNL     1      -5.454   4.965 -31.958  1.00  0.00    -0.267 OA
BRANCH  13  16
HETATM   16  C   UNL     1      -4.909   2.366 -30.585  1.00  0.00     0.035 A 
HETATM   17  C   UNL     1      -5.990   1.689 -30.019  1.00  0.00     0.029 A 
HETATM   18  C   UNL     1      -6.313   0.392 -30.436  1.00  0.00     0.002 A 
HETATM   19  C   UNL     1      -5.561  -0.234 -31.425  1.00  0.00     0.000 A 
HETATM   20  C   UNL     1      -4.479   0.432 -31.997  1.00  0.00     0.002 A 
HETATM   21  C   UNL     1      -4.152   1.723 -31.574  1.00  0.00     0.029 A 
ENDBRANCH  13  16
ENDBRANCH  10  12
BRANCH   9  22
HETATM   22  C   UNL     1      -2.138   6.199 -31.851  1.00  0.00    -0.011 A 
HETATM   23  C   UNL     1      -2.150   7.414 -32.534  1.00  0.00     0.125 A 
HETATM   24  N   UNL     1      -1.749   7.571 -33.815  1.00  0.00    -0.272 NA
HETATM   25  C   UNL     1      -1.295   6.470 -34.451  1.00  0.00     0.116 A 
HETATM   26  C   UNL     1      -1.242   5.215 -33.869  1.00  0.00     0.020 A 
HETATM   27  C   UNL     1      -1.678   5.079 -32.554  1.00  0.00     0.012 A 
ENDBRANCH   9  22
TORSDOF 3
ENDMDL
MODEL 10
REMARK VINA RESULT:      -6.8      1.754      2.281
REMARK  3 active torsions:
REMARK  status: ('A' for Active; 'I' for Inactive)
REMARK    1  A    between atoms: C_9  and  C_10 
REMARK    2  A    between atoms: C_16  and  C_17 
REMARK       I    between atoms: C_17  and  N_18 
REMARK    3  A    between atoms: N_18  and  C_19 
ROOT
HETATM    1  C   UNL     1      -3.479   1.245 -31.216  1.00  0.00     0.070 C 
HETATM    2  C   UNL     1      -4.412   2.417 -31.398  1.00  0.00     0.037 C 
HETATM    3  N   UNL     1      -4.161   3.514 -30.575  1.00  0.00    -0.191 N 
HETATM    4  C   UNL     1      -4.729   4.722 -30.774  1.00  0.00     0.735 A 
HETATM    5  N   UNL     1      -5.705   4.852 -31.720  1.00  0.00    -0.092 N 
HETATM    6  N   UNL     1      -6.091   6.132 -31.819  1.00  0.00     0.012 NA
HETATM    7  N   UNL     1      -5.370   6.767 -30.899  1.00  0.00     0.033 NA
HETATM    8  N   UNL     1      -4.517   5.899 -30.241  1.00  0.00     0.030 NA
HETATM    9  C   UNL     1      -6.222   3.757 -32.538  1.00  0.00     0.199 C 
HETATM   10  C   UNL     1      -5.396   2.488 -32.330  1.00  0.00     0.062 C 
HETATM   11  H   UNL     1      -3.363   3.456 -29.947  1.00  0.00     0.184 HD
ENDROOT
BRANCH  10  12
HETATM   12  C   UNL     1      -5.693   1.414 -33.316  1.00  0.00     0.256 C 
HETATM   13  N   UNL     1      -5.451   0.145 -32.840  1.00  0.00    -0.323 N 
HETATM   14  H   UNL     1      -5.142   0.060 -31.880  1.00  0.00     0.169 HD
HETATM   15  O   UNL     1      -6.159   1.735 -34.402  1.00  0.00    -0.267 OA
BRANCH  13  16
HETATM   16  C   UNL     1      -5.563  -1.069 -33.551  1.00  0.00     0.035 A 
HETATM   17  C   UNL     1      -4.471  -1.820 -33.989  1.00  0.00     0.029 A 
HETATM   18  C   UNL     1      -4.667  -3.027 -34.670  1.00  0.00     0.002 A 
HETATM   19  C   UNL     1      -5.955  -3.495 -34.913  1.00  0.00     0.000 A 
HETATM   20  C   UNL     1      -7.052  -2.753 -34.481  1.00  0.00     0.002 A 
HETATM   21  C   UNL     1      -6.856  -1.543 -33.809  1.00  0.00     0.029 A 
ENDBRANCH  13  16
ENDBRANCH  10  12
BRANCH   9  22
HETATM   22  C   UNL     1      -7.695   3.531 -32.252  1.00  0.00    -0.011 A 
HETATM   23  C   UNL     1      -8.685   3.786 -33.201  1.00  0.00     0.125 A 
HETATM   24  N   UNL     1     -10.009   3.632 -32.979  1.00  0.00    -0.272 NA
HETATM   25  C   UNL     1     -10.374   3.185 -31.759  1.00  0.00     0.116 A 
HETATM   26  C   UNL     1      -9.477   2.904 -30.744  1.00  0.00     0.020 A 
HETATM   27  C   UNL     1      -8.120   3.088 -30.993  1.00  0.00     0.012 A 
ENDBRANCH   9  22
TORSDOF 3
ENDMDL
