MODEL 1
REMARK VINA RESULT:     -10.2      0.000      0.000
REMARK  2 active torsions:
REMARK  status: ('A' for Active; 'I' for Inactive)
REMARK    1  A    between atoms: C_4  and  C_5 
REMARK       I    between atoms: N_12  and  C_13 
REMARK    2  A    between atoms: C_13  and  C_14 
ROOT
HETATM    1  C   UNL     1      -7.115   0.634 -32.469  1.00  0.00     0.097 A 
HETATM    2  N   UNL     1      -7.964   0.364 -31.459  1.00  0.00    -0.173 NA
HETATM    3  N   UNL     1      -8.361   1.562 -31.002  1.00  0.00    -0.281 N 
HETATM    4  H   UNL     1      -8.997   1.590 -30.211  1.00  0.00     0.189 HD
HETATM    5  C   UNL     1      -7.795   2.593 -31.675  1.00  0.00     0.039 A 
HETATM    6  C   UNL     1      -6.997   2.043 -32.652  1.00  0.00     0.015 A 
HETATM    7  C   UNL     1      -6.184   2.863 -33.591  1.00  0.00     0.168 C 
HETATM    8  N   UNL     1      -6.058   4.241 -33.063  1.00  0.00    -0.347 N 
HETATM    9  C   UNL     1      -5.009   5.102 -33.385  1.00  0.00     0.226 C 
HETATM   10  O   UNL     1      -5.118   6.318 -33.220  1.00  0.00    -0.273 OA
HETATM   11  C   UNL     1      -7.302   4.846 -32.530  1.00  0.00     0.132 C 
HETATM   12  C   UNL     1      -7.918   4.036 -31.370  1.00  0.00     0.079 C 
ENDROOT
BRANCH   9  13
HETATM   13  C   UNL     1      -3.733   4.500 -33.984  1.00  0.00     0.106 C 
HETATM   14  C   UNL     1      -3.016   5.495 -34.897  1.00  0.00     0.190 C 
HETATM   15  O   UNL     1      -2.380   6.582 -34.223  1.00  0.00    -0.350 OA
HETATM   16  C   UNL     1      -1.653   6.241 -33.120  1.00  0.00     0.075 A 
HETATM   17  C   UNL     1      -1.785   5.023 -32.457  1.00  0.00    -0.024 A 
HETATM   18  C   UNL     1      -0.764   7.206 -32.648  1.00  0.00     0.037 A 
HETATM   19  C   UNL     1      -2.759   3.983 -32.925  1.00  0.00     0.057 C 
HETATM   20  C   UNL     1      -0.979   4.761 -31.338  1.00  0.00     0.010 A 
HETATM   21  C   UNL     1      -0.077   5.720 -30.876  1.00  0.00     0.001 A 
HETATM   22  C   UNL     1       0.026   6.946 -31.528  1.00  0.00     0.003 A 
ENDBRANCH   9  13
BRANCH   1  23
HETATM   23  C   UNL     1      -6.420  -0.448 -33.171  1.00  0.00    -0.005 A 
HETATM   24  C   UNL     1      -5.047  -0.668 -33.008  1.00  0.00     0.014 A 
HETATM   25  C   UNL     1      -4.417  -1.734 -33.658  1.00  0.00     0.001 A 
HETATM   26  C   UNL     1      -5.151  -2.583 -34.485  1.00  0.00     0.000 A 
HETATM   27  C   UNL     1      -6.514  -2.364 -34.669  1.00  0.00     0.001 A 
HETATM   28  C   UNL     1      -7.143  -1.302 -34.017  1.00  0.00     0.014 A 
ENDBRANCH   1  23
TORSDOF 2
ENDMDL
MODEL 2
REMARK VINA RESULT:      -9.9      2.898      7.649
REMARK  2 active torsions:
REMARK  status: ('A' for Active; 'I' for Inactive)
REMARK    1  A    between atoms: C_4  and  C_5 
REMARK       I    between atoms: N_12  and  C_13 
REMARK    2  A    between atoms: C_13  and  C_14 
ROOT
HETATM    1  C   UNL     1      -4.033   4.785 -31.421  1.00  0.00     0.097 A 
HETATM    2  N   UNL     1      -4.642   5.718 -30.663  1.00  0.00    -0.173 NA
HETATM    3  N   UNL     1      -5.508   5.038 -29.896  1.00  0.00    -0.281 N 
HETATM    4  H   UNL     1      -6.097   5.561 -29.255  1.00  0.00     0.189 HD
HETATM    5  C   UNL     1      -5.486   3.705 -30.135  1.00  0.00     0.039 A 
HETATM    6  C   UNL     1      -4.528   3.487 -31.100  1.00  0.00     0.015 A 
HETATM    7  C   UNL     1      -4.223   2.139 -31.649  1.00  0.00     0.168 C 
HETATM    8  N   UNL     1      -5.328   1.208 -31.320  1.00  0.00    -0.347 N 
HETATM    9  C   UNL     1      -5.623   0.062 -32.058  1.00  0.00     0.226 C 
HETATM   10  O   UNL     1      -6.295  -0.848 -31.568  1.00  0.00    -0.273 OA
HETATM   11  C   UNL     1      -5.841   1.279 -29.930  1.00  0.00     0.132 C 
HETATM   12  C   UNL     1      -6.380   2.677 -29.557  1.00  0.00     0.079 C 
ENDROOT
BRANCH   9  13
HETATM   13  C   UNL     1      -5.060  -0.051 -33.479  1.00  0.00     0.106 C 
HETATM   14  C   UNL     1      -3.631  -0.596 -33.476  1.00  0.00     0.190 C 
HETATM   15  O   UNL     1      -3.514  -1.981 -33.144  1.00  0.00    -0.350 OA
HETATM   16  C   UNL     1      -4.406  -2.807 -33.765  1.00  0.00     0.075 A 
HETATM   17  C   UNL     1      -5.572  -2.358 -34.381  1.00  0.00    -0.024 A 
HETATM   18  C   UNL     1      -4.110  -4.169 -33.728  1.00  0.00     0.037 A 
HETATM   19  C   UNL     1      -5.930  -0.902 -34.403  1.00  0.00     0.057 C 
HETATM   20  C   UNL     1      -6.418  -3.288 -35.006  1.00  0.00     0.010 A 
HETATM   21  C   UNL     1      -6.112  -4.649 -34.984  1.00  0.00     0.001 A 
HETATM   22  C   UNL     1      -4.960  -5.090 -34.339  1.00  0.00     0.003 A 
ENDBRANCH   9  13
BRANCH   1  23
HETATM   23  C   UNL     1      -3.059   5.173 -32.444  1.00  0.00    -0.005 A 
HETATM   24  C   UNL     1      -3.215   4.806 -33.786  1.00  0.00     0.014 A 
HETATM   25  C   UNL     1      -2.291   5.224 -34.749  1.00  0.00     0.001 A 
HETATM   26  C   UNL     1      -1.196   6.003 -34.377  1.00  0.00     0.000 A 
HETATM   27  C   UNL     1      -1.019   6.359 -33.042  1.00  0.00     0.001 A 
HETATM   28  C   UNL     1      -1.944   5.945 -32.082  1.00  0.00     0.014 A 
ENDBRANCH   1  23
TORSDOF 2
ENDMDL
MODEL 3
REMARK VINA RESULT:      -9.1      4.094      7.031
REMARK  2 active torsions:
REMARK  status: ('A' for Active; 'I' for Inactive)
REMARK    1  A    between atoms: C_4  and  C_5 
REMARK       I    between atoms: N_12  and  C_13 
REMARK    2  A    between atoms: C_13  and  C_14 
ROOT
HETATM    1  C   UNL     1      -3.895  -1.449 -32.148  1.00  0.00     0.097 A 
HETATM    2  N   UNL     1      -2.659  -1.127 -31.719  1.00  0.00    -0.173 NA
HETATM    3  N   UNL     1      -2.810   0.018 -31.037  1.00  0.00    -0.281 N 
HETATM    4  H   UNL     1      -1.984   0.456 -30.640  1.00  0.00     0.189 HD
HETATM    5  C   UNL     1      -4.094   0.449 -31.014  1.00  0.00     0.039 A 
HETATM    6  C   UNL     1      -4.841  -0.481 -31.702  1.00  0.00     0.015 A 
HETATM    7  C   UNL     1      -6.306  -0.345 -31.916  1.00  0.00     0.168 C 
HETATM    8  N   UNL     1      -6.718   1.054 -31.656  1.00  0.00    -0.347 N 
HETATM    9  C   UNL     1      -7.851   1.646 -32.214  1.00  0.00     0.226 C 
HETATM   10  O   UNL     1      -8.344   2.659 -31.714  1.00  0.00    -0.273 OA
HETATM   11  C   UNL     1      -6.145   1.682 -30.441  1.00  0.00     0.132 C 
HETATM   12  C   UNL     1      -4.601   1.721 -30.454  1.00  0.00     0.079 C 
ENDROOT
BRANCH   9  13
HETATM   13  C   UNL     1      -8.487   0.983 -33.441  1.00  0.00     0.106 C 
HETATM   14  C   UNL     1      -9.696   0.129 -33.056  1.00  0.00     0.190 C 
HETATM   15  O   UNL     1     -10.852   0.868 -32.653  1.00  0.00    -0.350 OA
HETATM   16  C   UNL     1     -11.171   1.930 -33.448  1.00  0.00     0.075 A 
HETATM   17  C   UNL     1     -10.286   2.508 -34.355  1.00  0.00    -0.024 A 
HETATM   18  C   UNL     1     -12.453   2.454 -33.285  1.00  0.00     0.037 A 
HETATM   19  C   UNL     1      -8.891   1.984 -34.522  1.00  0.00     0.057 C 
HETATM   20  C   UNL     1     -10.717   3.590 -35.138  1.00  0.00     0.010 A 
HETATM   21  C   UNL     1     -12.006   4.103 -34.988  1.00  0.00     0.001 A 
HETATM   22  C   UNL     1     -12.873   3.538 -34.057  1.00  0.00     0.003 A 
ENDBRANCH   9  13
BRANCH   1  23
HETATM   23  C   UNL     1      -4.108  -2.622 -33.000  1.00  0.00    -0.005 A 
HETATM   24  C   UNL     1      -3.458  -3.838 -32.755  1.00  0.00     0.014 A 
HETATM   25  C   UNL     1      -3.711  -4.953 -33.560  1.00  0.00     0.001 A 
HETATM   26  C   UNL     1      -4.607  -4.861 -34.623  1.00  0.00     0.000 A 
HETATM   27  C   UNL     1      -5.246  -3.652 -34.889  1.00  0.00     0.001 A 
HETATM   28  C   UNL     1      -4.996  -2.540 -34.083  1.00  0.00     0.014 A 
ENDBRANCH   1  23
TORSDOF 2
ENDMDL
MODEL 4
REMARK VINA RESULT:      -9.0      2.544      4.076
REMARK  2 active torsions:
REMARK  status: ('A' for Active; 'I' for Inactive)
REMARK    1  A    between atoms: C_4  and  C_5 
REMARK       I    between atoms: N_12  and  C_13 
REMARK    2  A    between atoms: C_13  and  C_14 
ROOT
HETATM    1  C   UNL     1      -7.275  -0.548 -33.474  1.00  0.00     0.097 A 
HETATM    2  N   UNL     1      -7.013  -1.713 -34.097  1.00  0.00    -0.173 NA
HETATM    3  N   UNL     1      -5.723  -1.972 -33.833  1.00  0.00    -0.281 N 
HETATM    4  H   UNL     1      -5.307  -2.808 -34.233  1.00  0.00     0.189 HD
HETATM    5  C   UNL     1      -5.143  -1.016 -33.068  1.00  0.00     0.039 A 
HETATM    6  C   UNL     1      -6.115  -0.082 -32.789  1.00  0.00     0.015 A 
HETATM    7  C   UNL     1      -5.855   1.142 -31.985  1.00  0.00     0.168 C 
HETATM    8  N   UNL     1      -4.395   1.381 -31.905  1.00  0.00    -0.347 N 
HETATM    9  C   UNL     1      -3.825   2.635 -31.685  1.00  0.00     0.226 C 
HETATM   10  O   UNL     1      -2.666   2.739 -31.280  1.00  0.00    -0.273 OA
HETATM   11  C   UNL     1      -3.559   0.190 -31.623  1.00  0.00     0.132 C 
HETATM   12  C   UNL     1      -3.718  -0.922 -32.682  1.00  0.00     0.079 C 
ENDROOT
BRANCH   9  13
HETATM   13  C   UNL     1      -4.690   3.878 -31.923  1.00  0.00     0.106 C 
HETATM   14  C   UNL     1      -4.652   4.828 -30.725  1.00  0.00     0.190 C 
HETATM   15  O   UNL     1      -3.417   5.523 -30.546  1.00  0.00    -0.350 OA
HETATM   16  C   UNL     1      -2.879   6.061 -31.680  1.00  0.00     0.075 A 
HETATM   17  C   UNL     1      -3.260   5.685 -32.966  1.00  0.00    -0.024 A 
HETATM   18  C   UNL     1      -1.877   7.012 -31.493  1.00  0.00     0.037 A 
HETATM   19  C   UNL     1      -4.310   4.639 -33.193  1.00  0.00     0.057 C 
HETATM   20  C   UNL     1      -2.656   6.309 -34.069  1.00  0.00     0.010 A 
HETATM   21  C   UNL     1      -1.666   7.273 -33.881  1.00  0.00     0.001 A 
HETATM   22  C   UNL     1      -1.271   7.620 -32.592  1.00  0.00     0.003 A 
ENDBRANCH   9  13
BRANCH   1  23
HETATM   23  C   UNL     1      -8.588   0.089 -33.602  1.00  0.00    -0.005 A 
HETATM   24  C   UNL     1      -9.712  -0.399 -32.926  1.00  0.00     0.014 A 
HETATM   25  C   UNL     1     -10.945   0.253 -33.035  1.00  0.00     0.001 A 
HETATM   26  C   UNL     1     -11.067   1.392 -33.828  1.00  0.00     0.000 A 
HETATM   27  C   UNL     1      -9.961   1.878 -34.520  1.00  0.00     0.001 A 
HETATM   28  C   UNL     1      -8.730   1.229 -34.409  1.00  0.00     0.014 A 
ENDBRANCH   1  23
TORSDOF 2
ENDMDL
MODEL 5
REMARK VINA RESULT:      -8.5      2.985      4.725
REMARK  2 active torsions:
REMARK  status: ('A' for Active; 'I' for Inactive)
REMARK    1  A    between atoms: C_4  and  C_5 
REMARK       I    between atoms: N_12  and  C_13 
REMARK    2  A    between atoms: C_13  and  C_14 
ROOT
HETATM    1  C   UNL     1     -10.492   1.881 -33.193  1.00  0.00     0.097 A 
HETATM    2  N   UNL     1     -10.896   0.605 -33.046  1.00  0.00    -0.173 NA
HETATM    3  N   UNL     1      -9.916   0.002 -32.355  1.00  0.00    -0.281 N 
HETATM    4  H   UNL     1     -10.009  -0.988 -32.151  1.00  0.00     0.189 HD
HETATM    5  C   UNL     1      -8.894   0.840 -32.057  1.00  0.00     0.039 A 
HETATM    6  C   UNL     1      -9.230   2.077 -32.559  1.00  0.00     0.015 A 
HETATM    7  C   UNL     1      -8.341   3.264 -32.450  1.00  0.00     0.168 C 
HETATM    8  N   UNL     1      -6.966   2.826 -32.118  1.00  0.00    -0.347 N 
HETATM    9  C   UNL     1      -5.822   3.563 -32.421  1.00  0.00     0.226 C 
HETATM   10  O   UNL     1      -4.760   3.349 -31.833  1.00  0.00    -0.273 OA
HETATM   11  C   UNL     1      -6.855   1.791 -31.061  1.00  0.00     0.132 C 
HETATM   12  C   UNL     1      -7.610   0.490 -31.410  1.00  0.00     0.079 C 
ENDROOT
BRANCH   9  13
HETATM   13  C   UNL     1      -5.929   4.671 -33.474  1.00  0.00     0.106 C 
HETATM   14  C   UNL     1      -5.927   6.059 -32.834  1.00  0.00     0.190 C 
HETATM   15  O   UNL     1      -4.670   6.472 -32.294  1.00  0.00    -0.350 OA
HETATM   16  C   UNL     1      -3.588   6.244 -33.093  1.00  0.00     0.075 A 
HETATM   17  C   UNL     1      -3.600   5.365 -34.174  1.00  0.00    -0.024 A 
HETATM   18  C   UNL     1      -2.419   6.924 -32.753  1.00  0.00     0.037 A 
HETATM   19  C   UNL     1      -4.834   4.596 -34.538  1.00  0.00     0.057 C 
HETATM   20  C   UNL     1      -2.437   5.211 -34.944  1.00  0.00     0.010 A 
HETATM   21  C   UNL     1      -1.273   5.906 -34.615  1.00  0.00     0.001 A 
HETATM   22  C   UNL     1      -1.262   6.758 -33.514  1.00  0.00     0.003 A 
ENDBRANCH   9  13
BRANCH   1  23
HETATM   23  C   UNL     1     -11.291   2.833 -33.970  1.00  0.00    -0.005 A 
HETATM   24  C   UNL     1     -11.708   4.056 -33.430  1.00  0.00     0.014 A 
HETATM   25  C   UNL     1     -12.435   4.963 -34.207  1.00  0.00     0.001 A 
HETATM   26  C   UNL     1     -12.761   4.653 -35.526  1.00  0.00     0.000 A 
HETATM   27  C   UNL     1     -12.368   3.432 -36.069  1.00  0.00     0.001 A 
HETATM   28  C   UNL     1     -11.639   2.528 -35.294  1.00  0.00     0.014 A 
ENDBRANCH   1  23
TORSDOF 2
ENDMDL
MODEL 6
REMARK VINA RESULT:      -8.3      2.934      7.593
REMARK  2 active torsions:
REMARK  status: ('A' for Active; 'I' for Inactive)
REMARK    1  A    between atoms: C_4  and  C_5 
REMARK       I    between atoms: N_12  and  C_13 
REMARK    2  A    between atoms: C_13  and  C_14 
ROOT
HETATM    1  C   UNL     1      -3.403   7.182 -29.728  1.00  0.00     0.097 A 
HETATM    2  N   UNL     1      -3.803   8.312 -29.111  1.00  0.00    -0.173 NA
HETATM    3  N   UNL     1      -5.104   8.125 -28.842  1.00  0.00    -0.281 N 
HETATM    4  H   UNL     1      -5.616   8.877 -28.390  1.00  0.00     0.189 HD
HETATM    5  C   UNL     1      -5.559   6.921 -29.266  1.00  0.00     0.039 A 
HETATM    6  C   UNL     1      -4.488   6.263 -29.827  1.00  0.00     0.015 A 
HETATM    7  C   UNL     1      -4.596   4.909 -30.432  1.00  0.00     0.168 C 
HETATM    8  N   UNL     1      -6.020   4.594 -30.691  1.00  0.00    -0.347 N 
HETATM    9  C   UNL     1      -6.451   3.687 -31.660  1.00  0.00     0.226 C 
HETATM   10  O   UNL     1      -7.581   3.198 -31.607  1.00  0.00    -0.273 OA
HETATM   11  C   UNL     1      -6.966   4.931 -29.600  1.00  0.00     0.132 C 
HETATM   12  C   UNL     1      -6.955   6.431 -29.235  1.00  0.00     0.079 C 
ENDROOT
BRANCH   9  13
HETATM   13  C   UNL     1      -5.470   3.288 -32.767  1.00  0.00     0.106 C 
HETATM   14  C   UNL     1      -4.493   2.211 -32.293  1.00  0.00     0.190 C 
HETATM   15  O   UNL     1      -5.067   0.915 -32.111  1.00  0.00    -0.350 OA
HETATM   16  C   UNL     1      -5.890   0.494 -33.115  1.00  0.00     0.075 A 
HETATM   17  C   UNL     1      -6.445   1.348 -34.065  1.00  0.00    -0.024 A 
HETATM   18  C   UNL     1      -6.190  -0.868 -33.133  1.00  0.00     0.037 A 
HETATM   19  C   UNL     1      -6.165   2.821 -34.046  1.00  0.00     0.057 C 
HETATM   20  C   UNL     1      -7.268   0.814 -35.068  1.00  0.00     0.010 A 
HETATM   21  C   UNL     1      -7.554  -0.551 -35.096  1.00  0.00     0.001 A 
HETATM   22  C   UNL     1      -7.019  -1.392 -34.124  1.00  0.00     0.003 A 
ENDBRANCH   9  13
BRANCH   1  23
HETATM   23  C   UNL     1      -2.036   7.054 -30.238  1.00  0.00    -0.005 A 
HETATM   24  C   UNL     1      -0.958   6.770 -29.391  1.00  0.00     0.014 A 
HETATM   25  C   UNL     1       0.331   6.613 -29.911  1.00  0.00     0.001 A 
HETATM   26  C   UNL     1       0.556   6.746 -31.280  1.00  0.00     0.000 A 
HETATM   27  C   UNL     1      -0.505   7.046 -32.131  1.00  0.00     0.001 A 
HETATM   28  C   UNL     1      -1.792   7.200 -31.612  1.00  0.00     0.014 A 
ENDBRANCH   1  23
TORSDOF 2
ENDMDL
MODEL 7
REMARK VINA RESULT:      -8.2      3.104      5.343
REMARK  2 active torsions:
REMARK  status: ('A' for Active; 'I' for Inactive)
REMARK    1  A    between atoms: C_4  and  C_5 
REMARK       I    between atoms: N_12  and  C_13 
REMARK    2  A    between atoms: C_13  and  C_14 
ROOT
HETATM    1  C   UNL     1      -4.609   3.614 -32.999  1.00  0.00     0.097 A 
HETATM    2  N   UNL     1      -5.344   3.901 -34.091  1.00  0.00    -0.173 NA
HETATM    3  N   UNL     1      -4.652   4.848 -34.742  1.00  0.00    -0.281 N 
HETATM    4  H   UNL     1      -5.046   5.231 -35.597  1.00  0.00     0.189 HD
HETATM    5  C   UNL     1      -3.503   5.187 -34.109  1.00  0.00     0.039 A 
HETATM    6  C   UNL     1      -3.418   4.397 -32.985  1.00  0.00     0.015 A 
HETATM    7  C   UNL     1      -2.297   4.492 -32.012  1.00  0.00     0.168 C 
HETATM    8  N   UNL     1      -1.573   5.768 -32.213  1.00  0.00    -0.347 N 
HETATM    9  C   UNL     1      -0.831   6.405 -31.218  1.00  0.00     0.226 C 
HETATM   10  O   UNL     1       0.022   7.246 -31.509  1.00  0.00    -0.273 OA
HETATM   11  C   UNL     1      -1.286   6.133 -33.621  1.00  0.00     0.132 C 
HETATM   12  C   UNL     1      -2.561   6.265 -34.482  1.00  0.00     0.079 C 
ENDROOT
BRANCH   9  13
HETATM   13  C   UNL     1      -1.078   6.005 -29.760  1.00  0.00     0.106 C 
HETATM   14  C   UNL     1       0.211   5.546 -29.076  1.00  0.00     0.190 C 
HETATM   15  O   UNL     1       1.150   6.587 -28.800  1.00  0.00    -0.350 OA
HETATM   16  C   UNL     1       0.622   7.721 -28.254  1.00  0.00     0.075 A 
HETATM   17  C   UNL     1      -0.736   8.031 -28.284  1.00  0.00    -0.024 A 
HETATM   18  C   UNL     1       1.532   8.603 -27.673  1.00  0.00     0.037 A 
HETATM   19  C   UNL     1      -1.729   7.115 -28.934  1.00  0.00     0.057 C 
HETATM   20  C   UNL     1      -1.181   9.217 -27.680  1.00  0.00     0.010 A 
HETATM   21  C   UNL     1      -0.273  10.091 -27.083  1.00  0.00     0.001 A 
HETATM   22  C   UNL     1       1.086   9.786 -27.085  1.00  0.00     0.003 A 
ENDBRANCH   9  13
BRANCH   1  23
HETATM   23  C   UNL     1      -5.095   2.657 -32.001  1.00  0.00    -0.005 A 
HETATM   24  C   UNL     1      -4.670   1.323 -31.994  1.00  0.00     0.014 A 
HETATM   25  C   UNL     1      -5.119   0.441 -31.005  1.00  0.00     0.001 A 
HETATM   26  C   UNL     1      -6.004   0.882 -30.022  1.00  0.00     0.000 A 
HETATM   27  C   UNL     1      -6.448   2.201 -30.030  1.00  0.00     0.001 A 
HETATM   28  C   UNL     1      -5.997   3.082 -31.014  1.00  0.00     0.014 A 
ENDBRANCH   1  23
TORSDOF 2
ENDMDL
MODEL 8
REMARK VINA RESULT:      -8.1     17.244     18.910
REMARK  2 active torsions:
REMARK  status: ('A' for Active; 'I' for Inactive)
REMARK    1  A    between atoms: C_4  and  C_5 
REMARK       I    between atoms: N_12  and  C_13 
REMARK    2  A    between atoms: C_13  and  C_14 
ROOT
HETATM    1  C   UNL     1      -7.006 -12.668 -40.066  1.00  0.00     0.097 A 
HETATM    2  N   UNL     1      -6.443 -11.752 -40.878  1.00  0.00    -0.173 NA
HETATM    3  N   UNL     1      -5.162 -11.673 -40.486  1.00  0.00    -0.281 N 
HETATM    4  H   UNL     1      -4.553 -11.013 -40.959  1.00  0.00     0.189 HD
HETATM    5  C   UNL     1      -4.880 -12.498 -39.449  1.00  0.00     0.039 A 
HETATM    6  C   UNL     1      -6.038 -13.182 -39.155  1.00  0.00     0.015 A 
HETATM    7  C   UNL     1      -6.134 -14.173 -38.050  1.00  0.00     0.168 C 
HETATM    8  N   UNL     1      -4.990 -13.998 -37.125  1.00  0.00    -0.347 N 
HETATM    9  C   UNL     1      -5.012 -14.376 -35.783  1.00  0.00     0.226 C 
HETATM   10  O   UNL     1      -3.963 -14.541 -35.157  1.00  0.00    -0.273 OA
HETATM   11  C   UNL     1      -3.665 -13.816 -37.764  1.00  0.00     0.132 C 
HETATM   12  C   UNL     1      -3.609 -12.587 -38.697  1.00  0.00     0.079 C 
ENDROOT
BRANCH   9  13
HETATM   13  C   UNL     1      -6.372 -14.617 -35.118  1.00  0.00     0.106 C 
HETATM   14  C   UNL     1      -6.813 -16.075 -35.252  1.00  0.00     0.190 C 
HETATM   15  O   UNL     1      -6.076 -17.004 -34.454  1.00  0.00    -0.350 OA
HETATM   16  C   UNL     1      -5.861 -16.621 -33.162  1.00  0.00     0.075 A 
HETATM   17  C   UNL     1      -5.998 -15.309 -32.714  1.00  0.00    -0.024 A 
HETATM   18  C   UNL     1      -5.452 -17.624 -32.285  1.00  0.00     0.037 A 
HETATM   19  C   UNL     1      -6.402 -14.206 -33.647  1.00  0.00     0.057 C 
HETATM   20  C   UNL     1      -5.768 -15.020 -31.360  1.00  0.00     0.010 A 
HETATM   21  C   UNL     1      -5.376 -16.027 -30.479  1.00  0.00     0.001 A 
HETATM   22  C   UNL     1      -5.213 -17.330 -30.943  1.00  0.00     0.003 A 
ENDBRANCH   9  13
BRANCH   1  23
HETATM   23  C   UNL     1      -8.437 -12.968 -40.157  1.00  0.00    -0.005 A 
HETATM   24  C   UNL     1      -9.409 -11.974 -39.988  1.00  0.00     0.014 A 
HETATM   25  C   UNL     1     -10.768 -12.281 -40.120  1.00  0.00     0.001 A 
HETATM   26  C   UNL     1     -11.166 -13.584 -40.412  1.00  0.00     0.000 A 
HETATM   27  C   UNL     1     -10.210 -14.585 -40.564  1.00  0.00     0.001 A 
HETATM   28  C   UNL     1      -8.854 -14.278 -40.435  1.00  0.00     0.014 A 
ENDBRANCH   1  23
TORSDOF 2
ENDMDL
MODEL 9
REMARK VINA RESULT:      -8.1      3.585      7.857
REMARK  2 active torsions:
REMARK  status: ('A' for Active; 'I' for Inactive)
REMARK    1  A    between atoms: C_4  and  C_5 
REMARK       I    between atoms: N_12  and  C_13 
REMARK    2  A    between atoms: C_13  and  C_14 
ROOT
HETATM    1  C   UNL     1      -4.120   5.174 -31.367  1.00  0.00     0.097 A 
HETATM    2  N   UNL     1      -3.878   6.059 -30.380  1.00  0.00    -0.173 NA
HETATM    3  N   UNL     1      -4.826   5.827 -29.458  1.00  0.00    -0.281 N 
HETATM    4  H   UNL     1      -4.842   6.409 -28.626  1.00  0.00     0.189 HD
HETATM    5  C   UNL     1      -5.672   4.831 -29.816  1.00  0.00     0.039 A 
HETATM    6  C   UNL     1      -5.241   4.359 -31.036  1.00  0.00     0.015 A 
HETATM    7  C   UNL     1      -5.935   3.269 -31.773  1.00  0.00     0.168 C 
HETATM    8  N   UNL     1      -7.297   3.086 -31.222  1.00  0.00    -0.347 N 
HETATM    9  C   UNL     1      -8.361   2.544 -31.944  1.00  0.00     0.226 C 
HETATM   10  O   UNL     1      -9.349   2.090 -31.364  1.00  0.00    -0.273 OA
HETATM   11  C   UNL     1      -7.401   3.083 -29.743  1.00  0.00     0.132 C 
HETATM   12  C   UNL     1      -6.888   4.389 -29.099  1.00  0.00     0.079 C 
ENDROOT
BRANCH   9  13
HETATM   13  C   UNL     1      -8.250   2.494 -33.471  1.00  0.00     0.106 C 
HETATM   14  C   UNL     1      -8.620   1.114 -34.017  1.00  0.00     0.190 C 
HETATM   15  O   UNL     1     -10.010   0.790 -33.945  1.00  0.00    -0.350 OA
HETATM   16  C   UNL     1     -10.861   1.777 -34.349  1.00  0.00     0.075 A 
HETATM   17  C   UNL     1     -10.487   3.113 -34.476  1.00  0.00    -0.024 A 
HETATM   18  C   UNL     1     -12.175   1.387 -34.608  1.00  0.00     0.037 A 
HETATM   19  C   UNL     1      -9.090   3.562 -34.170  1.00  0.00     0.057 C 
HETATM   20  C   UNL     1     -11.435   4.051 -34.914  1.00  0.00     0.010 A 
HETATM   21  C   UNL     1     -12.745   3.657 -35.190  1.00  0.00     0.001 A 
HETATM   22  C   UNL     1     -13.116   2.324 -35.031  1.00  0.00     0.003 A 
ENDBRANCH   9  13
BRANCH   1  23
HETATM   23  C   UNL     1      -3.314   5.181 -32.590  1.00  0.00    -0.005 A 
HETATM   24  C   UNL     1      -3.900   5.302 -33.857  1.00  0.00     0.014 A 
HETATM   25  C   UNL     1      -3.104   5.346 -35.005  1.00  0.00     0.001 A 
HETATM   26  C   UNL     1      -1.716   5.261 -34.901  1.00  0.00     0.000 A 
HETATM   27  C   UNL     1      -1.123   5.123 -33.649  1.00  0.00     0.001 A 
HETATM   28  C   UNL     1      -1.917   5.082 -32.501  1.00  0.00     0.014 A 
ENDBRANCH   1  23
TORSDOF 2
ENDMDL
MODEL 10
REMARK VINA RESULT:      -7.8      4.582      7.714
REMARK  2 active torsions:
REMARK  status: ('A' for Active; 'I' for Inactive)
REMARK    1  A    between atoms: C_4  and  C_5 
REMARK       I    between atoms: N_12  and  C_13 
REMARK    2  A    between atoms: C_13  and  C_14 
ROOT
HETATM    1  C   UNL     1      -5.620   1.008 -31.273  1.00  0.00     0.097 A 
HETATM    2  N   UNL     1      -4.687   1.515 -30.443  1.00  0.00    -0.173 NA
HETATM    3  N   UNL     1      -5.305   2.507 -29.783  1.00  0.00    -0.281 N 
HETATM    4  H   UNL     1      -4.767   3.047 -29.111  1.00  0.00     0.189 HD
HETATM    5  C   UNL     1      -6.597   2.662 -30.159  1.00  0.00     0.039 A 
HETATM    6  C   UNL     1      -6.856   1.698 -31.107  1.00  0.00     0.015 A 
HETATM    7  C   UNL     1      -8.174   1.561 -31.784  1.00  0.00     0.168 C 
HETATM    8  N   UNL     1      -8.960   2.802 -31.593  1.00  0.00    -0.347 N 
HETATM    9  C   UNL     1      -9.971   3.220 -32.458  1.00  0.00     0.226 C 
HETATM   10  O   UNL     1     -10.817   4.038 -32.090  1.00  0.00    -0.273 OA
HETATM   11  C   UNL     1      -8.952   3.369 -30.223  1.00  0.00     0.132 C 
HETATM   12  C   UNL     1      -7.534   3.721 -29.725  1.00  0.00     0.079 C 
ENDROOT
BRANCH   9  13
HETATM   13  C   UNL     1     -10.026   2.608 -33.862  1.00  0.00     0.106 C 
HETATM   14  C   UNL     1      -9.713   1.112 -33.836  1.00  0.00     0.190 C 
HETATM   15  O   UNL     1     -10.734   0.292 -33.263  1.00  0.00    -0.350 OA
HETATM   16  C   UNL     1     -12.006   0.572 -33.673  1.00  0.00     0.075 A 
HETATM   17  C   UNL     1     -12.370   1.763 -34.297  1.00  0.00    -0.024 A 
HETATM   18  C   UNL     1     -12.966  -0.402 -33.403  1.00  0.00     0.037 A 
HETATM   19  C   UNL     1     -11.362   2.840 -34.567  1.00  0.00     0.057 C 
HETATM   20  C   UNL     1     -13.703   1.949 -34.694  1.00  0.00     0.010 A 
HETATM   21  C   UNL     1     -14.660   0.966 -34.440  1.00  0.00     0.001 A 
HETATM   22  C   UNL     1     -14.292  -0.208 -33.789  1.00  0.00     0.003 A 
ENDBRANCH   9  13
BRANCH   1  23
HETATM   23  C   UNL     1      -5.280  -0.062 -32.214  1.00  0.00    -0.005 A 
HETATM   24  C   UNL     1      -3.973  -0.551 -32.332  1.00  0.00     0.014 A 
HETATM   25  C   UNL     1      -3.685  -1.601 -33.209  1.00  0.00     0.001 A 
HETATM   26  C   UNL     1      -4.697  -2.164 -33.985  1.00  0.00     0.000 A 
HETATM   27  C   UNL     1      -5.997  -1.674 -33.891  1.00  0.00     0.001 A 
HETATM   28  C   UNL     1      -6.285  -0.629 -33.012  1.00  0.00     0.014 A 
ENDBRANCH   1  23
TORSDOF 2
ENDMDL
