MODEL 1
REMARK VINA RESULT:      -8.7      0.000      0.000
REMARK  7 active torsions:
REMARK  status: ('A' for Active; 'I' for Inactive)
REMARK    1  A    between atoms: O_2  and  C_3 
REMARK    2  A    between atoms: C_5  and  C_6 
REMARK       I    between atoms: C_6  and  N_7 
REMARK    3  A    between atoms: N_7  and  C_8 
REMARK    4  A    between atoms: C_8  and  N_9 
REMARK    5  A    between atoms: N_9  and  C_10 
REMARK    6  A    between atoms: C_13  and  N_14 
REMARK       I    between atoms: N_17  and  C_18 
REMARK    7  A    between atoms: C_18  and  C_19 
ROOT
HETATM    1  C   UNL     1      -9.821   3.598 -32.363  1.00  0.00     0.034 A 
HETATM    2  C   UNL     1      -8.982   3.187 -31.331  1.00  0.00     0.032 A 
HETATM    3  C   UNL     1      -7.620   3.526 -31.330  1.00  0.00     0.031 A 
HETATM    4  C   UNL     1      -7.037   4.274 -32.365  1.00  0.00     0.030 A 
HETATM    5  C   UNL     1      -7.909   4.681 -33.391  1.00  0.00     0.031 A 
HETATM    6  C   UNL     1      -9.280   4.365 -33.389  1.00  0.00     0.032 A 
ENDROOT
BRANCH   1   7
HETATM    7  N   UNL     1     -11.143   3.096 -32.367  1.00  0.00    -0.333 N 
HETATM    8  H   UNL     1     -11.598   3.140 -31.462  1.00  0.00     0.168 HD
BRANCH   7   9
HETATM    9  C   UNL     1     -11.693   2.201 -33.219  1.00  0.00     0.179 C 
HETATM   10  S   UNL     1     -13.350   2.203 -33.458  1.00  0.00    -0.040 SA
BRANCH   9  11
HETATM   11  N   UNL     1     -10.933   1.342 -33.954  1.00  0.00    -0.299 N 
HETATM   12  C   UNL     1     -10.251   0.294 -33.349  1.00  0.00     0.257 C 
HETATM   13  O   UNL     1     -10.788  -0.600 -32.703  1.00  0.00    -0.267 OA
HETATM   14  H   UNL     1     -10.391   1.870 -34.618  1.00  0.00     0.171 HD
BRANCH  12  15
HETATM   15  C   UNL     1      -8.768   0.217 -33.588  1.00  0.00     0.035 A 
HETATM   16  C   UNL     1      -7.840  -0.142 -32.599  1.00  0.00     0.053 A 
HETATM   17  C   UNL     1      -6.472  -0.226 -32.891  1.00  0.00     0.069 A 
HETATM   18  C   UNL     1      -6.026   0.027 -34.186  1.00  0.00     0.037 A 
HETATM   19  C   UNL     1      -6.941   0.367 -35.184  1.00  0.00     0.004 A 
HETATM   20  C   UNL     1      -8.301   0.463 -34.887  1.00  0.00     0.017 A 
BRANCH  17  21
HETATM   21  O   UNL     1      -5.688  -0.570 -31.824  1.00  0.00    -0.356 OA
HETATM   22  C   UNL     1      -4.416  -1.140 -32.112  1.00  0.00     0.210 C 
ENDBRANCH  17  21
ENDBRANCH  12  15
ENDBRANCH   9  11
ENDBRANCH   7   9
ENDBRANCH   1   7
BRANCH   4  23
HETATM   23  N   UNL     1      -5.658   4.538 -32.438  1.00  0.00    -0.378 N 
HETATM   24  C   UNL     1      -4.895   4.641 -31.172  1.00  0.00     0.143 C 
HETATM   25  C   UNL     1      -3.375   4.616 -31.420  1.00  0.00     0.146 C 
HETATM   26  N   UNL     1      -2.949   5.585 -32.438  1.00  0.00    -0.345 N 
HETATM   27  C   UNL     1      -1.626   6.017 -32.543  1.00  0.00     0.253 C 
HETATM   28  C   UNL     1      -3.718   5.498 -33.681  1.00  0.00     0.146 C 
HETATM   29  O   UNL     1      -1.089   6.291 -33.614  1.00  0.00    -0.267 OA
HETATM   30  C   UNL     1      -5.238   5.548 -33.444  1.00  0.00     0.143 C 
BRANCH  27  31
HETATM   31  C   UNL     1      -0.833   6.204 -31.304  1.00  0.00     0.032 A 
HETATM   32  C   UNL     1      -0.994   7.380 -30.565  1.00  0.00     0.017 A 
HETATM   33  C   UNL     1      -0.291   7.550 -29.371  1.00  0.00     0.001 A 
HETATM   34  C   UNL     1       0.556   6.542 -28.910  1.00  0.00     0.000 A 
HETATM   35  C   UNL     1       0.699   5.358 -29.635  1.00  0.00     0.001 A 
HETATM   36  C   UNL     1      -0.002   5.182 -30.829  1.00  0.00     0.017 A 
ENDBRANCH  27  31
ENDBRANCH   4  23
TORSDOF 7
ENDMDL
MODEL 2
REMARK VINA RESULT:      -8.7      3.485      9.216
REMARK  7 active torsions:
REMARK  status: ('A' for Active; 'I' for Inactive)
REMARK    1  A    between atoms: O_2  and  C_3 
REMARK    2  A    between atoms: C_5  and  C_6 
REMARK       I    between atoms: C_6  and  N_7 
REMARK    3  A    between atoms: N_7  and  C_8 
REMARK    4  A    between atoms: C_8  and  N_9 
REMARK    5  A    between atoms: N_9  and  C_10 
REMARK    6  A    between atoms: C_13  and  N_14 
REMARK       I    between atoms: N_17  and  C_18 
REMARK    7  A    between atoms: C_18  and  C_19 
ROOT
HETATM    1  C   UNL     1      -5.079   5.892 -29.365  1.00  0.00     0.034 A 
HETATM    2  C   UNL     1      -6.023   4.982 -28.895  1.00  0.00     0.032 A 
HETATM    3  C   UNL     1      -6.365   3.846 -29.645  1.00  0.00     0.031 A 
HETATM    4  C   UNL     1      -5.793   3.581 -30.899  1.00  0.00     0.030 A 
HETATM    5  C   UNL     1      -4.839   4.513 -31.345  1.00  0.00     0.031 A 
HETATM    6  C   UNL     1      -4.472   5.641 -30.590  1.00  0.00     0.032 A 
ENDROOT
BRANCH   1   7
HETATM    7  N   UNL     1      -4.895   7.081 -28.621  1.00  0.00    -0.333 N 
HETATM    8  H   UNL     1      -5.230   7.913 -29.094  1.00  0.00     0.168 HD
BRANCH   7   9
HETATM    9  C   UNL     1      -3.984   7.325 -27.651  1.00  0.00     0.179 C 
HETATM   10  S   UNL     1      -4.455   8.142 -26.268  1.00  0.00    -0.040 SA
BRANCH   9  11
HETATM   11  N   UNL     1      -2.706   6.860 -27.726  1.00  0.00    -0.299 N 
HETATM   12  C   UNL     1      -1.720   7.582 -28.387  1.00  0.00     0.257 C 
HETATM   13  O   UNL     1      -1.377   8.720 -28.086  1.00  0.00    -0.267 OA
HETATM   14  H   UNL     1      -2.727   5.877 -27.946  1.00  0.00     0.171 HD
BRANCH  12  15
HETATM   15  C   UNL     1      -0.972   6.871 -29.481  1.00  0.00     0.035 A 
HETATM   16  C   UNL     1      -1.087   7.200 -30.840  1.00  0.00     0.053 A 
HETATM   17  C   UNL     1      -0.339   6.521 -31.812  1.00  0.00     0.069 A 
HETATM   18  C   UNL     1       0.548   5.519 -31.425  1.00  0.00     0.037 A 
HETATM   19  C   UNL     1       0.686   5.195 -30.074  1.00  0.00     0.004 A 
HETATM   20  C   UNL     1      -0.070   5.864 -29.111  1.00  0.00     0.017 A 
BRANCH  17  21
HETATM   21  O   UNL     1      -0.569   6.939 -33.094  1.00  0.00    -0.356 OA
HETATM   22  C   UNL     1      -1.876   7.414 -33.396  1.00  0.00     0.210 C 
ENDBRANCH  17  21
ENDBRANCH  12  15
ENDBRANCH   9  11
ENDBRANCH   7   9
ENDBRANCH   1   7
BRANCH   4  23
HETATM   23  N   UNL     1      -6.195   2.508 -31.714  1.00  0.00    -0.378 N 
HETATM   24  C   UNL     1      -5.551   1.189 -31.506  1.00  0.00     0.143 C 
HETATM   25  C   UNL     1      -6.305   0.065 -32.239  1.00  0.00     0.146 C 
HETATM   26  N   UNL     1      -6.553   0.376 -33.653  1.00  0.00    -0.345 N 
HETATM   27  C   UNL     1      -6.850  -0.616 -34.589  1.00  0.00     0.253 C 
HETATM   28  C   UNL     1      -7.169   1.687 -33.860  1.00  0.00     0.146 C 
HETATM   29  O   UNL     1      -7.611  -0.442 -35.539  1.00  0.00    -0.267 OA
HETATM   30  C   UNL     1      -6.407   2.821 -33.151  1.00  0.00     0.143 C 
BRANCH  27  31
HETATM   31  C   UNL     1      -6.183  -1.935 -34.471  1.00  0.00     0.032 A 
HETATM   32  C   UNL     1      -6.914  -3.094 -34.754  1.00  0.00     0.017 A 
HETATM   33  C   UNL     1      -6.288  -4.340 -34.697  1.00  0.00     0.001 A 
HETATM   34  C   UNL     1      -4.933  -4.426 -34.373  1.00  0.00     0.000 A 
HETATM   35  C   UNL     1      -4.198  -3.269 -34.114  1.00  0.00     0.001 A 
HETATM   36  C   UNL     1      -4.819  -2.020 -34.172  1.00  0.00     0.017 A 
ENDBRANCH  27  31
ENDBRANCH   4  23
TORSDOF 7
ENDMDL
MODEL 3
REMARK VINA RESULT:      -8.4      3.832      8.805
REMARK  7 active torsions:
REMARK  status: ('A' for Active; 'I' for Inactive)
REMARK    1  A    between atoms: O_2  and  C_3 
REMARK    2  A    between atoms: C_5  and  C_6 
REMARK       I    between atoms: C_6  and  N_7 
REMARK    3  A    between atoms: N_7  and  C_8 
REMARK    4  A    between atoms: C_8  and  N_9 
REMARK    5  A    between atoms: N_9  and  C_10 
REMARK    6  A    between atoms: C_13  and  N_14 
REMARK       I    between atoms: N_17  and  C_18 
REMARK    7  A    between atoms: C_18  and  C_19 
ROOT
HETATM    1  C   UNL     1      -5.529   7.294 -30.510  1.00  0.00     0.034 A 
HETATM    2  C   UNL     1      -5.617   6.978 -31.864  1.00  0.00     0.032 A 
HETATM    3  C   UNL     1      -5.379   5.670 -32.315  1.00  0.00     0.031 A 
HETATM    4  C   UNL     1      -5.027   4.631 -31.439  1.00  0.00     0.030 A 
HETATM    5  C   UNL     1      -4.953   4.979 -30.078  1.00  0.00     0.031 A 
HETATM    6  C   UNL     1      -5.212   6.280 -29.613  1.00  0.00     0.032 A 
ENDROOT
BRANCH   1   7
HETATM    7  N   UNL     1      -5.641   8.658 -30.152  1.00  0.00    -0.333 N 
HETATM    8  H   UNL     1      -6.587   9.017 -30.206  1.00  0.00     0.168 HD
BRANCH   7   9
HETATM    9  C   UNL     1      -4.683   9.613 -30.197  1.00  0.00     0.179 C 
HETATM   10  S   UNL     1      -5.103  11.179 -30.615  1.00  0.00    -0.040 SA
BRANCH   9  11
HETATM   11  N   UNL     1      -3.394   9.361 -29.838  1.00  0.00    -0.299 N 
HETATM   12  C   UNL     1      -2.444   9.004 -30.787  1.00  0.00     0.257 C 
HETATM   13  O   UNL     1      -2.129   9.701 -31.746  1.00  0.00    -0.267 OA
HETATM   14  H   UNL     1      -3.391   8.795 -29.005  1.00  0.00     0.171 HD
BRANCH  12  15
HETATM   15  C   UNL     1      -1.699   7.719 -30.556  1.00  0.00     0.035 A 
HETATM   16  C   UNL     1      -1.846   6.580 -31.362  1.00  0.00     0.053 A 
HETATM   17  C   UNL     1      -1.100   5.420 -31.114  1.00  0.00     0.069 A 
HETATM   18  C   UNL     1      -0.180   5.401 -30.068  1.00  0.00     0.037 A 
HETATM   19  C   UNL     1      -0.010   6.533 -29.271  1.00  0.00     0.004 A 
HETATM   20  C   UNL     1      -0.764   7.682 -29.511  1.00  0.00     0.017 A 
BRANCH  17  21
HETATM   21  O   UNL     1      -1.363   4.386 -31.971  1.00  0.00    -0.356 OA
HETATM   22  C   UNL     1      -1.772   4.728 -33.291  1.00  0.00     0.210 C 
ENDBRANCH  17  21
ENDBRANCH  12  15
ENDBRANCH   9  11
ENDBRANCH   7   9
ENDBRANCH   1   7
BRANCH   4  23
HETATM   23  N   UNL     1      -4.684   3.341 -31.878  1.00  0.00    -0.378 N 
HETATM   24  C   UNL     1      -5.646   2.612 -32.738  1.00  0.00     0.143 C 
HETATM   25  C   UNL     1      -5.005   1.370 -33.385  1.00  0.00     0.146 C 
HETATM   26  N   UNL     1      -4.327   0.508 -32.409  1.00  0.00    -0.345 N 
HETATM   27  C   UNL     1      -4.030  -0.829 -32.680  1.00  0.00     0.253 C 
HETATM   28  C   UNL     1      -3.393   1.231 -31.544  1.00  0.00     0.146 C 
HETATM   29  O   UNL     1      -3.026  -1.397 -32.256  1.00  0.00    -0.267 OA
HETATM   30  C   UNL     1      -4.033   2.460 -30.874  1.00  0.00     0.143 C 
BRANCH  27  31
HETATM   31  C   UNL     1      -4.990  -1.628 -33.480  1.00  0.00     0.032 A 
HETATM   32  C   UNL     1      -4.520  -2.726 -34.207  1.00  0.00     0.017 A 
HETATM   33  C   UNL     1      -5.418  -3.519 -34.924  1.00  0.00     0.001 A 
HETATM   34  C   UNL     1      -6.781  -3.223 -34.902  1.00  0.00     0.000 A 
HETATM   35  C   UNL     1      -7.254  -2.142 -34.157  1.00  0.00     0.001 A 
HETATM   36  C   UNL     1      -6.360  -1.347 -33.437  1.00  0.00     0.017 A 
ENDBRANCH  27  31
ENDBRANCH   4  23
TORSDOF 7
ENDMDL
MODEL 4
REMARK VINA RESULT:      -8.4      3.511      8.641
REMARK  7 active torsions:
REMARK  status: ('A' for Active; 'I' for Inactive)
REMARK    1  A    between atoms: O_2  and  C_3 
REMARK    2  A    between atoms: C_5  and  C_6 
REMARK       I    between atoms: C_6  and  N_7 
REMARK    3  A    between atoms: N_7  and  C_8 
REMARK    4  A    between atoms: C_8  and  N_9 
REMARK    5  A    between atoms: N_9  and  C_10 
REMARK    6  A    between atoms: C_13  and  N_14 
REMARK       I    between atoms: N_17  and  C_18 
REMARK    7  A    between atoms: C_18  and  C_19 
ROOT
HETATM    1  C   UNL     1      -5.493   6.374 -29.036  1.00  0.00     0.034 A 
HETATM    2  C   UNL     1      -5.525   6.576 -30.414  1.00  0.00     0.032 A 
HETATM    3  C   UNL     1      -5.912   5.547 -31.286  1.00  0.00     0.031 A 
HETATM    4  C   UNL     1      -6.268   4.271 -30.821  1.00  0.00     0.030 A 
HETATM    5  C   UNL     1      -6.233   4.097 -29.425  1.00  0.00     0.031 A 
HETATM    6  C   UNL     1      -5.869   5.129 -28.543  1.00  0.00     0.032 A 
ENDROOT
BRANCH   1   7
HETATM    7  N   UNL     1      -4.956   7.410 -28.238  1.00  0.00    -0.333 N 
HETATM    8  H   UNL     1      -5.369   8.318 -28.418  1.00  0.00     0.168 HD
BRANCH   7   9
HETATM    9  C   UNL     1      -3.739   7.462 -27.647  1.00  0.00     0.179 C 
HETATM   10  S   UNL     1      -3.631   7.839 -26.020  1.00  0.00    -0.040 SA
BRANCH   9  11
HETATM   11  N   UNL     1      -2.597   7.142 -28.317  1.00  0.00    -0.299 N 
HETATM   12  C   UNL     1      -2.124   7.945 -29.348  1.00  0.00     0.257 C 
HETATM   13  O   UNL     1      -1.818   9.126 -29.220  1.00  0.00    -0.267 OA
HETATM   14  H   UNL     1      -2.601   6.155 -28.519  1.00  0.00     0.171 HD
BRANCH  12  15
HETATM   15  C   UNL     1      -1.890   7.281 -30.677  1.00  0.00     0.035 A 
HETATM   16  C   UNL     1      -1.944   5.893 -30.871  1.00  0.00     0.053 A 
HETATM   17  C   UNL     1      -1.747   5.334 -32.142  1.00  0.00     0.069 A 
HETATM   18  C   UNL     1      -1.519   6.168 -33.234  1.00  0.00     0.037 A 
HETATM   19  C   UNL     1      -1.482   7.552 -33.058  1.00  0.00     0.004 A 
HETATM   20  C   UNL     1      -1.664   8.104 -31.789  1.00  0.00     0.017 A 
BRANCH  17  21
HETATM   21  O   UNL     1      -1.812   3.968 -32.173  1.00  0.00    -0.356 OA
HETATM   22  C   UNL     1      -2.906   3.387 -32.873  1.00  0.00     0.210 C 
ENDBRANCH  17  21
ENDBRANCH  12  15
ENDBRANCH   9  11
ENDBRANCH   7   9
ENDBRANCH   1   7
BRANCH   4  23
HETATM   23  N   UNL     1      -6.559   3.196 -31.679  1.00  0.00    -0.378 N 
HETATM   24  C   UNL     1      -5.919   1.887 -31.407  1.00  0.00     0.143 C 
HETATM   25  C   UNL     1      -6.569   0.755 -32.223  1.00  0.00     0.146 C 
HETATM   26  N   UNL     1      -6.667   1.069 -33.654  1.00  0.00    -0.345 N 
HETATM   27  C   UNL     1      -6.842   0.078 -34.620  1.00  0.00     0.253 C 
HETATM   28  C   UNL     1      -7.278   2.371 -33.922  1.00  0.00     0.146 C 
HETATM   29  O   UNL     1      -7.498   0.245 -35.647  1.00  0.00    -0.267 OA
HETATM   30  C   UNL     1      -6.618   3.514 -33.130  1.00  0.00     0.143 C 
BRANCH  27  31
HETATM   31  C   UNL     1      -6.170  -1.231 -34.436  1.00  0.00     0.032 A 
HETATM   32  C   UNL     1      -6.837  -2.398 -34.821  1.00  0.00     0.017 A 
HETATM   33  C   UNL     1      -6.199  -3.634 -34.700  1.00  0.00     0.001 A 
HETATM   34  C   UNL     1      -4.894  -3.700 -34.210  1.00  0.00     0.000 A 
HETATM   35  C   UNL     1      -4.219  -2.534 -33.848  1.00  0.00     0.001 A 
HETATM   36  C   UNL     1      -4.852  -1.295 -33.968  1.00  0.00     0.017 A 
ENDBRANCH  27  31
ENDBRANCH   4  23
TORSDOF 7
ENDMDL
MODEL 5
REMARK VINA RESULT:      -8.3      4.234     10.969
REMARK  7 active torsions:
REMARK  status: ('A' for Active; 'I' for Inactive)
REMARK    1  A    between atoms: O_2  and  C_3 
REMARK    2  A    between atoms: C_5  and  C_6 
REMARK       I    between atoms: C_6  and  N_7 
REMARK    3  A    between atoms: N_7  and  C_8 
REMARK    4  A    between atoms: C_8  and  N_9 
REMARK    5  A    between atoms: N_9  and  C_10 
REMARK    6  A    between atoms: C_13  and  N_14 
REMARK       I    between atoms: N_17  and  C_18 
REMARK    7  A    between atoms: C_18  and  C_19 
ROOT
HETATM    1  C   UNL     1      -2.843   5.609 -30.552  1.00  0.00     0.034 A 
HETATM    2  C   UNL     1      -2.210   4.722 -31.419  1.00  0.00     0.032 A 
HETATM    3  C   UNL     1      -2.931   3.702 -32.060  1.00  0.00     0.031 A 
HETATM    4  C   UNL     1      -4.305   3.515 -31.849  1.00  0.00     0.030 A 
HETATM    5  C   UNL     1      -4.919   4.429 -30.973  1.00  0.00     0.031 A 
HETATM    6  C   UNL     1      -4.210   5.468 -30.345  1.00  0.00     0.032 A 
ENDROOT
BRANCH   1   7
HETATM    7  N   UNL     1      -2.025   6.515 -29.837  1.00  0.00    -0.333 N 
HETATM    8  H   UNL     1      -2.315   6.654 -28.875  1.00  0.00     0.168 HD
BRANCH   7   9
HETATM    9  C   UNL     1      -1.253   7.510 -30.331  1.00  0.00     0.179 C 
HETATM   10  S   UNL     1      -1.820   8.435 -31.606  1.00  0.00    -0.040 SA
BRANCH   9  11
HETATM   11  N   UNL     1      -0.054   7.838 -29.774  1.00  0.00    -0.299 N 
HETATM   12  C   UNL     1       0.340   7.299 -28.556  1.00  0.00     0.257 C 
HETATM   13  O   UNL     1       0.473   6.098 -28.341  1.00  0.00    -0.267 OA
HETATM   14  H   UNL     1       0.087   8.832 -29.861  1.00  0.00     0.171 HD
BRANCH  12  15
HETATM   15  C   UNL     1       0.712   8.269 -27.469  1.00  0.00     0.035 A 
HETATM   16  C   UNL     1       1.701   8.016 -26.507  1.00  0.00     0.053 A 
HETATM   17  C   UNL     1       2.024   8.974 -25.535  1.00  0.00     0.069 A 
HETATM   18  C   UNL     1       1.372  10.205 -25.537  1.00  0.00     0.037 A 
HETATM   19  C   UNL     1       0.400  10.477 -26.500  1.00  0.00     0.004 A 
HETATM   20  C   UNL     1       0.071   9.516 -27.457  1.00  0.00     0.017 A 
BRANCH  17  21
HETATM   21  O   UNL     1       2.994   8.579 -24.656  1.00  0.00    -0.356 OA
HETATM   22  C   UNL     1       3.794   9.601 -24.072  1.00  0.00     0.210 C 
ENDBRANCH  17  21
ENDBRANCH  12  15
ENDBRANCH   9  11
ENDBRANCH   7   9
ENDBRANCH   1   7
BRANCH   4  23
HETATM   23  N   UNL     1      -5.027   2.440 -32.397  1.00  0.00    -0.378 N 
HETATM   24  C   UNL     1      -4.468   1.075 -32.256  1.00  0.00     0.143 C 
HETATM   25  C   UNL     1      -5.504  -0.005 -32.619  1.00  0.00     0.146 C 
HETATM   26  N   UNL     1      -6.140   0.233 -33.921  1.00  0.00    -0.345 N 
HETATM   27  C   UNL     1      -6.792  -0.782 -34.623  1.00  0.00     0.253 C 
HETATM   28  C   UNL     1      -6.673   1.588 -34.068  1.00  0.00     0.146 C 
HETATM   29  O   UNL     1      -7.787  -0.589 -35.319  1.00  0.00    -0.267 OA
HETATM   30  C   UNL     1      -5.636   2.675 -33.733  1.00  0.00     0.143 C 
BRANCH  27  31
HETATM   31  C   UNL     1      -6.239  -2.157 -34.575  1.00  0.00     0.032 A 
HETATM   32  C   UNL     1      -7.117  -3.244 -34.605  1.00  0.00     0.017 A 
HETATM   33  C   UNL     1      -6.611  -4.545 -34.611  1.00  0.00     0.001 A 
HETATM   34  C   UNL     1      -5.232  -4.757 -34.602  1.00  0.00     0.000 A 
HETATM   35  C   UNL     1      -4.354  -3.672 -34.597  1.00  0.00     0.001 A 
HETATM   36  C   UNL     1      -4.855  -2.369 -34.592  1.00  0.00     0.017 A 
ENDBRANCH  27  31
ENDBRANCH   4  23
TORSDOF 7
ENDMDL
MODEL 6
REMARK VINA RESULT:      -8.3      2.258      2.934
REMARK  7 active torsions:
REMARK  status: ('A' for Active; 'I' for Inactive)
REMARK    1  A    between atoms: O_2  and  C_3 
REMARK    2  A    between atoms: C_5  and  C_6 
REMARK       I    between atoms: C_6  and  N_7 
REMARK    3  A    between atoms: N_7  and  C_8 
REMARK    4  A    between atoms: C_8  and  N_9 
REMARK    5  A    between atoms: N_9  and  C_10 
REMARK    6  A    between atoms: C_13  and  N_14 
REMARK       I    between atoms: N_17  and  C_18 
REMARK    7  A    between atoms: C_18  and  C_19 
ROOT
HETATM    1  C   UNL     1      -7.762   3.160 -33.769  1.00  0.00     0.034 A 
HETATM    2  C   UNL     1      -6.419   2.988 -34.094  1.00  0.00     0.032 A 
HETATM    3  C   UNL     1      -5.424   3.767 -33.484  1.00  0.00     0.031 A 
HETATM    4  C   UNL     1      -5.728   4.760 -32.540  1.00  0.00     0.030 A 
HETATM    5  C   UNL     1      -7.092   4.908 -32.227  1.00  0.00     0.031 A 
HETATM    6  C   UNL     1      -8.094   4.116 -32.814  1.00  0.00     0.032 A 
ENDROOT
BRANCH   1   7
HETATM    7  N   UNL     1      -8.713   2.440 -34.528  1.00  0.00    -0.333 N 
HETATM    8  H   UNL     1      -9.047   2.941 -35.344  1.00  0.00     0.168 HD
BRANCH   7   9
HETATM    9  C   UNL     1      -9.536   1.450 -34.112  1.00  0.00     0.179 C 
HETATM   10  S   UNL     1     -11.186   1.723 -34.051  1.00  0.00    -0.040 SA
BRANCH   9  11
HETATM   11  N   UNL     1      -9.073   0.205 -33.811  1.00  0.00    -0.299 N 
HETATM   12  C   UNL     1      -8.155   0.012 -32.786  1.00  0.00     0.257 C 
HETATM   13  O   UNL     1      -8.353   0.314 -31.613  1.00  0.00    -0.267 OA
HETATM   14  H   UNL     1      -8.858  -0.281 -34.666  1.00  0.00     0.171 HD
BRANCH  12  15
HETATM   15  C   UNL     1      -6.877  -0.698 -33.139  1.00  0.00     0.035 A 
HETATM   16  C   UNL     1      -6.797  -1.722 -34.095  1.00  0.00     0.053 A 
HETATM   17  C   UNL     1      -5.570  -2.325 -34.404  1.00  0.00     0.069 A 
HETATM   18  C   UNL     1      -4.408  -1.888 -33.772  1.00  0.00     0.037 A 
HETATM   19  C   UNL     1      -4.471  -0.858 -32.833  1.00  0.00     0.004 A 
HETATM   20  C   UNL     1      -5.696  -0.269 -32.518  1.00  0.00     0.017 A 
BRANCH  17  21
HETATM   21  O   UNL     1      -5.650  -3.318 -35.341  1.00  0.00    -0.356 OA
HETATM   22  C   UNL     1      -6.611  -4.344 -35.117  1.00  0.00     0.210 C 
ENDBRANCH  17  21
ENDBRANCH  12  15
ENDBRANCH   9  11
ENDBRANCH   7   9
ENDBRANCH   1   7
BRANCH   4  23
HETATM   23  N   UNL     1      -4.761   5.621 -31.993  1.00  0.00    -0.378 N 
HETATM   24  C   UNL     1      -3.772   5.056 -31.046  1.00  0.00     0.143 C 
HETATM   25  C   UNL     1      -2.609   6.032 -30.787  1.00  0.00     0.146 C 
HETATM   26  N   UNL     1      -3.067   7.377 -30.417  1.00  0.00    -0.345 N 
HETATM   27  C   UNL     1      -2.237   8.290 -29.766  1.00  0.00     0.253 C 
HETATM   28  C   UNL     1      -4.061   7.927 -31.340  1.00  0.00     0.146 C 
HETATM   29  O   UNL     1      -2.288   9.504 -29.956  1.00  0.00    -0.267 OA
HETATM   30  C   UNL     1      -5.240   6.968 -31.585  1.00  0.00     0.143 C 
BRANCH  27  31
HETATM   31  C   UNL     1      -1.273   7.790 -28.756  1.00  0.00     0.032 A 
HETATM   32  C   UNL     1       0.097   7.933 -28.995  1.00  0.00     0.017 A 
HETATM   33  C   UNL     1       1.017   7.513 -28.032  1.00  0.00     0.001 A 
HETATM   34  C   UNL     1       0.567   6.965 -26.830  1.00  0.00     0.000 A 
HETATM   35  C   UNL     1      -0.800   6.844 -26.581  1.00  0.00     0.001 A 
HETATM   36  C   UNL     1      -1.724   7.264 -27.540  1.00  0.00     0.017 A 
ENDBRANCH  27  31
ENDBRANCH   4  23
TORSDOF 7
ENDMDL
MODEL 7
REMARK VINA RESULT:      -8.3      5.168      8.176
REMARK  7 active torsions:
REMARK  status: ('A' for Active; 'I' for Inactive)
REMARK    1  A    between atoms: O_2  and  C_3 
REMARK    2  A    between atoms: C_5  and  C_6 
REMARK       I    between atoms: C_6  and  N_7 
REMARK    3  A    between atoms: N_7  and  C_8 
REMARK    4  A    between atoms: C_8  and  N_9 
REMARK    5  A    between atoms: N_9  and  C_10 
REMARK    6  A    between atoms: C_13  and  N_14 
REMARK       I    between atoms: N_17  and  C_18 
REMARK    7  A    between atoms: C_18  and  C_19 
ROOT
HETATM    1  C   UNL     1      -0.822   5.649 -30.996  1.00  0.00     0.034 A 
HETATM    2  C   UNL     1       0.085   5.163 -30.057  1.00  0.00     0.032 A 
HETATM    3  C   UNL     1       0.401   5.906 -28.909  1.00  0.00     0.031 A 
HETATM    4  C   UNL     1      -0.161   7.168 -28.659  1.00  0.00     0.030 A 
HETATM    5  C   UNL     1      -1.078   7.630 -29.620  1.00  0.00     0.031 A 
HETATM    6  C   UNL     1      -1.419   6.883 -30.762  1.00  0.00     0.032 A 
ENDROOT
BRANCH   1   7
HETATM    7  N   UNL     1      -0.979   4.911 -32.193  1.00  0.00    -0.333 N 
HETATM    8  H   UNL     1      -0.111   4.764 -32.697  1.00  0.00     0.168 HD
BRANCH   7   9
HETATM    9  C   UNL     1      -2.090   4.783 -32.954  1.00  0.00     0.179 C 
HETATM   10  S   UNL     1      -2.039   5.232 -34.566  1.00  0.00    -0.040 SA
BRANCH   9  11
HETATM   11  N   UNL     1      -3.235   4.225 -32.472  1.00  0.00    -0.299 N 
HETATM   12  C   UNL     1      -3.244   2.930 -31.969  1.00  0.00     0.257 C 
HETATM   13  O   UNL     1      -2.560   2.550 -31.024  1.00  0.00    -0.267 OA
HETATM   14  H   UNL     1      -3.994   4.439 -33.099  1.00  0.00     0.171 HD
BRANCH  12  15
HETATM   15  C   UNL     1      -4.227   1.969 -32.577  1.00  0.00     0.035 A 
HETATM   16  C   UNL     1      -4.077   0.575 -32.538  1.00  0.00     0.053 A 
HETATM   17  C   UNL     1      -5.045  -0.271 -33.097  1.00  0.00     0.069 A 
HETATM   18  C   UNL     1      -6.186   0.276 -33.680  1.00  0.00     0.037 A 
HETATM   19  C   UNL     1      -6.357   1.661 -33.708  1.00  0.00     0.004 A 
HETATM   20  C   UNL     1      -5.385   2.501 -33.163  1.00  0.00     0.017 A 
BRANCH  17  21
HETATM   21  O   UNL     1      -4.753  -1.604 -32.998  1.00  0.00    -0.356 OA
HETATM   22  C   UNL     1      -3.599  -1.961 -32.246  1.00  0.00     0.210 C 
ENDBRANCH  17  21
ENDBRANCH  12  15
ENDBRANCH   9  11
ENDBRANCH   7   9
ENDBRANCH   1   7
BRANCH   4  23
HETATM   23  N   UNL     1       0.217   7.974 -27.571  1.00  0.00    -0.378 N 
HETATM   24  C   UNL     1       1.563   7.775 -26.984  1.00  0.00     0.143 C 
HETATM   25  C   UNL     1       1.943   8.922 -26.029  1.00  0.00     0.146 C 
HETATM   26  N   UNL     1       0.906   9.194 -25.027  1.00  0.00    -0.345 N 
HETATM   27  C   UNL     1       1.178   9.888 -23.847  1.00  0.00     0.253 C 
HETATM   28  C   UNL     1      -0.428   9.369 -25.604  1.00  0.00     0.146 C 
HETATM   29  O   UNL     1       0.372  10.641 -23.305  1.00  0.00    -0.267 OA
HETATM   30  C   UNL     1      -0.827   8.214 -26.541  1.00  0.00     0.143 C 
BRANCH  27  31
HETATM   31  C   UNL     1       2.484   9.677 -23.177  1.00  0.00     0.032 A 
HETATM   32  C   UNL     1       3.435  10.702 -23.204  1.00  0.00     0.017 A 
HETATM   33  C   UNL     1       4.650  10.539 -22.535  1.00  0.00     0.001 A 
HETATM   34  C   UNL     1       4.906   9.362 -21.831  1.00  0.00     0.000 A 
HETATM   35  C   UNL     1       3.948   8.348 -21.784  1.00  0.00     0.001 A 
HETATM   36  C   UNL     1       2.731   8.507 -22.449  1.00  0.00     0.017 A 
ENDBRANCH  27  31
ENDBRANCH   4  23
TORSDOF 7
ENDMDL
MODEL 8
REMARK VINA RESULT:      -8.1      3.426      9.109
REMARK  7 active torsions:
REMARK  status: ('A' for Active; 'I' for Inactive)
REMARK    1  A    between atoms: O_2  and  C_3 
REMARK    2  A    between atoms: C_5  and  C_6 
REMARK       I    between atoms: C_6  and  N_7 
REMARK    3  A    between atoms: N_7  and  C_8 
REMARK    4  A    between atoms: C_8  and  N_9 
REMARK    5  A    between atoms: N_9  and  C_10 
REMARK    6  A    between atoms: C_13  and  N_14 
REMARK       I    between atoms: N_17  and  C_18 
REMARK    7  A    between atoms: C_18  and  C_19 
ROOT
HETATM    1  C   UNL     1      -6.133  -0.558 -33.910  1.00  0.00     0.034 A 
HETATM    2  C   UNL     1      -6.792  -0.479 -32.685  1.00  0.00     0.032 A 
HETATM    3  C   UNL     1      -8.093   0.042 -32.599  1.00  0.00     0.031 A 
HETATM    4  C   UNL     1      -8.780   0.521 -33.725  1.00  0.00     0.030 A 
HETATM    5  C   UNL     1      -8.093   0.424 -34.948  1.00  0.00     0.031 A 
HETATM    6  C   UNL     1      -6.799  -0.118 -35.048  1.00  0.00     0.032 A 
ENDROOT
BRANCH   1   7
HETATM    7  N   UNL     1      -4.777  -0.959 -33.894  1.00  0.00    -0.333 N 
HETATM    8  H   UNL     1      -4.580  -1.751 -34.496  1.00  0.00     0.168 HD
BRANCH   7   9
HETATM    9  C   UNL     1      -3.861  -0.764 -32.917  1.00  0.00     0.179 C 
HETATM   10  S   UNL     1      -3.330  -2.071 -32.016  1.00  0.00    -0.040 SA
BRANCH   9  11
HETATM   11  N   UNL     1      -3.295   0.454 -32.691  1.00  0.00    -0.299 N 
HETATM   12  C   UNL     1      -3.974   1.438 -31.984  1.00  0.00     0.257 C 
HETATM   13  O   UNL     1      -4.368   1.313 -30.829  1.00  0.00    -0.267 OA
HETATM   14  H   UNL     1      -2.852   0.772 -33.538  1.00  0.00     0.171 HD
BRANCH  12  15
HETATM   15  C   UNL     1      -4.147   2.769 -32.663  1.00  0.00     0.035 A 
HETATM   16  C   UNL     1      -3.119   3.714 -32.791  1.00  0.00     0.053 A 
HETATM   17  C   UNL     1      -3.334   4.926 -33.463  1.00  0.00     0.069 A 
HETATM   18  C   UNL     1      -4.578   5.188 -34.032  1.00  0.00     0.037 A 
HETATM   19  C   UNL     1      -5.604   4.248 -33.928  1.00  0.00     0.004 A 
HETATM   20  C   UNL     1      -5.391   3.049 -33.247  1.00  0.00     0.017 A 
BRANCH  17  21
HETATM   21  O   UNL     1      -2.245   5.754 -33.493  1.00  0.00    -0.356 OA
HETATM   22  C   UNL     1      -1.383   5.649 -34.620  1.00  0.00     0.210 C 
ENDBRANCH  17  21
ENDBRANCH  12  15
ENDBRANCH   9  11
ENDBRANCH   7   9
ENDBRANCH   1   7
BRANCH   4  23
HETATM   23  N   UNL     1     -10.040   1.141 -33.648  1.00  0.00    -0.378 N 
HETATM   24  C   UNL     1     -10.140   2.443 -32.948  1.00  0.00     0.143 C 
HETATM   25  C   UNL     1     -11.489   3.133 -33.219  1.00  0.00     0.146 C 
HETATM   26  N   UNL     1     -12.638   2.251 -32.975  1.00  0.00    -0.345 N 
HETATM   27  C   UNL     1     -13.925   2.750 -32.769  1.00  0.00     0.253 C 
HETATM   28  C   UNL     1     -12.529   0.956 -33.649  1.00  0.00     0.146 C 
HETATM   29  O   UNL     1     -14.941   2.171 -33.148  1.00  0.00    -0.267 OA
HETATM   30  C   UNL     1     -11.193   0.248 -33.363  1.00  0.00     0.143 C 
BRANCH  27  31
HETATM   31  C   UNL     1     -14.092   4.015 -32.015  1.00  0.00     0.032 A 
HETATM   32  C   UNL     1     -13.610   4.094 -30.704  1.00  0.00     0.017 A 
HETATM   33  C   UNL     1     -13.715   5.294 -29.998  1.00  0.00     0.001 A 
HETATM   34  C   UNL     1     -14.284   6.414 -30.606  1.00  0.00     0.000 A 
HETATM   35  C   UNL     1     -14.743   6.343 -31.921  1.00  0.00     0.001 A 
HETATM   36  C   UNL     1     -14.640   5.146 -32.633  1.00  0.00     0.017 A 
ENDBRANCH  27  31
ENDBRANCH   4  23
TORSDOF 7
ENDMDL
MODEL 9
REMARK VINA RESULT:      -8.0      3.422     10.455
REMARK  7 active torsions:
REMARK  status: ('A' for Active; 'I' for Inactive)
REMARK    1  A    between atoms: O_2  and  C_3 
REMARK    2  A    between atoms: C_5  and  C_6 
REMARK       I    between atoms: C_6  and  N_7 
REMARK    3  A    between atoms: N_7  and  C_8 
REMARK    4  A    between atoms: C_8  and  N_9 
REMARK    5  A    between atoms: N_9  and  C_10 
REMARK    6  A    between atoms: C_13  and  N_14 
REMARK       I    between atoms: N_17  and  C_18 
REMARK    7  A    between atoms: C_18  and  C_19 
ROOT
HETATM    1  C   UNL     1      -1.865   4.830 -32.672  1.00  0.00     0.034 A 
HETATM    2  C   UNL     1      -2.313   4.068 -31.596  1.00  0.00     0.032 A 
HETATM    3  C   UNL     1      -3.500   3.324 -31.684  1.00  0.00     0.031 A 
HETATM    4  C   UNL     1      -4.296   3.324 -32.840  1.00  0.00     0.030 A 
HETATM    5  C   UNL     1      -3.816   4.098 -33.912  1.00  0.00     0.031 A 
HETATM    6  C   UNL     1      -2.616   4.827 -33.842  1.00  0.00     0.032 A 
ENDROOT
BRANCH   1   7
HETATM    7  N   UNL     1      -0.741   5.662 -32.458  1.00  0.00    -0.333 N 
HETATM    8  H   UNL     1       0.141   5.163 -32.462  1.00  0.00     0.168 HD
BRANCH   7   9
HETATM    9  C   UNL     1      -0.698   6.859 -31.828  1.00  0.00     0.179 C 
HETATM   10  S   UNL     1      -1.866   8.009 -32.167  1.00  0.00    -0.040 SA
BRANCH   9  11
HETATM   11  N   UNL     1       0.225   7.135 -30.865  1.00  0.00    -0.299 N 
HETATM   12  C   UNL     1       0.235   6.438 -29.664  1.00  0.00     0.257 C 
HETATM   13  O   UNL     1       0.377   5.223 -29.570  1.00  0.00    -0.267 OA
HETATM   14  H   UNL     1       0.315   8.134 -30.774  1.00  0.00     0.171 HD
BRANCH  12  15
HETATM   15  C   UNL     1       0.159   7.252 -28.402  1.00  0.00     0.035 A 
HETATM   16  C   UNL     1      -0.830   7.074 -27.422  1.00  0.00     0.053 A 
HETATM   17  C   UNL     1      -0.831   7.845 -26.251  1.00  0.00     0.069 A 
HETATM   18  C   UNL     1       0.176   8.785 -26.043  1.00  0.00     0.037 A 
HETATM   19  C   UNL     1       1.176   8.958 -27.000  1.00  0.00     0.004 A 
HETATM   20  C   UNL     1       1.167   8.199 -28.172  1.00  0.00     0.017 A 
BRANCH  17  21
HETATM   21  O   UNL     1      -1.864   7.572 -25.398  1.00  0.00    -0.356 OA
HETATM   22  C   UNL     1      -3.173   7.540 -25.955  1.00  0.00     0.210 C 
ENDBRANCH  17  21
ENDBRANCH  12  15
ENDBRANCH   9  11
ENDBRANCH   7   9
ENDBRANCH   1   7
BRANCH   4  23
HETATM   23  N   UNL     1      -5.539   2.672 -32.915  1.00  0.00    -0.378 N 
HETATM   24  C   UNL     1      -6.644   3.347 -33.636  1.00  0.00     0.143 C 
HETATM   25  C   UNL     1      -7.820   2.390 -33.901  1.00  0.00     0.146 C 
HETATM   26  N   UNL     1      -8.260   1.681 -32.693  1.00  0.00    -0.345 N 
HETATM   27  C   UNL     1      -9.519   1.087 -32.599  1.00  0.00     0.253 C 
HETATM   28  C   UNL     1      -7.166   1.033 -31.968  1.00  0.00     0.146 C 
HETATM   29  O   UNL     1      -9.731   0.051 -31.971  1.00  0.00    -0.267 OA
HETATM   30  C   UNL     1      -5.996   1.990 -31.676  1.00  0.00     0.143 C 
BRANCH  27  31
HETATM   31  C   UNL     1     -10.677   1.753 -33.243  1.00  0.00     0.032 A 
HETATM   32  C   UNL     1     -11.122   2.979 -32.739  1.00  0.00     0.017 A 
HETATM   33  C   UNL     1     -12.178   3.644 -33.365  1.00  0.00     0.001 A 
HETATM   34  C   UNL     1     -12.777   3.091 -34.498  1.00  0.00     0.000 A 
HETATM   35  C   UNL     1     -12.317   1.879 -35.015  1.00  0.00     0.001 A 
HETATM   36  C   UNL     1     -11.260   1.211 -34.394  1.00  0.00     0.017 A 
ENDBRANCH  27  31
ENDBRANCH   4  23
TORSDOF 7
ENDMDL
MODEL 10
REMARK VINA RESULT:      -7.8      2.425      3.113
REMARK  7 active torsions:
REMARK  status: ('A' for Active; 'I' for Inactive)
REMARK    1  A    between atoms: O_2  and  C_3 
REMARK    2  A    between atoms: C_5  and  C_6 
REMARK       I    between atoms: C_6  and  N_7 
REMARK    3  A    between atoms: N_7  and  C_8 
REMARK    4  A    between atoms: C_8  and  N_9 
REMARK    5  A    between atoms: N_9  and  C_10 
REMARK    6  A    between atoms: C_13  and  N_14 
REMARK       I    between atoms: N_17  and  C_18 
REMARK    7  A    between atoms: C_18  and  C_19 
ROOT
HETATM    1  C   UNL     1      -7.966   3.827 -33.258  1.00  0.00     0.034 A 
HETATM    2  C   UNL     1      -6.914   4.647 -33.660  1.00  0.00     0.032 A 
HETATM    3  C   UNL     1      -6.079   5.264 -32.716  1.00  0.00     0.031 A 
HETATM    4  C   UNL     1      -6.269   5.103 -31.335  1.00  0.00     0.030 A 
HETATM    5  C   UNL     1      -7.334   4.266 -30.958  1.00  0.00     0.031 A 
HETATM    6  C   UNL     1      -8.162   3.624 -31.896  1.00  0.00     0.032 A 
ENDROOT
BRANCH   1   7
HETATM    7  N   UNL     1      -8.847   3.360 -34.261  1.00  0.00    -0.333 N 
HETATM    8  H   UNL     1      -9.110   4.069 -34.935  1.00  0.00     0.168 HD
BRANCH   7   9
HETATM    9  C   UNL     1      -9.702   2.312 -34.197  1.00  0.00     0.179 C 
HETATM   10  S   UNL     1     -11.337   2.598 -33.985  1.00  0.00    -0.040 SA
BRANCH   9  11
HETATM   11  N   UNL     1      -9.285   1.028 -34.378  1.00  0.00    -0.299 N 
HETATM   12  C   UNL     1      -8.882   0.249 -33.300  1.00  0.00     0.257 C 
HETATM   13  O   UNL     1      -9.596  -0.028 -32.342  1.00  0.00    -0.267 OA
HETATM   14  H   UNL     1      -8.672   0.992 -35.177  1.00  0.00     0.171 HD
BRANCH  12  15
HETATM   15  C   UNL     1      -7.510  -0.361 -33.375  1.00  0.00     0.035 A 
HETATM   16  C   UNL     1      -6.547  -0.233 -32.362  1.00  0.00     0.053 A 
HETATM   17  C   UNL     1      -5.294  -0.851 -32.476  1.00  0.00     0.069 A 
HETATM   18  C   UNL     1      -5.005  -1.624 -33.598  1.00  0.00     0.037 A 
HETATM   19  C   UNL     1      -5.961  -1.775 -34.604  1.00  0.00     0.004 A 
HETATM   20  C   UNL     1      -7.202  -1.147 -34.494  1.00  0.00     0.017 A 
BRANCH  17  21
HETATM   21  O   UNL     1      -4.456  -0.623 -31.419  1.00  0.00    -0.356 OA
HETATM   22  C   UNL     1      -3.644   0.544 -31.477  1.00  0.00     0.210 C 
ENDBRANCH  17  21
ENDBRANCH  12  15
ENDBRANCH   9  11
ENDBRANCH   7   9
ENDBRANCH   1   7
BRANCH   4  23
HETATM   23  N   UNL     1      -5.512   5.792 -30.371  1.00  0.00    -0.378 N 
HETATM   24  C   UNL     1      -4.110   6.143 -30.699  1.00  0.00     0.143 C 
HETATM   25  C   UNL     1      -3.525   7.151 -29.693  1.00  0.00     0.146 C 
HETATM   26  N   UNL     1      -3.710   6.734 -28.297  1.00  0.00    -0.345 N 
HETATM   27  C   UNL     1      -2.941   7.260 -27.258  1.00  0.00     0.253 C 
HETATM   28  C   UNL     1      -5.090   6.366 -27.979  1.00  0.00     0.146 C 
HETATM   29  O   UNL     1      -3.377   7.448 -26.124  1.00  0.00    -0.267 OA
HETATM   30  C   UNL     1      -5.675   5.339 -28.965  1.00  0.00     0.143 C 
BRANCH  27  31
HETATM   31  C   UNL     1      -1.512   7.567 -27.508  1.00  0.00     0.032 A 
HETATM   32  C   UNL     1      -1.094   8.902 -27.511  1.00  0.00     0.017 A 
HETATM   33  C   UNL     1       0.256   9.206 -27.694  1.00  0.00     0.001 A 
HETATM   34  C   UNL     1       1.186   8.178 -27.859  1.00  0.00     0.000 A 
HETATM   35  C   UNL     1       0.773   6.846 -27.833  1.00  0.00     0.001 A 
HETATM   36  C   UNL     1      -0.576   6.536 -27.648  1.00  0.00     0.017 A 
ENDBRANCH  27  31
ENDBRANCH   4  23
TORSDOF 7
ENDMDL
