MODEL 1
REMARK VINA RESULT:      -7.7      0.000      0.000
REMARK  2 active torsions:
REMARK  status: ('A' for Active; 'I' for Inactive)
REMARK    1  A    between atoms: N_4  and  N_5 
REMARK       I    between atoms: N_5  and  C_6 
REMARK    2  A    between atoms: C_6  and  C_7 
ROOT
HETATM    1  C   UNL     1      -7.940  -0.244 -33.705  1.00  0.00     0.158 C 
HETATM    2  N   UNL     1      -6.543  -0.666 -33.658  1.00  0.00    -0.329 N 
HETATM    3  C   UNL     1      -5.483   0.057 -33.273  1.00  0.00     0.166 A 
HETATM    4  N   UNL     1      -5.526   1.326 -32.857  1.00  0.00    -0.277 N 
HETATM    5  S   UNL     1      -3.999  -0.839 -33.367  1.00  0.00    -0.050 SA
HETATM    6  C   UNL     1      -4.837  -2.225 -33.948  1.00  0.00     0.035 A 
HETATM    7  C   UNL     1      -6.200  -1.960 -34.045  1.00  0.00     0.053 A 
HETATM    8  C   UNL     1      -4.301  -3.477 -34.295  1.00  0.00     0.021 A 
HETATM    9  C   UNL     1      -5.174  -4.468 -34.747  1.00  0.00     0.002 A 
HETATM   10  C   UNL     1      -6.539  -4.222 -34.851  1.00  0.00     0.002 A 
HETATM   11  C   UNL     1      -7.067  -2.972 -34.504  1.00  0.00     0.031 A 
HETATM   12  H   UNL     1      -6.443   1.770 -32.837  1.00  0.00     0.189 HD
ENDROOT
BRANCH   4  13
HETATM   13  N   UNL     1      -4.486   2.063 -32.468  1.00  0.00    -0.263 N 
HETATM   14  C   UNL     1      -4.436   3.368 -32.932  1.00  0.00     0.286 C 
HETATM   15  O   UNL     1      -5.329   3.791 -33.666  1.00  0.00    -0.264 OA
HETATM   16  H   UNL     1      -3.772   1.671 -31.861  1.00  0.00     0.190 HD
BRANCH  14  17
HETATM   17  C   UNL     1      -3.308   4.159 -32.506  1.00  0.00     0.103 A 
HETATM   18  N   UNL     1      -2.637   3.887 -31.327  1.00  0.00    -0.360 N 
HETATM   19  H   UNL     1      -2.877   3.135 -30.690  1.00  0.00     0.165 HD
HETATM   20  C   UNL     1      -1.612   4.777 -31.149  1.00  0.00     0.112 A 
HETATM   21  C   UNL     1      -1.611   5.636 -32.219  1.00  0.00     0.051 A 
HETATM   22 CL   UNL     1      -0.551   6.927 -32.499  1.00  0.00    -0.083 Cl
HETATM   23  C   UNL     1      -2.673   5.255 -33.074  1.00  0.00     0.060 A 
ENDBRANCH  14  17
ENDBRANCH   4  13
TORSDOF 2
ENDMDL
MODEL 2
REMARK VINA RESULT:      -7.4      4.417      5.628
REMARK  2 active torsions:
REMARK  status: ('A' for Active; 'I' for Inactive)
REMARK    1  A    between atoms: N_4  and  N_5 
REMARK       I    between atoms: N_5  and  C_6 
REMARK    2  A    between atoms: C_6  and  C_7 
ROOT
HETATM    1  C   UNL     1      -3.537  -0.519 -32.663  1.00  0.00     0.158 C 
HETATM    2  N   UNL     1      -4.636  -1.090 -33.435  1.00  0.00    -0.329 N 
HETATM    3  C   UNL     1      -5.707  -0.454 -33.928  1.00  0.00     0.166 A 
HETATM    4  N   UNL     1      -5.960   0.851 -33.788  1.00  0.00    -0.277 N 
HETATM    5  S   UNL     1      -6.771  -1.518 -34.794  1.00  0.00    -0.050 SA
HETATM    6  C   UNL     1      -5.740  -2.858 -34.476  1.00  0.00     0.035 A 
HETATM    7  C   UNL     1      -4.635  -2.451 -33.733  1.00  0.00     0.053 A 
HETATM    8  C   UNL     1      -5.914  -4.195 -34.871  1.00  0.00     0.021 A 
HETATM    9  C   UNL     1      -4.943  -5.127 -34.498  1.00  0.00     0.002 A 
HETATM   10  C   UNL     1      -3.832  -4.740 -33.756  1.00  0.00     0.002 A 
HETATM   11  C   UNL     1      -3.665  -3.405 -33.365  1.00  0.00     0.031 A 
HETATM   12  H   UNL     1      -5.278   1.395 -33.262  1.00  0.00     0.189 HD
ENDROOT
BRANCH   4  13
HETATM   13  N   UNL     1      -7.016   1.505 -34.270  1.00  0.00    -0.263 N 
HETATM   14  C   UNL     1      -8.048   1.766 -33.383  1.00  0.00     0.286 C 
HETATM   15  O   UNL     1      -7.956   1.397 -32.212  1.00  0.00    -0.264 OA
HETATM   16  H   UNL     1      -7.047   1.790 -35.245  1.00  0.00     0.190 HD
BRANCH  14  17
HETATM   17  C   UNL     1      -9.187   2.474 -33.913  1.00  0.00     0.103 A 
HETATM   18  N   UNL     1      -9.144   3.836 -34.156  1.00  0.00    -0.360 N 
HETATM   19  H   UNL     1      -8.334   4.423 -33.987  1.00  0.00     0.165 HD
HETATM   20  C   UNL     1     -10.344   4.267 -34.653  1.00  0.00     0.112 A 
HETATM   21  C   UNL     1     -11.179   3.181 -34.736  1.00  0.00     0.051 A 
HETATM   22 CL   UNL     1     -12.781   3.155 -35.286  1.00  0.00    -0.083 Cl
HETATM   23  C   UNL     1     -10.460   2.053 -34.273  1.00  0.00     0.060 A 
ENDBRANCH  14  17
ENDBRANCH   4  13
TORSDOF 2
ENDMDL
MODEL 3
REMARK VINA RESULT:      -7.4      5.184      6.567
REMARK  2 active torsions:
REMARK  status: ('A' for Active; 'I' for Inactive)
REMARK    1  A    between atoms: N_4  and  N_5 
REMARK       I    between atoms: N_5  and  C_6 
REMARK    2  A    between atoms: C_6  and  C_7 
ROOT
HETATM    1  C   UNL     1      -5.341   0.478 -30.529  1.00  0.00     0.158 C 
HETATM    2  N   UNL     1      -6.333   0.161 -31.553  1.00  0.00    -0.329 N 
HETATM    3  C   UNL     1      -7.594   0.605 -31.634  1.00  0.00     0.166 A 
HETATM    4  N   UNL     1      -8.177   1.433 -30.763  1.00  0.00    -0.277 N 
HETATM    5  S   UNL     1      -8.429  -0.019 -33.023  1.00  0.00    -0.050 SA
HETATM    6  C   UNL     1      -7.034  -0.906 -33.501  1.00  0.00     0.035 A 
HETATM    7  C   UNL     1      -5.995  -0.695 -32.599  1.00  0.00     0.053 A 
HETATM    8  C   UNL     1      -6.883  -1.740 -34.621  1.00  0.00     0.021 A 
HETATM    9  C   UNL     1      -5.650  -2.367 -34.818  1.00  0.00     0.002 A 
HETATM   10  C   UNL     1      -4.601  -2.169 -33.927  1.00  0.00     0.002 A 
HETATM   11  C   UNL     1      -4.758  -1.336 -32.812  1.00  0.00     0.031 A 
HETATM   12  H   UNL     1      -7.608   1.745 -29.978  1.00  0.00     0.189 HD
ENDROOT
BRANCH   4  13
HETATM   13  N   UNL     1      -9.428   1.888 -30.824  1.00  0.00    -0.263 N 
HETATM   14  C   UNL     1      -9.590   3.254 -30.991  1.00  0.00     0.286 C 
HETATM   15  O   UNL     1      -8.600   3.981 -31.077  1.00  0.00    -0.264 OA
HETATM   16  H   UNL     1     -10.215   1.250 -30.748  1.00  0.00     0.190 HD
BRANCH  14  17
HETATM   17  C   UNL     1     -10.947   3.737 -31.056  1.00  0.00     0.103 A 
HETATM   18  N   UNL     1     -11.782   3.703 -29.953  1.00  0.00    -0.360 N 
HETATM   19  H   UNL     1     -11.513   3.349 -29.042  1.00  0.00     0.165 HD
HETATM   20  C   UNL     1     -13.010   4.215 -30.273  1.00  0.00     0.112 A 
HETATM   21  C   UNL     1     -12.981   4.586 -31.593  1.00  0.00     0.051 A 
HETATM   22 CL   UNL     1     -14.237   5.276 -32.496  1.00  0.00    -0.083 Cl
HETATM   23  C   UNL     1     -11.690   4.289 -32.091  1.00  0.00     0.060 A 
ENDBRANCH  14  17
ENDBRANCH   4  13
TORSDOF 2
ENDMDL
MODEL 4
REMARK VINA RESULT:      -7.3      2.429      3.624
REMARK  2 active torsions:
REMARK  status: ('A' for Active; 'I' for Inactive)
REMARK    1  A    between atoms: N_4  and  N_5 
REMARK       I    between atoms: N_5  and  C_6 
REMARK    2  A    between atoms: C_6  and  C_7 
ROOT
HETATM    1  C   UNL     1      -6.423   3.824 -33.789  1.00  0.00     0.158 C 
HETATM    2  N   UNL     1      -5.506   2.911 -33.112  1.00  0.00    -0.329 N 
HETATM    3  C   UNL     1      -4.529   3.224 -32.251  1.00  0.00     0.166 A 
HETATM    4  N   UNL     1      -4.216   4.461 -31.856  1.00  0.00    -0.277 N 
HETATM    5  S   UNL     1      -3.677   1.824 -31.676  1.00  0.00    -0.050 SA
HETATM    6  C   UNL     1      -4.669   0.791 -32.631  1.00  0.00     0.035 A 
HETATM    7  C   UNL     1      -5.602   1.541 -33.343  1.00  0.00     0.053 A 
HETATM    8  C   UNL     1      -4.611  -0.609 -32.735  1.00  0.00     0.021 A 
HETATM    9  C   UNL     1      -5.521  -1.248 -33.579  1.00  0.00     0.002 A 
HETATM   10  C   UNL     1      -6.461  -0.517 -34.297  1.00  0.00     0.002 A 
HETATM   11  C   UNL     1      -6.513   0.879 -34.189  1.00  0.00     0.031 A 
HETATM   12  H   UNL     1      -4.771   5.220 -32.249  1.00  0.00     0.189 HD
ENDROOT
BRANCH   4  13
HETATM   13  N   UNL     1      -3.251   4.796 -31.001  1.00  0.00    -0.263 N 
HETATM   14  C   UNL     1      -2.227   5.589 -31.492  1.00  0.00     0.286 C 
HETATM   15  O   UNL     1      -2.244   5.951 -32.669  1.00  0.00    -0.264 OA
HETATM   16  H   UNL     1      -3.278   4.474 -30.037  1.00  0.00     0.190 HD
BRANCH  14  17
HETATM   17  C   UNL     1      -1.186   5.947 -30.560  1.00  0.00     0.103 A 
HETATM   18  N   UNL     1      -0.453   4.984 -29.889  1.00  0.00    -0.360 N 
HETATM   19  H   UNL     1      -0.584   3.984 -29.998  1.00  0.00     0.165 HD
HETATM   20  C   UNL     1       0.467   5.577 -29.066  1.00  0.00     0.112 A 
HETATM   21  C   UNL     1       0.334   6.936 -29.198  1.00  0.00     0.051 A 
HETATM   22 CL   UNL     1       1.228   8.137 -28.406  1.00  0.00    -0.083 Cl
HETATM   23  C   UNL     1      -0.701   7.175 -30.133  1.00  0.00     0.060 A 
ENDBRANCH  14  17
ENDBRANCH   4  13
TORSDOF 2
ENDMDL
MODEL 5
REMARK VINA RESULT:      -7.2      6.122      8.390
REMARK  2 active torsions:
REMARK  status: ('A' for Active; 'I' for Inactive)
REMARK    1  A    between atoms: N_4  and  N_5 
REMARK       I    between atoms: N_5  and  C_6 
REMARK    2  A    between atoms: C_6  and  C_7 
ROOT
HETATM    1  C   UNL     1      -7.802  -0.247 -35.293  1.00  0.00     0.158 C 
HETATM    2  N   UNL     1      -7.861   0.125 -33.883  1.00  0.00    -0.329 N 
HETATM    3  C   UNL     1      -8.915   0.602 -33.206  1.00  0.00     0.166 A 
HETATM    4  N   UNL     1     -10.124   0.829 -33.725  1.00  0.00    -0.277 N 
HETATM    5  S   UNL     1      -8.548   0.909 -31.538  1.00  0.00    -0.050 SA
HETATM    6  C   UNL     1      -6.926   0.381 -31.765  1.00  0.00     0.035 A 
HETATM    7  C   UNL     1      -6.726  -0.008 -33.087  1.00  0.00     0.053 A 
HETATM    8  C   UNL     1      -5.896   0.319 -30.812  1.00  0.00     0.021 A 
HETATM    9  C   UNL     1      -4.644  -0.146 -31.220  1.00  0.00     0.002 A 
HETATM   10  C   UNL     1      -4.424  -0.539 -32.536  1.00  0.00     0.002 A 
HETATM   11  C   UNL     1      -5.456  -0.475 -33.481  1.00  0.00     0.031 A 
HETATM   12  H   UNL     1     -10.244   0.620 -34.716  1.00  0.00     0.189 HD
ENDROOT
BRANCH   4  13
HETATM   13  N   UNL     1     -11.186   1.302 -33.073  1.00  0.00    -0.263 N 
HETATM   14  C   UNL     1     -12.343   1.486 -33.811  1.00  0.00     0.286 C 
HETATM   15  O   UNL     1     -12.353   1.213 -35.012  1.00  0.00    -0.264 OA
HETATM   16  H   UNL     1     -11.131   1.513 -32.080  1.00  0.00     0.190 HD
BRANCH  14  17
HETATM   17  C   UNL     1     -13.487   1.998 -33.097  1.00  0.00     0.103 A 
HETATM   18  N   UNL     1     -13.356   2.971 -32.122  1.00  0.00    -0.360 N 
HETATM   19  H   UNL     1     -12.475   3.388 -31.843  1.00  0.00     0.165 HD
HETATM   20  C   UNL     1     -14.581   3.283 -31.597  1.00  0.00     0.112 A 
HETATM   21  C   UNL     1     -15.520   2.509 -32.231  1.00  0.00     0.051 A 
HETATM   22 CL   UNL     1     -17.193   2.497 -31.964  1.00  0.00    -0.083 Cl
HETATM   23  C   UNL     1     -14.841   1.700 -33.173  1.00  0.00     0.060 A 
ENDBRANCH  14  17
ENDBRANCH   4  13
TORSDOF 2
ENDMDL
MODEL 6
REMARK VINA RESULT:      -6.9      3.395      7.917
REMARK  2 active torsions:
REMARK  status: ('A' for Active; 'I' for Inactive)
REMARK    1  A    between atoms: N_4  and  N_5 
REMARK       I    between atoms: N_5  and  C_6 
REMARK    2  A    between atoms: C_6  and  C_7 
ROOT
HETATM    1  C   UNL     1      -5.977   5.749 -31.954  1.00  0.00     0.158 C 
HETATM    2  N   UNL     1      -4.732   5.039 -32.231  1.00  0.00    -0.329 N 
HETATM    3  C   UNL     1      -4.570   3.727 -32.452  1.00  0.00     0.166 A 
HETATM    4  N   UNL     1      -5.551   2.820 -32.454  1.00  0.00    -0.277 N 
HETATM    5  S   UNL     1      -2.913   3.303 -32.747  1.00  0.00    -0.050 SA
HETATM    6  C   UNL     1      -2.428   4.944 -32.561  1.00  0.00     0.035 A 
HETATM    7  C   UNL     1      -3.532   5.746 -32.287  1.00  0.00     0.053 A 
HETATM    8  C   UNL     1      -1.132   5.478 -32.656  1.00  0.00     0.021 A 
HETATM    9  C   UNL     1      -0.967   6.851 -32.467  1.00  0.00     0.002 A 
HETATM   10  C   UNL     1      -2.058   7.669 -32.192  1.00  0.00     0.002 A 
HETATM   11  C   UNL     1      -3.347   7.130 -32.099  1.00  0.00     0.031 A 
HETATM   12  H   UNL     1      -6.492   3.164 -32.269  1.00  0.00     0.189 HD
ENDROOT
BRANCH   4  13
HETATM   13  N   UNL     1      -5.414   1.513 -32.672  1.00  0.00    -0.263 N 
HETATM   14  C   UNL     1      -6.035   0.999 -33.799  1.00  0.00     0.286 C 
HETATM   15  O   UNL     1      -6.673   1.747 -34.541  1.00  0.00    -0.264 OA
HETATM   16  H   UNL     1      -4.878   0.934 -32.032  1.00  0.00     0.190 HD
BRANCH  14  17
HETATM   17  C   UNL     1      -5.882  -0.417 -34.029  1.00  0.00     0.103 A 
HETATM   18  N   UNL     1      -4.697  -1.072 -33.745  1.00  0.00    -0.360 N 
HETATM   19  H   UNL     1      -3.870  -0.624 -33.365  1.00  0.00     0.165 HD
HETATM   20  C   UNL     1      -4.806  -2.402 -34.050  1.00  0.00     0.112 A 
HETATM   21  C   UNL     1      -6.071  -2.619 -34.537  1.00  0.00     0.051 A 
HETATM   22 CL   UNL     1      -6.732  -4.087 -35.063  1.00  0.00    -0.083 Cl
HETATM   23  C   UNL     1      -6.751  -1.378 -34.527  1.00  0.00     0.060 A 
ENDBRANCH  14  17
ENDBRANCH   4  13
TORSDOF 2
ENDMDL
MODEL 7
REMARK VINA RESULT:      -6.8      3.516      8.176
REMARK  2 active torsions:
REMARK  status: ('A' for Active; 'I' for Inactive)
REMARK    1  A    between atoms: N_4  and  N_5 
REMARK       I    between atoms: N_5  and  C_6 
REMARK    2  A    between atoms: C_6  and  C_7 
ROOT
HETATM    1  C   UNL     1      -4.641   6.343 -30.008  1.00  0.00     0.158 C 
HETATM    2  N   UNL     1      -3.707   5.628 -30.873  1.00  0.00    -0.329 N 
HETATM    3  C   UNL     1      -3.984   4.645 -31.741  1.00  0.00     0.166 A 
HETATM    4  N   UNL     1      -5.198   4.135 -31.965  1.00  0.00    -0.277 N 
HETATM    5  S   UNL     1      -2.570   4.078 -32.574  1.00  0.00    -0.050 SA
HETATM    6  C   UNL     1      -1.580   5.197 -31.721  1.00  0.00     0.035 A 
HETATM    7  C   UNL     1      -2.353   5.956 -30.845  1.00  0.00     0.053 A 
HETATM    8  C   UNL     1      -0.192   5.384 -31.833  1.00  0.00     0.021 A 
HETATM    9  C   UNL     1       0.411   6.359 -31.036  1.00  0.00     0.002 A 
HETATM   10  C   UNL     1      -0.344   7.126 -30.155  1.00  0.00     0.002 A 
HETATM   11  C   UNL     1      -1.728   6.935 -30.048  1.00  0.00     0.031 A 
HETATM   12  H   UNL     1      -5.967   4.532 -31.426  1.00  0.00     0.189 HD
ENDROOT
BRANCH   4  13
HETATM   13  N   UNL     1      -5.497   3.160 -32.822  1.00  0.00    -0.263 N 
HETATM   14  C   UNL     1      -5.950   1.968 -32.281  1.00  0.00     0.286 C 
HETATM   15  O   UNL     1      -6.060   1.853 -31.060  1.00  0.00    -0.264 OA
HETATM   16  H   UNL     1      -5.391   3.300 -33.824  1.00  0.00     0.190 HD
BRANCH  14  17
HETATM   17  C   UNL     1      -6.272   0.918 -33.216  1.00  0.00     0.103 A 
HETATM   18  N   UNL     1      -6.682   1.200 -34.507  1.00  0.00    -0.360 N 
HETATM   19  H   UNL     1      -6.784   2.135 -34.886  1.00  0.00     0.165 HD
HETATM   20  C   UNL     1      -6.926   0.039 -35.190  1.00  0.00     0.112 A 
HETATM   21  C   UNL     1      -6.674  -1.009 -34.342  1.00  0.00     0.051 A 
HETATM   22 CL   UNL     1      -6.817  -2.663 -34.679  1.00  0.00    -0.083 Cl
HETATM   23  C   UNL     1      -6.264  -0.465 -33.101  1.00  0.00     0.060 A 
ENDBRANCH  14  17
ENDBRANCH   4  13
TORSDOF 2
ENDMDL
MODEL 8
REMARK VINA RESULT:      -6.7      3.799      4.389
REMARK  2 active torsions:
REMARK  status: ('A' for Active; 'I' for Inactive)
REMARK    1  A    between atoms: N_4  and  N_5 
REMARK       I    between atoms: N_5  and  C_6 
REMARK    2  A    between atoms: C_6  and  C_7 
ROOT
HETATM    1  C   UNL     1      -9.366   4.775 -34.592  1.00  0.00     0.158 C 
HETATM    2  N   UNL     1      -8.532   3.866 -33.811  1.00  0.00    -0.329 N 
HETATM    3  C   UNL     1      -7.294   4.085 -33.348  1.00  0.00     0.166 A 
HETATM    4  N   UNL     1      -6.591   5.206 -33.532  1.00  0.00    -0.277 N 
HETATM    5  S   UNL     1      -6.669   2.733 -32.457  1.00  0.00    -0.050 SA
HETATM    6  C   UNL     1      -8.120   1.847 -32.724  1.00  0.00     0.035 A 
HETATM    7  C   UNL     1      -9.018   2.605 -33.470  1.00  0.00     0.053 A 
HETATM    8  C   UNL     1      -8.433   0.548 -32.288  1.00  0.00     0.021 A 
HETATM    9  C   UNL     1      -9.682   0.021 -32.622  1.00  0.00     0.002 A 
HETATM   10  C   UNL     1     -10.592   0.763 -33.366  1.00  0.00     0.002 A 
HETATM   11  C   UNL     1     -10.274   2.057 -33.798  1.00  0.00     0.031 A 
HETATM   12  H   UNL     1      -7.041   5.945 -34.070  1.00  0.00     0.189 HD
ENDROOT
BRANCH   4  13
HETATM   13  N   UNL     1      -5.360   5.447 -33.080  1.00  0.00    -0.263 N 
HETATM   14  C   UNL     1      -4.335   5.415 -34.012  1.00  0.00     0.286 C 
HETATM   15  O   UNL     1      -4.588   5.174 -35.192  1.00  0.00    -0.264 OA
HETATM   16  H   UNL     1      -5.199   5.642 -32.096  1.00  0.00     0.190 HD
BRANCH  14  17
HETATM   17  C   UNL     1      -3.007   5.678 -33.514  1.00  0.00     0.103 A 
HETATM   18  N   UNL     1      -2.238   6.713 -34.015  1.00  0.00    -0.360 N 
HETATM   19  H   UNL     1      -2.538   7.349 -34.746  1.00  0.00     0.165 HD
HETATM   20  C   UNL     1      -1.024   6.751 -33.383  1.00  0.00     0.112 A 
HETATM   21  C   UNL     1      -0.998   5.734 -32.463  1.00  0.00     0.051 A 
HETATM   22 CL   UNL     1       0.266   5.332 -31.410  1.00  0.00    -0.083 Cl
HETATM   23  C   UNL     1      -2.238   5.056 -32.540  1.00  0.00     0.060 A 
ENDBRANCH  14  17
ENDBRANCH   4  13
TORSDOF 2
ENDMDL
MODEL 9
REMARK VINA RESULT:      -6.7      4.834      7.246
REMARK  2 active torsions:
REMARK  status: ('A' for Active; 'I' for Inactive)
REMARK    1  A    between atoms: N_4  and  N_5 
REMARK       I    between atoms: N_5  and  C_6 
REMARK    2  A    between atoms: C_6  and  C_7 
ROOT
HETATM    1  C   UNL     1      -4.923   3.086 -32.199  1.00  0.00     0.158 C 
HETATM    2  N   UNL     1      -5.428   1.788 -32.636  1.00  0.00    -0.329 N 
HETATM    3  C   UNL     1      -6.601   1.524 -33.228  1.00  0.00     0.166 A 
HETATM    4  N   UNL     1      -7.536   2.431 -33.523  1.00  0.00    -0.277 N 
HETATM    5  S   UNL     1      -6.799  -0.163 -33.586  1.00  0.00    -0.050 SA
HETATM    6  C   UNL     1      -5.255  -0.518 -32.913  1.00  0.00     0.035 A 
HETATM    7  C   UNL     1      -4.651   0.647 -32.448  1.00  0.00     0.053 A 
HETATM    8  C   UNL     1      -4.624  -1.769 -32.811  1.00  0.00     0.021 A 
HETATM    9  C   UNL     1      -3.359  -1.826 -32.223  1.00  0.00     0.002 A 
HETATM   10  C   UNL     1      -2.740  -0.673 -31.752  1.00  0.00     0.002 A 
HETATM   11  C   UNL     1      -3.374   0.571 -31.857  1.00  0.00     0.031 A 
HETATM   12  H   UNL     1      -7.331   3.398 -33.272  1.00  0.00     0.189 HD
ENDROOT
BRANCH   4  13
HETATM   13  N   UNL     1      -8.708   2.193 -34.111  1.00  0.00    -0.263 N 
HETATM   14  C   UNL     1      -9.831   2.213 -33.300  1.00  0.00     0.286 C 
HETATM   15  O   UNL     1      -9.713   2.447 -32.097  1.00  0.00    -0.264 OA
HETATM   16  H   UNL     1      -8.758   2.005 -35.109  1.00  0.00     0.190 HD
BRANCH  14  17
HETATM   17  C   UNL     1     -11.095   1.954 -33.945  1.00  0.00     0.103 A 
HETATM   18  N   UNL     1     -11.360   2.405 -35.225  1.00  0.00    -0.360 N 
HETATM   19  H   UNL     1     -10.708   2.936 -35.793  1.00  0.00     0.165 HD
HETATM   20  C   UNL     1     -12.621   2.033 -35.607  1.00  0.00     0.112 A 
HETATM   21  C   UNL     1     -13.184   1.334 -34.570  1.00  0.00     0.051 A 
HETATM   22 CL   UNL     1     -14.731   0.645 -34.516  1.00  0.00    -0.083 Cl
HETATM   23  C   UNL     1     -12.233   1.281 -33.524  1.00  0.00     0.060 A 
ENDBRANCH  14  17
ENDBRANCH   4  13
TORSDOF 2
ENDMDL
MODEL 10
REMARK VINA RESULT:      -6.7      5.145      7.989
REMARK  2 active torsions:
REMARK  status: ('A' for Active; 'I' for Inactive)
REMARK    1  A    between atoms: N_4  and  N_5 
REMARK       I    between atoms: N_5  and  C_6 
REMARK    2  A    between atoms: C_6  and  C_7 
ROOT
HETATM    1  C   UNL     1      -9.566   3.505 -30.678  1.00  0.00     0.158 C 
HETATM    2  N   UNL     1      -9.988   2.925 -31.950  1.00  0.00    -0.329 N 
HETATM    3  C   UNL     1      -9.527   1.811 -32.533  1.00  0.00     0.166 A 
HETATM    4  N   UNL     1      -8.571   1.021 -32.037  1.00  0.00    -0.277 N 
HETATM    5  S   UNL     1     -10.313   1.478 -34.045  1.00  0.00    -0.050 SA
HETATM    6  C   UNL     1     -11.288   2.888 -33.882  1.00  0.00     0.035 A 
HETATM    7  C   UNL     1     -10.984   3.550 -32.696  1.00  0.00     0.053 A 
HETATM    8  C   UNL     1     -12.267   3.368 -34.768  1.00  0.00     0.021 A 
HETATM    9  C   UNL     1     -12.943   4.543 -34.433  1.00  0.00     0.002 A 
HETATM   10  C   UNL     1     -12.653   5.219 -33.253  1.00  0.00     0.002 A 
HETATM   11  C   UNL     1     -11.676   4.735 -32.374  1.00  0.00     0.031 A 
HETATM   12  H   UNL     1      -8.166   1.298 -31.144  1.00  0.00     0.189 HD
ENDROOT
BRANCH   4  13
HETATM   13  N   UNL     1      -8.097  -0.091 -32.598  1.00  0.00    -0.263 N 
HETATM   14  C   UNL     1      -6.822  -0.027 -33.136  1.00  0.00     0.286 C 
HETATM   15  O   UNL     1      -6.186   1.026 -33.077  1.00  0.00    -0.264 OA
HETATM   16  H   UNL     1      -8.659  -0.938 -32.624  1.00  0.00     0.190 HD
BRANCH  14  17
HETATM   17  C   UNL     1      -6.317  -1.235 -33.741  1.00  0.00     0.103 A 
HETATM   18  N   UNL     1      -4.964  -1.525 -33.759  1.00  0.00    -0.360 N 
HETATM   19  H   UNL     1      -4.245  -0.931 -33.361  1.00  0.00     0.165 HD
HETATM   20  C   UNL     1      -4.745  -2.720 -34.388  1.00  0.00     0.112 A 
HETATM   21  C   UNL     1      -5.961  -3.216 -34.785  1.00  0.00     0.051 A 
HETATM   22 CL   UNL     1      -6.261  -4.667 -35.607  1.00  0.00    -0.083 Cl
HETATM   23  C   UNL     1      -6.952  -2.289 -34.383  1.00  0.00     0.060 A 
ENDBRANCH  14  17
ENDBRANCH   4  13
TORSDOF 2
ENDMDL
