MODEL 1
REMARK VINA RESULT:      -9.6      0.000      0.000
REMARK  8 active torsions:
REMARK  status: ('A' for Active; 'I' for Inactive)
REMARK    1  A    between atoms: C_3  and  S_4 
REMARK    2  A    between atoms: S_4  and  C_5 
REMARK    3  A    between atoms: C_5  and  C_6 
REMARK       I    between atoms: C_6  and  N_7 
REMARK    4  A    between atoms: N_7  and  C_8 
REMARK    5  A    between atoms: C_8  and  C_9 
REMARK    6  A    between atoms: C_18  and  C_19 
REMARK    7  A    between atoms: C_19  and  O_20 
REMARK    8  A    between atoms: O_20  and  C_21 
ROOT
HETATM    1  C   UNL     1      -2.705   3.778 -32.277  1.00  0.00     0.160 C 
HETATM    2  N   UNL     1      -3.409   4.399 -33.369  1.00  0.00    -0.314 N 
HETATM    3  C   UNL     1      -4.753   4.401 -33.610  1.00  0.00     0.191 A 
HETATM    4  N   UNL     1      -5.011   5.090 -34.697  1.00  0.00    -0.123 NA
HETATM    5  N   UNL     1      -3.818   5.544 -35.195  1.00  0.00    -0.132 NA
HETATM    6  C   UNL     1      -2.852   5.124 -34.400  1.00  0.00     0.154 A 
ENDROOT
BRANCH   3   7
HETATM    7  S   UNL     1      -5.922   3.595 -32.626  1.00  0.00    -0.081 SA
BRANCH   7   8
HETATM    8  C   UNL     1      -6.153   2.047 -33.550  1.00  0.00     0.185 C 
BRANCH   8   9
HETATM    9  C   UNL     1      -5.467   0.872 -32.872  1.00  0.00     0.227 C 
HETATM   10  N   UNL     1      -4.820   0.004 -33.717  1.00  0.00    -0.356 N 
HETATM   11  H   UNL     1      -4.831   0.200 -34.716  1.00  0.00     0.162 HD
HETATM   12  O   UNL     1      -5.546   0.696 -31.657  1.00  0.00    -0.273 OA
BRANCH  10  13
HETATM   13  C   UNL     1      -4.204  -1.221 -33.269  1.00  0.00     0.161 C 
BRANCH  13  14
HETATM   14  C   UNL     1      -4.860  -2.439 -33.870  1.00  0.00    -0.041 A 
HETATM   15  C   UNL     1      -4.168  -3.659 -33.923  1.00  0.00     0.009 A 
HETATM   16  C   UNL     1      -4.780  -4.802 -34.441  1.00  0.00     0.001 A 
HETATM   17  C   UNL     1      -6.090  -4.739 -34.914  1.00  0.00     0.000 A 
HETATM   18  C   UNL     1      -6.787  -3.533 -34.871  1.00  0.00     0.001 A 
HETATM   19  C   UNL     1      -6.178  -2.390 -34.349  1.00  0.00     0.009 A 
ENDBRANCH  13  14
ENDBRANCH  10  13
ENDBRANCH   8   9
ENDBRANCH   7   8
ENDBRANCH   3   7
BRANCH   6  20
HETATM   20  C   UNL     1      -1.399   5.414 -34.564  1.00  0.00     0.256 C 
BRANCH  20  21
HETATM   21  O   UNL     1      -1.205   6.796 -34.268  1.00  0.00    -0.344 OA
BRANCH  21  22
HETATM   22  C   UNL     1      -1.136   7.134 -32.943  1.00  0.00     0.070 A 
HETATM   23  C   UNL     1      -0.236   6.614 -32.009  1.00  0.00     0.049 A 
HETATM   24  C   UNL     1      -0.269   7.032 -30.666  1.00  0.00    -0.023 A 
HETATM   25  C   UNL     1      -1.220   7.996 -30.261  1.00  0.00    -0.026 A 
HETATM   26  C   UNL     1       0.621   6.508 -29.713  1.00  0.00     0.012 A 
HETATM   27  C   UNL     1      -2.106   8.522 -31.210  1.00  0.00     0.015 A 
HETATM   28  C   UNL     1      -1.258   8.404 -28.917  1.00  0.00     0.012 A 
HETATM   29  C   UNL     1      -2.060   8.096 -32.539  1.00  0.00     0.037 A 
HETATM   30  C   UNL     1      -0.368   7.869 -27.984  1.00  0.00     0.001 A 
HETATM   31  C   UNL     1       0.571   6.924 -28.382  1.00  0.00     0.001 A 
ENDBRANCH  21  22
ENDBRANCH  20  21
ENDBRANCH   6  20
TORSDOF 8
ENDMDL
MODEL 2
REMARK VINA RESULT:      -9.4      1.693     10.278
REMARK  8 active torsions:
REMARK  status: ('A' for Active; 'I' for Inactive)
REMARK    1  A    between atoms: C_3  and  S_4 
REMARK    2  A    between atoms: S_4  and  C_5 
REMARK    3  A    between atoms: C_5  and  C_6 
REMARK       I    between atoms: C_6  and  N_7 
REMARK    4  A    between atoms: N_7  and  C_8 
REMARK    5  A    between atoms: C_8  and  C_9 
REMARK    6  A    between atoms: C_18  and  C_19 
REMARK    7  A    between atoms: C_19  and  O_20 
REMARK    8  A    between atoms: O_20  and  C_21 
ROOT
HETATM    1  C   UNL     1      -5.408   4.287 -34.165  1.00  0.00     0.160 C 
HETATM    2  N   UNL     1      -4.258   3.960 -33.361  1.00  0.00    -0.314 N 
HETATM    3  C   UNL     1      -3.061   4.616 -33.301  1.00  0.00     0.191 A 
HETATM    4  N   UNL     1      -2.271   4.022 -32.437  1.00  0.00    -0.123 NA
HETATM    5  N   UNL     1      -2.947   2.947 -31.925  1.00  0.00    -0.132 NA
HETATM    6  C   UNL     1      -4.142   2.905 -32.484  1.00  0.00     0.154 A 
ENDROOT
BRANCH   3   7
HETATM    7  S   UNL     1      -2.662   6.008 -34.242  1.00  0.00    -0.081 SA
BRANCH   7   8
HETATM    8  C   UNL     1      -1.156   6.582 -33.402  1.00  0.00     0.185 C 
BRANCH   8   9
HETATM    9  C   UNL     1      -1.472   7.507 -32.238  1.00  0.00     0.227 C 
HETATM   10  N   UNL     1      -1.462   6.914 -31.000  1.00  0.00    -0.356 N 
HETATM   11  H   UNL     1      -1.240   5.922 -30.937  1.00  0.00     0.162 HD
HETATM   12  O   UNL     1      -1.772   8.687 -32.418  1.00  0.00    -0.273 OA
BRANCH  10  13
HETATM   13  C   UNL     1      -1.839   7.605 -29.790  1.00  0.00     0.161 C 
BRANCH  13  14
HETATM   14  C   UNL     1      -0.782   7.494 -28.720  1.00  0.00    -0.041 A 
HETATM   15  C   UNL     1       0.435   8.180 -28.857  1.00  0.00     0.009 A 
HETATM   16  C   UNL     1       1.404   8.115 -27.853  1.00  0.00     0.001 A 
HETATM   17  C   UNL     1       1.169   7.365 -26.703  1.00  0.00     0.000 A 
HETATM   18  C   UNL     1      -0.034   6.676 -26.556  1.00  0.00     0.001 A 
HETATM   19  C   UNL     1      -1.006   6.743 -27.556  1.00  0.00     0.009 A 
ENDBRANCH  13  14
ENDBRANCH  10  13
ENDBRANCH   8   9
ENDBRANCH   7   8
ENDBRANCH   3   7
BRANCH   6  20
HETATM   20  C   UNL     1      -5.207   1.905 -32.191  1.00  0.00     0.256 C 
BRANCH  20  21
HETATM   21  O   UNL     1      -5.615   1.342 -33.438  1.00  0.00    -0.344 OA
BRANCH  21  22
HETATM   22  C   UNL     1      -5.365   0.009 -33.618  1.00  0.00     0.070 A 
HETATM   23  C   UNL     1      -6.242  -0.923 -34.179  1.00  0.00     0.049 A 
HETATM   24  C   UNL     1      -5.874  -2.276 -34.302  1.00  0.00    -0.023 A 
HETATM   25  C   UNL     1      -4.599  -2.694 -33.858  1.00  0.00    -0.026 A 
HETATM   26  C   UNL     1      -6.751  -3.226 -34.853  1.00  0.00     0.012 A 
HETATM   27  C   UNL     1      -3.722  -1.747 -33.313  1.00  0.00     0.015 A 
HETATM   28  C   UNL     1      -4.238  -4.046 -33.972  1.00  0.00     0.012 A 
HETATM   29  C   UNL     1      -4.103  -0.409 -33.198  1.00  0.00     0.037 A 
HETATM   30  C   UNL     1      -5.124  -4.977 -34.519  1.00  0.00     0.001 A 
HETATM   31  C   UNL     1      -6.378  -4.567 -34.960  1.00  0.00     0.001 A 
ENDBRANCH  21  22
ENDBRANCH  20  21
ENDBRANCH   6  20
TORSDOF 8
ENDMDL
MODEL 3
REMARK VINA RESULT:      -9.2      1.793      9.729
REMARK  8 active torsions:
REMARK  status: ('A' for Active; 'I' for Inactive)
REMARK    1  A    between atoms: C_3  and  S_4 
REMARK    2  A    between atoms: S_4  and  C_5 
REMARK    3  A    between atoms: C_5  and  C_6 
REMARK       I    between atoms: C_6  and  N_7 
REMARK    4  A    between atoms: N_7  and  C_8 
REMARK    5  A    between atoms: C_8  and  C_9 
REMARK    6  A    between atoms: C_18  and  C_19 
REMARK    7  A    between atoms: C_19  and  O_20 
REMARK    8  A    between atoms: O_20  and  C_21 
ROOT
HETATM    1  C   UNL     1      -3.557   3.545 -31.731  1.00  0.00     0.160 C 
HETATM    2  N   UNL     1      -4.043   4.208 -32.913  1.00  0.00    -0.314 N 
HETATM    3  C   UNL     1      -3.342   4.992 -33.786  1.00  0.00     0.191 A 
HETATM    4  N   UNL     1      -4.133   5.402 -34.750  1.00  0.00    -0.123 NA
HETATM    5  N   UNL     1      -5.382   4.896 -34.508  1.00  0.00    -0.132 NA
HETATM    6  C   UNL     1      -5.332   4.181 -33.400  1.00  0.00     0.154 A 
ENDROOT
BRANCH   3   7
HETATM    7  S   UNL     1      -1.668   5.384 -33.617  1.00  0.00    -0.081 SA
BRANCH   7   8
HETATM    8  C   UNL     1      -1.718   7.197 -33.734  1.00  0.00     0.185 C 
BRANCH   8   9
HETATM    9  C   UNL     1      -1.894   7.850 -32.373  1.00  0.00     0.227 C 
HETATM   10  N   UNL     1      -2.062   6.980 -31.324  1.00  0.00    -0.356 N 
HETATM   11  H   UNL     1      -2.050   5.980 -31.514  1.00  0.00     0.162 HD
HETATM   12  O   UNL     1      -1.939   9.073 -32.247  1.00  0.00    -0.273 OA
BRANCH  10  13
HETATM   13  C   UNL     1      -2.348   7.413 -29.977  1.00  0.00     0.161 C 
BRANCH  13  14
HETATM   14  C   UNL     1      -1.104   7.482 -29.127  1.00  0.00    -0.041 A 
HETATM   15  C   UNL     1      -0.744   8.685 -28.500  1.00  0.00     0.009 A 
HETATM   16  C   UNL     1       0.384   8.750 -27.680  1.00  0.00     0.001 A 
HETATM   17  C   UNL     1       1.166   7.614 -27.477  1.00  0.00     0.000 A 
HETATM   18  C   UNL     1       0.822   6.414 -28.096  1.00  0.00     0.001 A 
HETATM   19  C   UNL     1      -0.308   6.346 -28.914  1.00  0.00     0.009 A 
ENDBRANCH  13  14
ENDBRANCH  10  13
ENDBRANCH   8   9
ENDBRANCH   7   8
ENDBRANCH   3   7
BRANCH   6  20
HETATM   20  C   UNL     1      -6.468   3.435 -32.791  1.00  0.00     0.256 C 
BRANCH  20  21
HETATM   21  O   UNL     1      -7.154   2.766 -33.849  1.00  0.00    -0.344 OA
BRANCH  21  22
HETATM   22  C   UNL     1      -6.833   1.450 -34.049  1.00  0.00     0.070 A 
HETATM   23  C   UNL     1      -5.735   0.780 -33.503  1.00  0.00     0.049 A 
HETATM   24  C   UNL     1      -5.502  -0.577 -33.793  1.00  0.00    -0.023 A 
HETATM   25  C   UNL     1      -6.395  -1.271 -34.640  1.00  0.00    -0.026 A 
HETATM   26  C   UNL     1      -4.395  -1.260 -33.261  1.00  0.00     0.012 A 
HETATM   27  C   UNL     1      -7.502  -0.593 -35.168  1.00  0.00     0.015 A 
HETATM   28  C   UNL     1      -6.155  -2.623 -34.936  1.00  0.00     0.012 A 
HETATM   29  C   UNL     1      -7.719   0.754 -34.870  1.00  0.00     0.037 A 
HETATM   30  C   UNL     1      -5.048  -3.284 -34.402  1.00  0.00     0.001 A 
HETATM   31  C   UNL     1      -4.170  -2.603 -33.564  1.00  0.00     0.001 A 
ENDBRANCH  21  22
ENDBRANCH  20  21
ENDBRANCH   6  20
TORSDOF 8
ENDMDL
MODEL 4
REMARK VINA RESULT:      -9.1      1.834     10.334
REMARK  8 active torsions:
REMARK  status: ('A' for Active; 'I' for Inactive)
REMARK    1  A    between atoms: C_3  and  S_4 
REMARK    2  A    between atoms: S_4  and  C_5 
REMARK    3  A    between atoms: C_5  and  C_6 
REMARK       I    between atoms: C_6  and  N_7 
REMARK    4  A    between atoms: N_7  and  C_8 
REMARK    5  A    between atoms: C_8  and  C_9 
REMARK    6  A    between atoms: C_18  and  C_19 
REMARK    7  A    between atoms: C_19  and  O_20 
REMARK    8  A    between atoms: O_20  and  C_21 
ROOT
HETATM    1  C   UNL     1      -4.724   3.339 -31.220  1.00  0.00     0.160 C 
HETATM    2  N   UNL     1      -5.259   3.882 -32.442  1.00  0.00    -0.314 N 
HETATM    3  C   UNL     1      -4.979   5.088 -33.019  1.00  0.00     0.191 A 
HETATM    4  N   UNL     1      -5.654   5.213 -34.139  1.00  0.00    -0.123 NA
HETATM    5  N   UNL     1      -6.403   4.079 -34.303  1.00  0.00    -0.132 NA
HETATM    6  C   UNL     1      -6.171   3.278 -33.280  1.00  0.00     0.154 A 
ENDROOT
BRANCH   3   7
HETATM    7  S   UNL     1      -3.909   6.266 -32.349  1.00  0.00    -0.081 SA
BRANCH   7   8
HETATM    8  C   UNL     1      -2.294   5.599 -32.848  1.00  0.00     0.185 C 
BRANCH   8   9
HETATM    9  C   UNL     1      -1.362   5.419 -31.661  1.00  0.00     0.227 C 
HETATM   10  N   UNL     1      -0.654   6.538 -31.298  1.00  0.00    -0.356 N 
HETATM   11  H   UNL     1      -0.800   7.398 -31.823  1.00  0.00     0.162 HD
HETATM   12  O   UNL     1      -1.220   4.326 -31.115  1.00  0.00    -0.273 OA
BRANCH  10  13
HETATM   13  C   UNL     1       0.355   6.534 -30.265  1.00  0.00     0.161 C 
BRANCH  13  14
HETATM   14  C   UNL     1       0.138   7.634 -29.256  1.00  0.00    -0.041 A 
HETATM   15  C   UNL     1      -1.105   8.280 -29.172  1.00  0.00     0.009 A 
HETATM   16  C   UNL     1      -1.327   9.272 -28.215  1.00  0.00     0.001 A 
HETATM   17  C   UNL     1      -0.310   9.631 -27.332  1.00  0.00     0.000 A 
HETATM   18  C   UNL     1       0.930   9.001 -27.407  1.00  0.00     0.001 A 
HETATM   19  C   UNL     1       1.153   8.005 -28.360  1.00  0.00     0.009 A 
ENDBRANCH  13  14
ENDBRANCH  10  13
ENDBRANCH   8   9
ENDBRANCH   7   8
ENDBRANCH   3   7
BRANCH   6  20
HETATM   20  C   UNL     1      -6.766   1.927 -33.077  1.00  0.00     0.256 C 
BRANCH  20  21
HETATM   21  O   UNL     1      -6.651   1.222 -34.313  1.00  0.00    -0.344 OA
BRANCH  21  22
HETATM   22  C   UNL     1      -6.111  -0.034 -34.253  1.00  0.00     0.070 A 
HETATM   23  C   UNL     1      -6.683  -1.200 -34.767  1.00  0.00     0.049 A 
HETATM   24  C   UNL     1      -6.035  -2.441 -34.634  1.00  0.00    -0.023 A 
HETATM   25  C   UNL     1      -4.785  -2.506 -33.977  1.00  0.00    -0.026 A 
HETATM   26  C   UNL     1      -6.604  -3.624 -35.135  1.00  0.00     0.012 A 
HETATM   27  C   UNL     1      -4.213  -1.328 -33.480  1.00  0.00     0.015 A 
HETATM   28  C   UNL     1      -4.144  -3.748 -33.836  1.00  0.00     0.012 A 
HETATM   29  C   UNL     1      -4.870  -0.104 -33.621  1.00  0.00     0.037 A 
HETATM   30  C   UNL     1      -4.727  -4.913 -34.337  1.00  0.00     0.001 A 
HETATM   31  C   UNL     1      -5.955  -4.850 -34.987  1.00  0.00     0.001 A 
ENDBRANCH  21  22
ENDBRANCH  20  21
ENDBRANCH   6  20
TORSDOF 8
ENDMDL
MODEL 5
REMARK VINA RESULT:      -8.8      2.088      2.577
REMARK  8 active torsions:
REMARK  status: ('A' for Active; 'I' for Inactive)
REMARK    1  A    between atoms: C_3  and  S_4 
REMARK    2  A    between atoms: S_4  and  C_5 
REMARK    3  A    between atoms: C_5  and  C_6 
REMARK       I    between atoms: C_6  and  N_7 
REMARK    4  A    between atoms: N_7  and  C_8 
REMARK    5  A    between atoms: C_8  and  C_9 
REMARK    6  A    between atoms: C_18  and  C_19 
REMARK    7  A    between atoms: C_19  and  O_20 
REMARK    8  A    between atoms: O_20  and  C_21 
ROOT
HETATM    1  C   UNL     1      -5.266   5.373 -30.602  1.00  0.00     0.160 C 
HETATM    2  N   UNL     1      -4.460   4.213 -30.881  1.00  0.00    -0.314 N 
HETATM    3  C   UNL     1      -4.782   2.900 -30.683  1.00  0.00     0.191 A 
HETATM    4  N   UNL     1      -3.790   2.134 -31.078  1.00  0.00    -0.123 NA
HETATM    5  N   UNL     1      -2.789   2.951 -31.532  1.00  0.00    -0.132 NA
HETATM    6  C   UNL     1      -3.188   4.203 -31.409  1.00  0.00     0.154 A 
ENDROOT
BRANCH   3   7
HETATM    7  S   UNL     1      -6.270   2.351 -30.000  1.00  0.00    -0.081 SA
BRANCH   7   8
HETATM    8  C   UNL     1      -6.197   0.575 -30.377  1.00  0.00     0.185 C 
BRANCH   8   9
HETATM    9  C   UNL     1      -6.504   0.291 -31.839  1.00  0.00     0.227 C 
HETATM   10  N   UNL     1      -5.508  -0.352 -32.531  1.00  0.00    -0.356 N 
HETATM   11  H   UNL     1      -4.654  -0.603 -32.036  1.00  0.00     0.162 HD
HETATM   12  O   UNL     1      -7.550   0.672 -32.362  1.00  0.00    -0.273 OA
BRANCH  10  13
HETATM   13  C   UNL     1      -5.573  -0.612 -33.950  1.00  0.00     0.161 C 
BRANCH  13  14
HETATM   14  C   UNL     1      -5.597  -2.088 -34.257  1.00  0.00    -0.041 A 
HETATM   15  C   UNL     1      -4.427  -2.853 -34.135  1.00  0.00     0.009 A 
HETATM   16  C   UNL     1      -4.448  -4.228 -34.379  1.00  0.00     0.001 A 
HETATM   17  C   UNL     1      -5.637  -4.853 -34.749  1.00  0.00     0.000 A 
HETATM   18  C   UNL     1      -6.806  -4.105 -34.878  1.00  0.00     0.001 A 
HETATM   19  C   UNL     1      -6.788  -2.731 -34.630  1.00  0.00     0.009 A 
ENDBRANCH  13  14
ENDBRANCH  10  13
ENDBRANCH   8   9
ENDBRANCH   7   8
ENDBRANCH   3   7
BRANCH   6  20
HETATM   20  C   UNL     1      -2.410   5.409 -31.809  1.00  0.00     0.256 C 
BRANCH  20  21
HETATM   21  O   UNL     1      -1.199   5.404 -31.054  1.00  0.00    -0.344 OA
BRANCH  21  22
HETATM   22  C   UNL     1      -1.001   6.460 -30.207  1.00  0.00     0.070 A 
HETATM   23  C   UNL     1       0.149   6.703 -29.452  1.00  0.00     0.049 A 
HETATM   24  C   UNL     1       0.232   7.823 -28.604  1.00  0.00    -0.023 A 
HETATM   25  C   UNL     1      -0.861   8.715 -28.522  1.00  0.00    -0.026 A 
HETATM   26  C   UNL     1       1.377   8.073 -27.829  1.00  0.00     0.012 A 
HETATM   27  C   UNL     1      -2.003   8.471 -29.296  1.00  0.00     0.015 A 
HETATM   28  C   UNL     1      -0.781   9.827 -27.667  1.00  0.00     0.012 A 
HETATM   29  C   UNL     1      -2.068   7.355 -30.133  1.00  0.00     0.037 A 
HETATM   30  C   UNL     1       0.364  10.056 -26.902  1.00  0.00     0.001 A 
HETATM   31  C   UNL     1       1.442   9.181 -26.984  1.00  0.00     0.001 A 
ENDBRANCH  21  22
ENDBRANCH  20  21
ENDBRANCH   6  20
TORSDOF 8
ENDMDL
MODEL 6
REMARK VINA RESULT:      -8.8      2.059      9.541
REMARK  8 active torsions:
REMARK  status: ('A' for Active; 'I' for Inactive)
REMARK    1  A    between atoms: C_3  and  S_4 
REMARK    2  A    between atoms: S_4  and  C_5 
REMARK    3  A    between atoms: C_5  and  C_6 
REMARK       I    between atoms: C_6  and  N_7 
REMARK    4  A    between atoms: N_7  and  C_8 
REMARK    5  A    between atoms: C_8  and  C_9 
REMARK    6  A    between atoms: C_18  and  C_19 
REMARK    7  A    between atoms: C_19  and  O_20 
REMARK    8  A    between atoms: O_20  and  C_21 
ROOT
HETATM    1  C   UNL     1      -4.557   5.787 -31.577  1.00  0.00     0.160 C 
HETATM    2  N   UNL     1      -4.502   5.481 -32.983  1.00  0.00    -0.314 N 
HETATM    3  C   UNL     1      -3.559   5.871 -33.892  1.00  0.00     0.191 A 
HETATM    4  N   UNL     1      -3.848   5.376 -35.073  1.00  0.00    -0.123 NA
HETATM    5  N   UNL     1      -5.007   4.657 -34.952  1.00  0.00    -0.132 NA
HETATM    6  C   UNL     1      -5.406   4.723 -33.695  1.00  0.00     0.154 A 
ENDROOT
BRANCH   3   7
HETATM    7  S   UNL     1      -2.206   6.879 -33.524  1.00  0.00    -0.081 SA
BRANCH   7   8
HETATM    8  C   UNL     1      -0.904   5.639 -33.259  1.00  0.00     0.185 C 
BRANCH   8   9
HETATM    9  C   UNL     1      -0.805   5.221 -31.802  1.00  0.00     0.227 C 
HETATM   10  N   UNL     1       0.093   5.936 -31.048  1.00  0.00    -0.356 N 
HETATM   11  H   UNL     1       0.614   6.688 -31.495  1.00  0.00     0.162 HD
HETATM   12  O   UNL     1      -1.446   4.268 -31.361  1.00  0.00    -0.273 OA
BRANCH  10  13
HETATM   13  C   UNL     1       0.401   5.617 -29.674  1.00  0.00     0.161 C 
BRANCH  13  14
HETATM   14  C   UNL     1       0.283   6.820 -28.772  1.00  0.00    -0.041 A 
HETATM   15  C   UNL     1       1.096   6.930 -27.633  1.00  0.00     0.009 A 
HETATM   16  C   UNL     1       1.022   8.057 -26.812  1.00  0.00     0.001 A 
HETATM   17  C   UNL     1       0.134   9.087 -27.119  1.00  0.00     0.000 A 
HETATM   18  C   UNL     1      -0.682   8.989 -28.244  1.00  0.00     0.001 A 
HETATM   19  C   UNL     1      -0.606   7.864 -29.068  1.00  0.00     0.009 A 
ENDBRANCH  13  14
ENDBRANCH  10  13
ENDBRANCH   8   9
ENDBRANCH   7   8
ENDBRANCH   3   7
BRANCH   6  20
HETATM   20  C   UNL     1      -6.613   4.060 -33.126  1.00  0.00     0.256 C 
BRANCH  20  21
HETATM   21  O   UNL     1      -6.163   3.127 -32.145  1.00  0.00    -0.344 OA
BRANCH  21  22
HETATM   22  C   UNL     1      -5.817   1.882 -32.597  1.00  0.00     0.070 A 
HETATM   23  C   UNL     1      -6.637   1.016 -33.325  1.00  0.00     0.049 A 
HETATM   24  C   UNL     1      -6.172  -0.249 -33.727  1.00  0.00    -0.023 A 
HETATM   25  C   UNL     1      -4.856  -0.644 -33.395  1.00  0.00    -0.026 A 
HETATM   26  C   UNL     1      -6.990  -1.136 -34.448  1.00  0.00     0.012 A 
HETATM   27  C   UNL     1      -4.037   0.239 -32.680  1.00  0.00     0.015 A 
HETATM   28  C   UNL     1      -4.397  -1.912 -33.788  1.00  0.00     0.012 A 
HETATM   29  C   UNL     1      -4.515   1.492 -32.289  1.00  0.00     0.037 A 
HETATM   30  C   UNL     1      -5.225  -2.781 -34.501  1.00  0.00     0.001 A 
HETATM   31  C   UNL     1      -6.520  -2.393 -34.831  1.00  0.00     0.001 A 
ENDBRANCH  21  22
ENDBRANCH  20  21
ENDBRANCH   6  20
TORSDOF 8
ENDMDL
MODEL 7
REMARK VINA RESULT:      -8.7      2.958     10.564
REMARK  8 active torsions:
REMARK  status: ('A' for Active; 'I' for Inactive)
REMARK    1  A    between atoms: C_3  and  S_4 
REMARK    2  A    between atoms: S_4  and  C_5 
REMARK    3  A    between atoms: C_5  and  C_6 
REMARK       I    between atoms: C_6  and  N_7 
REMARK    4  A    between atoms: N_7  and  C_8 
REMARK    5  A    between atoms: C_8  and  C_9 
REMARK    6  A    between atoms: C_18  and  C_19 
REMARK    7  A    between atoms: C_19  and  O_20 
REMARK    8  A    between atoms: O_20  and  C_21 
ROOT
HETATM    1  C   UNL     1      -4.079   5.081 -32.741  1.00  0.00     0.160 C 
HETATM    2  N   UNL     1      -4.761   4.362 -31.696  1.00  0.00    -0.314 N 
HETATM    3  C   UNL     1      -5.003   4.770 -30.415  1.00  0.00     0.191 A 
HETATM    4  N   UNL     1      -5.670   3.841 -29.769  1.00  0.00    -0.123 NA
HETATM    5  N   UNL     1      -5.862   2.793 -30.630  1.00  0.00    -0.132 NA
HETATM    6  C   UNL     1      -5.312   3.103 -31.789  1.00  0.00     0.154 A 
ENDROOT
BRANCH   3   7
HETATM    7  S   UNL     1      -4.486   6.281 -29.757  1.00  0.00    -0.081 SA
BRANCH   7   8
HETATM    8  C   UNL     1      -5.303   6.258 -28.134  1.00  0.00     0.185 C 
BRANCH   8   9
HETATM    9  C   UNL     1      -4.388   6.762 -27.030  1.00  0.00     0.227 C 
HETATM   10  N   UNL     1      -3.064   6.427 -27.168  1.00  0.00    -0.356 N 
HETATM   11  H   UNL     1      -2.782   5.886 -27.983  1.00  0.00     0.162 HD
HETATM   12  O   UNL     1      -4.830   7.374 -26.059  1.00  0.00    -0.273 OA
BRANCH  10  13
HETATM   13  C   UNL     1      -2.065   6.725 -26.170  1.00  0.00     0.161 C 
BRANCH  13  14
HETATM   14  C   UNL     1      -0.844   7.380 -26.765  1.00  0.00    -0.041 A 
HETATM   15  C   UNL     1      -0.075   8.268 -25.998  1.00  0.00     0.009 A 
HETATM   16  C   UNL     1       1.079   8.850 -26.527  1.00  0.00     0.001 A 
HETATM   17  C   UNL     1       1.477   8.551 -27.829  1.00  0.00     0.000 A 
HETATM   18  C   UNL     1       0.720   7.674 -28.604  1.00  0.00     0.001 A 
HETATM   19  C   UNL     1      -0.432   7.088 -28.074  1.00  0.00     0.009 A 
ENDBRANCH  13  14
ENDBRANCH  10  13
ENDBRANCH   8   9
ENDBRANCH   7   8
ENDBRANCH   3   7
BRANCH   6  20
HETATM   20  C   UNL     1      -5.314   2.250 -33.011  1.00  0.00     0.256 C 
BRANCH  20  21
HETATM   21  O   UNL     1      -4.536   1.089 -32.721  1.00  0.00    -0.344 OA
BRANCH  21  22
HETATM   22  C   UNL     1      -4.998  -0.098 -33.221  1.00  0.00     0.070 A 
HETATM   23  C   UNL     1      -4.275  -1.290 -33.307  1.00  0.00     0.049 A 
HETATM   24  C   UNL     1      -4.857  -2.448 -33.854  1.00  0.00    -0.023 A 
HETATM   25  C   UNL     1      -6.193  -2.405 -34.314  1.00  0.00    -0.026 A 
HETATM   26  C   UNL     1      -4.138  -3.651 -33.959  1.00  0.00     0.012 A 
HETATM   27  C   UNL     1      -6.914  -1.208 -34.207  1.00  0.00     0.015 A 
HETATM   28  C   UNL     1      -6.769  -3.559 -34.869  1.00  0.00     0.012 A 
HETATM   29  C   UNL     1      -6.321  -0.068 -33.662  1.00  0.00     0.037 A 
HETATM   30  C   UNL     1      -6.037  -4.744 -34.969  1.00  0.00     0.001 A 
HETATM   31  C   UNL     1      -4.724  -4.790 -34.513  1.00  0.00     0.001 A 
ENDBRANCH  21  22
ENDBRANCH  20  21
ENDBRANCH   6  20
TORSDOF 8
ENDMDL
MODEL 8
REMARK VINA RESULT:      -8.6      2.233      9.586
REMARK  8 active torsions:
REMARK  status: ('A' for Active; 'I' for Inactive)
REMARK    1  A    between atoms: C_3  and  S_4 
REMARK    2  A    between atoms: S_4  and  C_5 
REMARK    3  A    between atoms: C_5  and  C_6 
REMARK       I    between atoms: C_6  and  N_7 
REMARK    4  A    between atoms: N_7  and  C_8 
REMARK    5  A    between atoms: C_8  and  C_9 
REMARK    6  A    between atoms: C_18  and  C_19 
REMARK    7  A    between atoms: C_19  and  O_20 
REMARK    8  A    between atoms: O_20  and  C_21 
ROOT
HETATM    1  C   UNL     1      -8.539   3.745 -31.802  1.00  0.00     0.160 C 
HETATM    2  N   UNL     1      -7.223   3.452 -31.294  1.00  0.00    -0.314 N 
HETATM    3  C   UNL     1      -6.294   4.330 -30.812  1.00  0.00     0.191 A 
HETATM    4  N   UNL     1      -5.223   3.678 -30.426  1.00  0.00    -0.123 NA
HETATM    5  N   UNL     1      -5.437   2.346 -30.666  1.00  0.00    -0.132 NA
HETATM    6  C   UNL     1      -6.639   2.209 -31.193  1.00  0.00     0.154 A 
ENDROOT
BRANCH   3   7
HETATM    7  S   UNL     1      -6.511   6.043 -30.747  1.00  0.00    -0.081 SA
BRANCH   7   8
HETATM    8  C   UNL     1      -6.454   6.473 -32.511  1.00  0.00     0.185 C 
BRANCH   8   9
HETATM    9  C   UNL     1      -5.250   5.860 -33.208  1.00  0.00     0.227 C 
HETATM   10  N   UNL     1      -4.031   6.344 -32.803  1.00  0.00    -0.356 N 
HETATM   11  H   UNL     1      -4.007   7.056 -32.076  1.00  0.00     0.162 HD
HETATM   12  O   UNL     1      -5.382   5.034 -34.109  1.00  0.00    -0.273 OA
BRANCH  10  13
HETATM   13  C   UNL     1      -2.784   5.960 -33.422  1.00  0.00     0.161 C 
BRANCH  13  14
HETATM   14  C   UNL     1      -1.644   5.938 -32.435  1.00  0.00    -0.041 A 
HETATM   15  C   UNL     1      -0.748   7.017 -32.368  1.00  0.00     0.009 A 
HETATM   16  C   UNL     1       0.287   7.023 -31.431  1.00  0.00     0.001 A 
HETATM   17  C   UNL     1       0.441   5.953 -30.553  1.00  0.00     0.000 A 
HETATM   18  C   UNL     1      -0.438   4.873 -30.611  1.00  0.00     0.001 A 
HETATM   19  C   UNL     1      -1.477   4.867 -31.544  1.00  0.00     0.009 A 
ENDBRANCH  13  14
ENDBRANCH  10  13
ENDBRANCH   8   9
ENDBRANCH   7   8
ENDBRANCH   3   7
BRANCH   6  20
HETATM   20  C   UNL     1      -7.278   0.921 -31.584  1.00  0.00     0.256 C 
BRANCH  20  21
HETATM   21  O   UNL     1      -7.036   0.731 -32.978  1.00  0.00    -0.344 OA
BRANCH  21  22
HETATM   22  C   UNL     1      -6.411  -0.432 -33.337  1.00  0.00     0.070 A 
HETATM   23  C   UNL     1      -7.011  -1.524 -33.969  1.00  0.00     0.049 A 
HETATM   24  C   UNL     1      -6.264  -2.676 -34.280  1.00  0.00    -0.023 A 
HETATM   25  C   UNL     1      -4.890  -2.724 -33.954  1.00  0.00    -0.026 A 
HETATM   26  C   UNL     1      -6.857  -3.787 -34.905  1.00  0.00     0.012 A 
HETATM   27  C   UNL     1      -4.296  -1.616 -33.334  1.00  0.00     0.015 A 
HETATM   28  C   UNL     1      -4.150  -3.879 -34.255  1.00  0.00     0.012 A 
HETATM   29  C   UNL     1      -5.051  -0.481 -33.033  1.00  0.00     0.037 A 
HETATM   30  C   UNL     1      -4.756  -4.974 -34.872  1.00  0.00     0.001 A 
HETATM   31  C   UNL     1      -6.108  -4.927 -35.198  1.00  0.00     0.001 A 
ENDBRANCH  21  22
ENDBRANCH  20  21
ENDBRANCH   6  20
TORSDOF 8
ENDMDL
MODEL 9
REMARK VINA RESULT:      -8.6      2.463      8.627
REMARK  8 active torsions:
REMARK  status: ('A' for Active; 'I' for Inactive)
REMARK    1  A    between atoms: C_3  and  S_4 
REMARK    2  A    between atoms: S_4  and  C_5 
REMARK    3  A    between atoms: C_5  and  C_6 
REMARK       I    between atoms: C_6  and  N_7 
REMARK    4  A    between atoms: N_7  and  C_8 
REMARK    5  A    between atoms: C_8  and  C_9 
REMARK    6  A    between atoms: C_18  and  C_19 
REMARK    7  A    between atoms: C_19  and  O_20 
REMARK    8  A    between atoms: O_20  and  C_21 
ROOT
HETATM    1  C   UNL     1      -6.140   4.698 -29.223  1.00  0.00     0.160 C 
HETATM    2  N   UNL     1      -5.792   5.389 -30.437  1.00  0.00    -0.314 N 
HETATM    3  C   UNL     1      -5.435   6.700 -30.586  1.00  0.00     0.191 A 
HETATM    4  N   UNL     1      -5.174   6.950 -31.848  1.00  0.00    -0.123 NA
HETATM    5  N   UNL     1      -5.374   5.792 -32.552  1.00  0.00    -0.132 NA
HETATM    6  C   UNL     1      -5.751   4.853 -31.706  1.00  0.00     0.154 A 
ENDROOT
BRANCH   3   7
HETATM    7  S   UNL     1      -5.360   7.843 -29.294  1.00  0.00    -0.081 SA
BRANCH   7   8
HETATM    8  C   UNL     1      -3.786   7.386 -28.509  1.00  0.00     0.185 C 
BRANCH   8   9
HETATM    9  C   UNL     1      -2.641   7.354 -29.507  1.00  0.00     0.227 C 
HETATM   10  N   UNL     1      -2.074   6.120 -29.707  1.00  0.00    -0.356 N 
HETATM   11  H   UNL     1      -2.450   5.323 -29.197  1.00  0.00     0.162 HD
HETATM   12  O   UNL     1      -2.226   8.381 -30.043  1.00  0.00    -0.273 OA
BRANCH  10  13
HETATM   13  C   UNL     1      -0.910   5.910 -30.535  1.00  0.00     0.161 C 
BRANCH  13  14
HETATM   14  C   UNL     1      -1.276   5.677 -31.980  1.00  0.00    -0.041 A 
HETATM   15  C   UNL     1      -0.910   6.613 -32.960  1.00  0.00     0.009 A 
HETATM   16  C   UNL     1      -1.210   6.387 -34.305  1.00  0.00     0.001 A 
HETATM   17  C   UNL     1      -1.879   5.226 -34.686  1.00  0.00     0.000 A 
HETATM   18  C   UNL     1      -2.252   4.290 -33.723  1.00  0.00     0.001 A 
HETATM   19  C   UNL     1      -1.949   4.512 -32.378  1.00  0.00     0.009 A 
ENDBRANCH  13  14
ENDBRANCH  10  13
ENDBRANCH   8   9
ENDBRANCH   7   8
ENDBRANCH   3   7
BRANCH   6  20
HETATM   20  C   UNL     1      -6.050   3.435 -32.052  1.00  0.00     0.256 C 
BRANCH  20  21
HETATM   21  O   UNL     1      -4.825   2.708 -31.962  1.00  0.00    -0.344 OA
BRANCH  21  22
HETATM   22  C   UNL     1      -4.815   1.455 -32.511  1.00  0.00     0.070 A 
HETATM   23  C   UNL     1      -5.898   0.818 -33.124  1.00  0.00     0.049 A 
HETATM   24  C   UNL     1      -5.769  -0.482 -33.645  1.00  0.00    -0.023 A 
HETATM   25  C   UNL     1      -4.526  -1.149 -33.553  1.00  0.00    -0.026 A 
HETATM   26  C   UNL     1      -6.853  -1.139 -34.252  1.00  0.00     0.012 A 
HETATM   27  C   UNL     1      -3.443  -0.494 -32.951  1.00  0.00     0.015 A 
HETATM   28  C   UNL     1      -4.403  -2.451 -34.064  1.00  0.00     0.012 A 
HETATM   29  C   UNL     1      -3.588   0.797 -32.439  1.00  0.00     0.037 A 
HETATM   30  C   UNL     1      -5.491  -3.089 -34.660  1.00  0.00     0.001 A 
HETATM   31  C   UNL     1      -6.715  -2.434 -34.756  1.00  0.00     0.001 A 
ENDBRANCH  21  22
ENDBRANCH  20  21
ENDBRANCH   6  20
TORSDOF 8
ENDMDL
MODEL 10
REMARK VINA RESULT:      -8.5      4.768      8.910
REMARK  8 active torsions:
REMARK  status: ('A' for Active; 'I' for Inactive)
REMARK    1  A    between atoms: C_3  and  S_4 
REMARK    2  A    between atoms: S_4  and  C_5 
REMARK    3  A    between atoms: C_5  and  C_6 
REMARK       I    between atoms: C_6  and  N_7 
REMARK    4  A    between atoms: N_7  and  C_8 
REMARK    5  A    between atoms: C_8  and  C_9 
REMARK    6  A    between atoms: C_18  and  C_19 
REMARK    7  A    between atoms: C_19  and  O_20 
REMARK    8  A    between atoms: O_20  and  C_21 
ROOT
HETATM    1  C   UNL     1      -6.028   4.177 -30.728  1.00  0.00     0.160 C 
HETATM    2  N   UNL     1      -7.008   3.182 -31.079  1.00  0.00    -0.314 N 
HETATM    3  C   UNL     1      -8.366   3.323 -31.132  1.00  0.00     0.191 A 
HETATM    4  N   UNL     1      -8.917   2.193 -31.510  1.00  0.00    -0.123 NA
HETATM    5  N   UNL     1      -7.911   1.282 -31.698  1.00  0.00    -0.132 NA
HETATM    6  C   UNL     1      -6.762   1.874 -31.434  1.00  0.00     0.154 A 
ENDROOT
BRANCH   3   7
HETATM    7  S   UNL     1      -9.213   4.776 -30.739  1.00  0.00    -0.081 SA
BRANCH   7   8
HETATM    8  C   UNL     1      -8.821   5.813 -32.179  1.00  0.00     0.185 C 
BRANCH   8   9
HETATM    9  C   UNL     1      -8.960   5.049 -33.485  1.00  0.00     0.227 C 
HETATM   10  N   UNL     1     -10.214   4.549 -33.740  1.00  0.00    -0.356 N 
HETATM   11  H   UNL     1     -10.954   4.724 -33.063  1.00  0.00     0.162 HD
HETATM   12  O   UNL     1      -7.994   4.851 -34.221  1.00  0.00    -0.273 OA
BRANCH  10  13
HETATM   13  C   UNL     1     -10.514   3.709 -34.874  1.00  0.00     0.161 C 
BRANCH  13  14
HETATM   14  C   UNL     1     -11.465   2.593 -34.520  1.00  0.00    -0.041 A 
HETATM   15  C   UNL     1     -12.808   2.658 -34.921  1.00  0.00     0.009 A 
HETATM   16  C   UNL     1     -13.688   1.613 -34.632  1.00  0.00     0.001 A 
HETATM   17  C   UNL     1     -13.236   0.492 -33.937  1.00  0.00     0.000 A 
HETATM   18  C   UNL     1     -11.906   0.417 -33.529  1.00  0.00     0.001 A 
HETATM   19  C   UNL     1     -11.024   1.459 -33.821  1.00  0.00     0.009 A 
ENDBRANCH  13  14
ENDBRANCH  10  13
ENDBRANCH   8   9
ENDBRANCH   7   8
ENDBRANCH   3   7
BRANCH   6  20
HETATM   20  C   UNL     1      -5.414   1.248 -31.536  1.00  0.00     0.256 C 
BRANCH  20  21
HETATM   21  O   UNL     1      -5.140   1.051 -32.923  1.00  0.00    -0.344 OA
BRANCH  21  22
HETATM   22  C   UNL     1      -5.258  -0.228 -33.394  1.00  0.00     0.070 A 
HETATM   23  C   UNL     1      -4.402  -1.293 -33.102  1.00  0.00     0.049 A 
HETATM   24  C   UNL     1      -4.620  -2.567 -33.657  1.00  0.00    -0.023 A 
HETATM   25  C   UNL     1      -5.723  -2.772 -34.517  1.00  0.00    -0.026 A 
HETATM   26  C   UNL     1      -3.760  -3.644 -33.382  1.00  0.00     0.012 A 
HETATM   27  C   UNL     1      -6.584  -1.701 -34.790  1.00  0.00     0.015 A 
HETATM   28  C   UNL     1      -5.933  -4.042 -35.079  1.00  0.00     0.012 A 
HETATM   29  C   UNL     1      -6.354  -0.443 -34.230  1.00  0.00     0.037 A 
HETATM   30  C   UNL     1      -5.066  -5.099 -34.797  1.00  0.00     0.001 A 
HETATM   31  C   UNL     1      -3.982  -4.900 -33.948  1.00  0.00     0.001 A 
ENDBRANCH  21  22
ENDBRANCH  20  21
ENDBRANCH   6  20
TORSDOF 8
ENDMDL
