MODEL 1
REMARK VINA RESULT:      -8.8      0.000      0.000
REMARK  4 active torsions:
REMARK  status: ('A' for Active; 'I' for Inactive)
REMARK    1  A    between atoms: C_4  and  N_5 
REMARK       I    between atoms: N_5  and  C_6 
REMARK       I    between atoms: C_6  and  N_7 
REMARK    2  A    between atoms: N_7  and  C_8 
REMARK    3  A    between atoms: C_8  and  C_9 
REMARK    4  A    between atoms: C_12  and  C_13 
ROOT
HETATM    1  N   UNL     1      -5.237   5.278 -34.240  1.00  0.00    -0.309 N 
HETATM    2  C   UNL     1      -6.237   4.448 -33.851  1.00  0.00     0.321 C 
HETATM    3  N   UNL     1      -5.911   3.313 -33.184  1.00  0.00    -0.335 N 
HETATM    4  O   UNL     1      -7.399   4.724 -34.151  1.00  0.00    -0.247 OA
HETATM    5  H   UNL     1      -5.592   5.987 -34.872  1.00  0.00     0.170 HD
HETATM    6  H   UNL     1      -5.020   2.907 -33.437  1.00  0.00     0.164 HD
ENDROOT
BRANCH   3   7
HETATM    7  C   UNL     1      -6.958   2.370 -32.846  1.00  0.00     0.213 C 
BRANCH   7   8
HETATM    8  C   UNL     1      -6.770   1.098 -33.581  1.00  0.00     0.190 A 
HETATM    9  O   UNL     1      -7.156   1.100 -34.888  1.00  0.00    -0.194 OA
HETATM   10  N   UNL     1      -6.877  -0.166 -35.387  1.00  0.00    -0.106 NA
HETATM   11  C   UNL     1      -6.348  -0.819 -34.338  1.00  0.00     0.189 A 
HETATM   12  N   UNL     1      -6.260  -0.052 -33.192  1.00  0.00    -0.202 NA
BRANCH  11  13
HETATM   13  C   UNL     1      -5.897  -2.207 -34.394  1.00  0.00     0.014 A 
HETATM   14  C   UNL     1      -4.585  -2.543 -34.028  1.00  0.00     0.015 A 
HETATM   15  C   UNL     1      -4.149  -3.870 -34.081  1.00  0.00     0.001 A 
HETATM   16  C   UNL     1      -5.020  -4.875 -34.500  1.00  0.00     0.000 A 
HETATM   17  C   UNL     1      -6.325  -4.557 -34.866  1.00  0.00     0.001 A 
HETATM   18  C   UNL     1      -6.762  -3.230 -34.813  1.00  0.00     0.015 A 
ENDBRANCH  11  13
ENDBRANCH   7   8
ENDBRANCH   3   7
BRANCH   1  19
HETATM   19  C   UNL     1      -3.873   5.376 -33.910  1.00  0.00     0.036 A 
HETATM   20  C   UNL     1      -3.379   5.672 -32.636  1.00  0.00     0.036 A 
HETATM   21  C   UNL     1      -1.996   5.742 -32.398  1.00  0.00    -0.060 A 
HETATM   22  C   UNL     1      -1.477   6.085 -31.032  1.00  0.00     0.048 C 
HETATM   23  C   UNL     1      -1.106   5.558 -33.462  1.00  0.00     0.007 A 
HETATM   24  C   UNL     1      -1.588   5.294 -34.740  1.00  0.00     0.003 A 
HETATM   25  C   UNL     1      -2.963   5.206 -34.961  1.00  0.00     0.029 A 
ENDBRANCH   1  19
TORSDOF 4
ENDMDL
MODEL 2
REMARK VINA RESULT:      -8.6      3.016      4.081
REMARK  4 active torsions:
REMARK  status: ('A' for Active; 'I' for Inactive)
REMARK    1  A    between atoms: C_4  and  N_5 
REMARK       I    between atoms: N_5  and  C_6 
REMARK       I    between atoms: C_6  and  N_7 
REMARK    2  A    between atoms: N_7  and  C_8 
REMARK    3  A    between atoms: C_8  and  C_9 
REMARK    4  A    between atoms: C_12  and  C_13 
ROOT
HETATM    1  N   UNL     1      -1.231   5.053 -31.962  1.00  0.00    -0.309 N 
HETATM    2  C   UNL     1      -2.352   4.343 -32.250  1.00  0.00     0.321 C 
HETATM    3  N   UNL     1      -3.085   3.849 -31.222  1.00  0.00    -0.335 N 
HETATM    4  O   UNL     1      -2.644   4.133 -33.427  1.00  0.00    -0.247 OA
HETATM    5  H   UNL     1      -0.688   5.213 -32.802  1.00  0.00     0.170 HD
HETATM    6  H   UNL     1      -2.555   3.596 -30.399  1.00  0.00     0.164 HD
ENDROOT
BRANCH   3   7
HETATM    7  C   UNL     1      -4.229   3.009 -31.514  1.00  0.00     0.213 C 
BRANCH   7   8
HETATM    8  C   UNL     1      -3.813   1.595 -31.663  1.00  0.00     0.190 A 
HETATM    9  O   UNL     1      -2.755   1.200 -30.900  1.00  0.00    -0.194 OA
HETATM   10  N   UNL     1      -2.548  -0.145 -31.175  1.00  0.00    -0.106 NA
HETATM   11  C   UNL     1      -3.498  -0.443 -32.078  1.00  0.00     0.189 A 
HETATM   12  N   UNL     1      -4.313   0.626 -32.401  1.00  0.00    -0.202 NA
BRANCH  11  13
HETATM   13  C   UNL     1      -3.668  -1.769 -32.666  1.00  0.00     0.014 A 
HETATM   14  C   UNL     1      -3.110  -2.897 -32.047  1.00  0.00     0.015 A 
HETATM   15  C   UNL     1      -3.270  -4.168 -32.607  1.00  0.00     0.001 A 
HETATM   16  C   UNL     1      -3.989  -4.324 -33.791  1.00  0.00     0.000 A 
HETATM   17  C   UNL     1      -4.548  -3.213 -34.417  1.00  0.00     0.001 A 
HETATM   18  C   UNL     1      -4.389  -1.942 -33.858  1.00  0.00     0.015 A 
ENDBRANCH  11  13
ENDBRANCH   7   8
ENDBRANCH   3   7
BRANCH   1  19
HETATM   19  C   UNL     1      -0.727   5.632 -30.784  1.00  0.00     0.036 A 
HETATM   20  C   UNL     1      -1.100   6.883 -30.285  1.00  0.00     0.036 A 
HETATM   21  C   UNL     1      -0.546   7.378 -29.092  1.00  0.00    -0.060 A 
HETATM   22  C   UNL     1      -0.936   8.733 -28.578  1.00  0.00     0.048 C 
HETATM   23  C   UNL     1       0.427   6.627 -28.423  1.00  0.00     0.007 A 
HETATM   24  C   UNL     1       0.829   5.395 -28.928  1.00  0.00     0.003 A 
HETATM   25  C   UNL     1       0.257   4.903 -30.102  1.00  0.00     0.029 A 
ENDBRANCH   1  19
TORSDOF 4
ENDMDL
MODEL 3
REMARK VINA RESULT:      -8.6      1.727      2.173
REMARK  4 active torsions:
REMARK  status: ('A' for Active; 'I' for Inactive)
REMARK    1  A    between atoms: C_4  and  N_5 
REMARK       I    between atoms: N_5  and  C_6 
REMARK       I    between atoms: C_6  and  N_7 
REMARK    2  A    between atoms: N_7  and  C_8 
REMARK    3  A    between atoms: C_8  and  C_9 
REMARK    4  A    between atoms: C_12  and  C_13 
ROOT
HETATM    1  N   UNL     1      -3.067   3.523 -31.321  1.00  0.00    -0.309 N 
HETATM    2  C   UNL     1      -4.196   2.770 -31.338  1.00  0.00     0.321 C 
HETATM    3  N   UNL     1      -5.216   3.156 -32.143  1.00  0.00    -0.335 N 
HETATM    4  O   UNL     1      -4.277   1.792 -30.596  1.00  0.00    -0.247 OA
HETATM    5  H   UNL     1      -2.460   3.234 -30.562  1.00  0.00     0.170 HD
HETATM    6  H   UNL     1      -5.302   4.155 -32.279  1.00  0.00     0.164 HD
ENDROOT
BRANCH   3   7
HETATM    7  C   UNL     1      -6.463   2.419 -32.102  1.00  0.00     0.213 C 
BRANCH   7   8
HETATM    8  C   UNL     1      -6.404   1.245 -33.003  1.00  0.00     0.190 A 
HETATM    9  O   UNL     1      -6.742   1.472 -34.303  1.00  0.00    -0.194 OA
HETATM   10  N   UNL     1      -6.600   0.260 -34.968  1.00  0.00    -0.106 NA
HETATM   11  C   UNL     1      -6.190  -0.589 -34.010  1.00  0.00     0.189 A 
HETATM   12  N   UNL     1      -6.051  -0.001 -32.767  1.00  0.00    -0.202 NA
BRANCH  11  13
HETATM   13  C   UNL     1      -5.908  -2.002 -34.249  1.00  0.00     0.014 A 
HETATM   14  C   UNL     1      -6.931  -2.872 -34.655  1.00  0.00     0.015 A 
HETATM   15  C   UNL     1      -6.666  -4.225 -34.884  1.00  0.00     0.001 A 
HETATM   16  C   UNL     1      -5.376  -4.723 -34.710  1.00  0.00     0.000 A 
HETATM   17  C   UNL     1      -4.349  -3.872 -34.307  1.00  0.00     0.001 A 
HETATM   18  C   UNL     1      -4.614  -2.519 -34.078  1.00  0.00     0.015 A 
ENDBRANCH  11  13
ENDBRANCH   7   8
ENDBRANCH   3   7
BRANCH   1  19
HETATM   19  C   UNL     1      -2.570   4.546 -32.149  1.00  0.00     0.036 A 
HETATM   20  C   UNL     1      -2.395   5.876 -31.757  1.00  0.00     0.036 A 
HETATM   21  C   UNL     1      -1.885   6.830 -32.654  1.00  0.00    -0.060 A 
HETATM   22  C   UNL     1      -1.724   8.261 -32.230  1.00  0.00     0.048 C 
HETATM   23  C   UNL     1      -1.594   6.451 -33.969  1.00  0.00     0.007 A 
HETATM   24  C   UNL     1      -1.795   5.136 -34.378  1.00  0.00     0.003 A 
HETATM   25  C   UNL     1      -2.282   4.192 -33.474  1.00  0.00     0.029 A 
ENDBRANCH   1  19
TORSDOF 4
ENDMDL
MODEL 4
REMARK VINA RESULT:      -8.5      4.083      7.711
REMARK  4 active torsions:
REMARK  status: ('A' for Active; 'I' for Inactive)
REMARK    1  A    between atoms: C_4  and  N_5 
REMARK       I    between atoms: N_5  and  C_6 
REMARK       I    between atoms: C_6  and  N_7 
REMARK    2  A    between atoms: N_7  and  C_8 
REMARK    3  A    between atoms: C_8  and  C_9 
REMARK    4  A    between atoms: C_12  and  C_13 
ROOT
HETATM    1  N   UNL     1      -4.263  -0.839 -33.461  1.00  0.00    -0.309 N 
HETATM    2  C   UNL     1      -5.000   0.074 -32.779  1.00  0.00     0.321 C 
HETATM    3  N   UNL     1      -6.272  -0.248 -32.438  1.00  0.00    -0.335 N 
HETATM    4  O   UNL     1      -4.511   1.176 -32.531  1.00  0.00    -0.247 OA
HETATM    5  H   UNL     1      -3.407  -0.418 -33.804  1.00  0.00     0.170 HD
HETATM    6  H   UNL     1      -6.748  -0.863 -33.084  1.00  0.00     0.164 HD
ENDROOT
BRANCH   3   7
HETATM    7  C   UNL     1      -7.103   0.750 -31.795  1.00  0.00     0.213 C 
BRANCH   7   8
HETATM    8  C   UNL     1      -8.340   0.979 -32.576  1.00  0.00     0.190 A 
HETATM    9  O   UNL     1      -8.176   1.550 -33.802  1.00  0.00    -0.194 OA
HETATM   10  N   UNL     1      -9.442   1.654 -34.364  1.00  0.00    -0.106 NA
HETATM   11  C   UNL     1     -10.257   1.137 -33.428  1.00  0.00     0.189 A 
HETATM   12  N   UNL     1      -9.596   0.699 -32.297  1.00  0.00    -0.202 NA
BRANCH  11  13
HETATM   13  C   UNL     1     -11.705   1.037 -33.584  1.00  0.00     0.014 A 
HETATM   14  C   UNL     1     -12.338  -0.214 -33.550  1.00  0.00     0.015 A 
HETATM   15  C   UNL     1     -13.725  -0.315 -33.700  1.00  0.00     0.001 A 
HETATM   16  C   UNL     1     -14.492   0.834 -33.884  1.00  0.00     0.000 A 
HETATM   17  C   UNL     1     -13.878   2.083 -33.919  1.00  0.00     0.001 A 
HETATM   18  C   UNL     1     -12.492   2.185 -33.770  1.00  0.00     0.015 A 
ENDBRANCH  11  13
ENDBRANCH   7   8
ENDBRANCH   3   7
BRANCH   1  19
HETATM   19  C   UNL     1      -4.423  -2.211 -33.726  1.00  0.00     0.036 A 
HETATM   20  C   UNL     1      -5.422  -2.757 -34.537  1.00  0.00     0.036 A 
HETATM   21  C   UNL     1      -5.499  -4.144 -34.751  1.00  0.00    -0.060 A 
HETATM   22  C   UNL     1      -6.591  -4.721 -35.604  1.00  0.00     0.048 C 
HETATM   23  C   UNL     1      -4.591  -4.990 -34.104  1.00  0.00     0.007 A 
HETATM   24  C   UNL     1      -3.613  -4.459 -33.270  1.00  0.00     0.003 A 
HETATM   25  C   UNL     1      -3.532  -3.079 -33.081  1.00  0.00     0.029 A 
ENDBRANCH   1  19
TORSDOF 4
ENDMDL
MODEL 5
REMARK VINA RESULT:      -8.5      1.539      7.941
REMARK  4 active torsions:
REMARK  status: ('A' for Active; 'I' for Inactive)
REMARK    1  A    between atoms: C_4  and  N_5 
REMARK       I    between atoms: N_5  and  C_6 
REMARK       I    between atoms: C_6  and  N_7 
REMARK    2  A    between atoms: N_7  and  C_8 
REMARK    3  A    between atoms: C_8  and  C_9 
REMARK    4  A    between atoms: C_12  and  C_13 
ROOT
HETATM    1  N   UNL     1      -6.734   0.188 -32.417  1.00  0.00    -0.309 N 
HETATM    2  C   UNL     1      -6.996   1.488 -32.706  1.00  0.00     0.321 C 
HETATM    3  N   UNL     1      -6.361   2.055 -33.761  1.00  0.00    -0.335 N 
HETATM    4  O   UNL     1      -7.762   2.122 -31.981  1.00  0.00    -0.247 OA
HETATM    5  H   UNL     1      -7.128  -0.061 -31.518  1.00  0.00     0.170 HD
HETATM    6  H   UNL     1      -5.432   1.700 -33.946  1.00  0.00     0.164 HD
ENDROOT
BRANCH   3   7
HETATM    7  C   UNL     1      -6.557   3.467 -34.025  1.00  0.00     0.213 C 
BRANCH   7   8
HETATM    8  C   UNL     1      -5.273   4.198 -33.920  1.00  0.00     0.190 A 
HETATM    9  O   UNL     1      -4.910   4.928 -35.012  1.00  0.00    -0.194 OA
HETATM   10  N   UNL     1      -3.704   5.540 -34.698  1.00  0.00    -0.106 NA
HETATM   11  C   UNL     1      -3.446   5.127 -33.445  1.00  0.00     0.189 A 
HETATM   12  N   UNL     1      -4.415   4.289 -32.926  1.00  0.00    -0.202 NA
BRANCH  11  13
HETATM   13  C   UNL     1      -2.261   5.524 -32.691  1.00  0.00     0.014 A 
HETATM   14  C   UNL     1      -1.569   6.698 -33.021  1.00  0.00     0.015 A 
HETATM   15  C   UNL     1      -0.433   7.082 -32.301  1.00  0.00     0.001 A 
HETATM   16  C   UNL     1       0.023   6.295 -31.245  1.00  0.00     0.000 A 
HETATM   17  C   UNL     1      -0.653   5.126 -30.906  1.00  0.00     0.001 A 
HETATM   18  C   UNL     1      -1.789   4.742 -31.624  1.00  0.00     0.015 A 
ENDBRANCH  11  13
ENDBRANCH   7   8
ENDBRANCH   3   7
BRANCH   1  19
HETATM   19  C   UNL     1      -6.095  -0.851 -33.118  1.00  0.00     0.036 A 
HETATM   20  C   UNL     1      -6.754  -1.859 -33.827  1.00  0.00     0.036 A 
HETATM   21  C   UNL     1      -6.030  -2.855 -34.505  1.00  0.00    -0.060 A 
HETATM   22  C   UNL     1      -6.749  -3.947 -35.243  1.00  0.00     0.048 C 
HETATM   23  C   UNL     1      -4.634  -2.862 -34.427  1.00  0.00     0.007 A 
HETATM   24  C   UNL     1      -3.969  -1.882 -33.697  1.00  0.00     0.003 A 
HETATM   25  C   UNL     1      -4.696  -0.886 -33.045  1.00  0.00     0.029 A 
ENDBRANCH   1  19
TORSDOF 4
ENDMDL
MODEL 6
REMARK VINA RESULT:      -8.4      1.713      2.581
REMARK  4 active torsions:
REMARK  status: ('A' for Active; 'I' for Inactive)
REMARK    1  A    between atoms: C_4  and  N_5 
REMARK       I    between atoms: N_5  and  C_6 
REMARK       I    between atoms: C_6  and  N_7 
REMARK    2  A    between atoms: N_7  and  C_8 
REMARK    3  A    between atoms: C_8  and  C_9 
REMARK    4  A    between atoms: C_12  and  C_13 
ROOT
HETATM    1  N   UNL     1      -3.022   5.539 -34.078  1.00  0.00    -0.309 N 
HETATM    2  C   UNL     1      -4.247   4.963 -33.984  1.00  0.00     0.321 C 
HETATM    3  N   UNL     1      -4.672   4.546 -32.766  1.00  0.00    -0.335 N 
HETATM    4  O   UNL     1      -4.914   4.798 -35.005  1.00  0.00    -0.247 OA
HETATM    5  H   UNL     1      -2.754   5.644 -35.050  1.00  0.00     0.170 HD
HETATM    6  H   UNL     1      -3.943   4.228 -32.142  1.00  0.00     0.164 HD
ENDROOT
BRANCH   3   7
HETATM    7  C   UNL     1      -5.936   3.843 -32.664  1.00  0.00     0.213 C 
BRANCH   7   8
HETATM    8  C   UNL     1      -5.717   2.378 -32.644  1.00  0.00     0.190 A 
HETATM    9  O   UNL     1      -5.257   1.859 -31.471  1.00  0.00    -0.194 OA
HETATM   10  N   UNL     1      -5.142   0.488 -31.662  1.00  0.00    -0.106 NA
HETATM   11  C   UNL     1      -5.542   0.302 -32.931  1.00  0.00     0.189 A 
HETATM   12  N   UNL     1      -5.916   1.467 -33.573  1.00  0.00    -0.202 NA
BRANCH  11  13
HETATM   13  C   UNL     1      -5.589  -1.005 -33.581  1.00  0.00     0.014 A 
HETATM   14  C   UNL     1      -6.812  -1.543 -34.008  1.00  0.00     0.015 A 
HETATM   15  C   UNL     1      -6.862  -2.795 -34.629  1.00  0.00     0.001 A 
HETATM   16  C   UNL     1      -5.689  -3.521 -34.830  1.00  0.00     0.000 A 
HETATM   17  C   UNL     1      -4.467  -3.001 -34.411  1.00  0.00     0.001 A 
HETATM   18  C   UNL     1      -4.417  -1.749 -33.790  1.00  0.00     0.015 A 
ENDBRANCH  11  13
ENDBRANCH   7   8
ENDBRANCH   3   7
BRANCH   1  19
HETATM   19  C   UNL     1      -2.114   6.047 -33.131  1.00  0.00     0.036 A 
HETATM   20  C   UNL     1      -1.131   5.295 -32.484  1.00  0.00     0.036 A 
HETATM   21  C   UNL     1      -0.261   5.892 -31.555  1.00  0.00    -0.060 A 
HETATM   22  C   UNL     1       0.775   5.069 -30.847  1.00  0.00     0.048 C 
HETATM   23  C   UNL     1      -0.416   7.247 -31.242  1.00  0.00     0.007 A 
HETATM   24  C   UNL     1      -1.412   7.997 -31.857  1.00  0.00     0.003 A 
HETATM   25  C   UNL     1      -2.257   7.400 -32.793  1.00  0.00     0.029 A 
ENDBRANCH   1  19
TORSDOF 4
ENDMDL
MODEL 7
REMARK VINA RESULT:      -8.2      1.663      7.732
REMARK  4 active torsions:
REMARK  status: ('A' for Active; 'I' for Inactive)
REMARK    1  A    between atoms: C_4  and  N_5 
REMARK       I    between atoms: N_5  and  C_6 
REMARK       I    between atoms: C_6  and  N_7 
REMARK    2  A    between atoms: N_7  and  C_8 
REMARK    3  A    between atoms: C_8  and  C_9 
REMARK    4  A    between atoms: C_12  and  C_13 
ROOT
HETATM    1  N   UNL     1      -7.607   0.772 -32.978  1.00  0.00    -0.309 N 
HETATM    2  C   UNL     1      -7.688   2.094 -33.275  1.00  0.00     0.321 C 
HETATM    3  N   UNL     1      -6.584   2.715 -33.759  1.00  0.00    -0.335 N 
HETATM    4  O   UNL     1      -8.739   2.696 -33.057  1.00  0.00    -0.247 OA
HETATM    5  H   UNL     1      -8.431   0.474 -32.469  1.00  0.00     0.170 HD
HETATM    6  H   UNL     1      -5.703   2.352 -33.420  1.00  0.00     0.164 HD
ENDROOT
BRANCH   3   7
HETATM    7  C   UNL     1      -6.625   4.145 -33.990  1.00  0.00     0.213 C 
BRANCH   7   8
HETATM    8  C   UNL     1      -5.262   4.722 -33.931  1.00  0.00     0.190 A 
HETATM    9  O   UNL     1      -4.756   5.183 -35.108  1.00  0.00    -0.194 OA
HETATM   10  N   UNL     1      -3.494   5.692 -34.827  1.00  0.00    -0.106 NA
HETATM   11  C   UNL     1      -3.352   5.494 -33.505  1.00  0.00     0.189 A 
HETATM   12  N   UNL     1      -4.446   4.893 -32.911  1.00  0.00    -0.202 NA
BRANCH  11  13
HETATM   13  C   UNL     1      -2.161   5.878 -32.753  1.00  0.00     0.014 A 
HETATM   14  C   UNL     1      -1.843   7.232 -32.570  1.00  0.00     0.015 A 
HETATM   15  C   UNL     1      -0.702   7.605 -31.852  1.00  0.00     0.001 A 
HETATM   16  C   UNL     1       0.132   6.629 -31.311  1.00  0.00     0.000 A 
HETATM   17  C   UNL     1      -0.170   5.280 -31.485  1.00  0.00     0.001 A 
HETATM   18  C   UNL     1      -1.310   4.907 -32.202  1.00  0.00     0.015 A 
ENDBRANCH  11  13
ENDBRANCH   7   8
ENDBRANCH   3   7
BRANCH   1  19
HETATM   19  C   UNL     1      -6.670  -0.233 -33.274  1.00  0.00     0.036 A 
HETATM   20  C   UNL     1      -5.481  -0.449 -32.571  1.00  0.00     0.036 A 
HETATM   21  C   UNL     1      -4.606  -1.486 -32.937  1.00  0.00    -0.060 A 
HETATM   22  C   UNL     1      -3.320  -1.693 -32.189  1.00  0.00     0.048 C 
HETATM   23  C   UNL     1      -4.908  -2.280 -34.048  1.00  0.00     0.007 A 
HETATM   24  C   UNL     1      -6.072  -2.052 -34.775  1.00  0.00     0.003 A 
HETATM   25  C   UNL     1      -6.945  -1.034 -34.391  1.00  0.00     0.029 A 
ENDBRANCH   1  19
TORSDOF 4
ENDMDL
MODEL 8
REMARK VINA RESULT:      -8.0      1.465      1.692
REMARK  4 active torsions:
REMARK  status: ('A' for Active; 'I' for Inactive)
REMARK    1  A    between atoms: C_4  and  N_5 
REMARK       I    between atoms: N_5  and  C_6 
REMARK       I    between atoms: C_6  and  N_7 
REMARK    2  A    between atoms: N_7  and  C_8 
REMARK    3  A    between atoms: C_8  and  C_9 
REMARK    4  A    between atoms: C_12  and  C_13 
ROOT
HETATM    1  N   UNL     1      -5.265   6.219 -33.043  1.00  0.00    -0.309 N 
HETATM    2  C   UNL     1      -6.270   5.439 -32.570  1.00  0.00     0.321 C 
HETATM    3  N   UNL     1      -6.078   4.097 -32.526  1.00  0.00    -0.335 N 
HETATM    4  O   UNL     1      -7.333   5.962 -32.240  1.00  0.00    -0.247 OA
HETATM    5  H   UNL     1      -5.593   7.167 -33.188  1.00  0.00     0.170 HD
HETATM    6  H   UNL     1      -5.480   3.724 -33.251  1.00  0.00     0.164 HD
ENDROOT
BRANCH   3   7
HETATM    7  C   UNL     1      -7.174   3.242 -32.115  1.00  0.00     0.213 C 
BRANCH   7   8
HETATM    8  C   UNL     1      -6.785   1.816 -32.210  1.00  0.00     0.190 A 
HETATM    9  O   UNL     1      -6.579   1.172 -31.027  1.00  0.00    -0.194 OA
HETATM   10  N   UNL     1      -6.248  -0.140 -31.341  1.00  0.00    -0.106 NA
HETATM   11  C   UNL     1      -6.285  -0.171 -32.685  1.00  0.00     0.189 A 
HETATM   12  N   UNL     1      -6.625   1.038 -33.260  1.00  0.00    -0.202 NA
BRANCH  11  13
HETATM   13  C   UNL     1      -6.001  -1.367 -33.473  1.00  0.00     0.014 A 
HETATM   14  C   UNL     1      -4.681  -1.807 -33.645  1.00  0.00     0.015 A 
HETATM   15  C   UNL     1      -4.404  -2.951 -34.401  1.00  0.00     0.001 A 
HETATM   16  C   UNL     1      -5.445  -3.666 -34.992  1.00  0.00     0.000 A 
HETATM   17  C   UNL     1      -6.761  -3.241 -34.831  1.00  0.00     0.001 A 
HETATM   18  C   UNL     1      -7.038  -2.098 -34.075  1.00  0.00     0.015 A 
ENDBRANCH  11  13
ENDBRANCH   7   8
ENDBRANCH   3   7
BRANCH   1  19
HETATM   19  C   UNL     1      -3.903   5.992 -33.308  1.00  0.00     0.036 A 
HETATM   20  C   UNL     1      -2.855   6.319 -32.443  1.00  0.00     0.036 A 
HETATM   21  C   UNL     1      -1.521   6.047 -32.791  1.00  0.00    -0.060 A 
HETATM   22  C   UNL     1      -0.402   6.425 -31.865  1.00  0.00     0.048 C 
HETATM   23  C   UNL     1      -1.239   5.484 -34.040  1.00  0.00     0.007 A 
HETATM   24  C   UNL     1      -2.271   5.184 -34.922  1.00  0.00     0.003 A 
HETATM   25  C   UNL     1      -3.594   5.439 -34.558  1.00  0.00     0.029 A 
ENDBRANCH   1  19
TORSDOF 4
ENDMDL
MODEL 9
REMARK VINA RESULT:      -8.0      3.208      5.940
REMARK  4 active torsions:
REMARK  status: ('A' for Active; 'I' for Inactive)
REMARK    1  A    between atoms: C_4  and  N_5 
REMARK       I    between atoms: N_5  and  C_6 
REMARK       I    between atoms: C_6  and  N_7 
REMARK    2  A    between atoms: N_7  and  C_8 
REMARK    3  A    between atoms: C_8  and  C_9 
REMARK    4  A    between atoms: C_12  and  C_13 
ROOT
HETATM    1  N   UNL     1      -9.563   4.473 -34.156  1.00  0.00    -0.309 N 
HETATM    2  C   UNL     1      -8.219   4.393 -33.982  1.00  0.00     0.321 C 
HETATM    3  N   UNL     1      -7.658   3.166 -33.848  1.00  0.00    -0.335 N 
HETATM    4  O   UNL     1      -7.560   5.430 -33.908  1.00  0.00    -0.247 OA
HETATM    5  H   UNL     1      -9.874   5.434 -34.067  1.00  0.00     0.170 HD
HETATM    6  H   UNL     1      -8.242   2.473 -33.401  1.00  0.00     0.164 HD
ENDROOT
BRANCH   3   7
HETATM    7  C   UNL     1      -6.240   3.068 -33.567  1.00  0.00     0.213 C 
BRANCH   7   8
HETATM    8  C   UNL     1      -5.828   1.649 -33.458  1.00  0.00     0.190 A 
HETATM    9  O   UNL     1      -4.932   1.360 -32.474  1.00  0.00    -0.194 OA
HETATM   10  N   UNL     1      -4.701  -0.008 -32.535  1.00  0.00    -0.106 NA
HETATM   11  C   UNL     1      -5.479  -0.423 -33.549  1.00  0.00     0.189 A 
HETATM   12  N   UNL     1      -6.203   0.591 -34.146  1.00  0.00    -0.202 NA
BRANCH  11  13
HETATM   13  C   UNL     1      -5.564  -1.814 -33.986  1.00  0.00     0.014 A 
HETATM   14  C   UNL     1      -6.785  -2.348 -34.423  1.00  0.00     0.015 A 
HETATM   15  C   UNL     1      -6.871  -3.680 -34.840  1.00  0.00     0.001 A 
HETATM   16  C   UNL     1      -5.737  -4.490 -34.827  1.00  0.00     0.000 A 
HETATM   17  C   UNL     1      -4.517  -3.974 -34.396  1.00  0.00     0.001 A 
HETATM   18  C   UNL     1      -4.431  -2.643 -33.978  1.00  0.00     0.015 A 
ENDBRANCH  11  13
ENDBRANCH   7   8
ENDBRANCH   3   7
BRANCH   1  19
HETATM   19  C   UNL     1     -10.557   3.532 -34.475  1.00  0.00     0.036 A 
HETATM   20  C   UNL     1     -10.753   2.319 -33.808  1.00  0.00     0.036 A 
HETATM   21  C   UNL     1     -11.780   1.441 -34.194  1.00  0.00    -0.060 A 
HETATM   22  C   UNL     1     -11.965   0.131 -33.486  1.00  0.00     0.048 C 
HETATM   23  C   UNL     1     -12.586   1.767 -35.291  1.00  0.00     0.007 A 
HETATM   24  C   UNL     1     -12.379   2.957 -35.982  1.00  0.00     0.003 A 
HETATM   25  C   UNL     1     -11.370   3.831 -35.577  1.00  0.00     0.029 A 
ENDBRANCH   1  19
TORSDOF 4
ENDMDL
MODEL 10
REMARK VINA RESULT:      -7.9      2.665      3.376
REMARK  4 active torsions:
REMARK  status: ('A' for Active; 'I' for Inactive)
REMARK    1  A    between atoms: C_4  and  N_5 
REMARK       I    between atoms: N_5  and  C_6 
REMARK       I    between atoms: C_6  and  N_7 
REMARK    2  A    between atoms: N_7  and  C_8 
REMARK    3  A    between atoms: C_8  and  C_9 
REMARK    4  A    between atoms: C_12  and  C_13 
ROOT
HETATM    1  N   UNL     1      -3.417   6.564 -30.982  1.00  0.00    -0.309 N 
HETATM    2  C   UNL     1      -4.411   5.664 -30.773  1.00  0.00     0.321 C 
HETATM    3  N   UNL     1      -4.072   4.374 -30.526  1.00  0.00    -0.335 N 
HETATM    4  O   UNL     1      -5.582   6.031 -30.856  1.00  0.00    -0.247 OA
HETATM    5  H   UNL     1      -3.798   7.438 -31.325  1.00  0.00     0.170 HD
HETATM    6  H   UNL     1      -3.225   4.058 -30.979  1.00  0.00     0.164 HD
ENDROOT
BRANCH   3   7
HETATM    7  C   UNL     1      -5.121   3.383 -30.395  1.00  0.00     0.213 C 
BRANCH   7   8
HETATM    8  C   UNL     1      -4.831   2.204 -31.243  1.00  0.00     0.190 A 
HETATM    9  O   UNL     1      -3.514   1.944 -31.476  1.00  0.00    -0.194 OA
HETATM   10  N   UNL     1      -3.468   0.801 -32.264  1.00  0.00    -0.106 NA
HETATM   11  C   UNL     1      -4.760   0.472 -32.436  1.00  0.00     0.189 A 
HETATM   12  N   UNL     1      -5.641   1.329 -31.803  1.00  0.00    -0.202 NA
BRANCH  11  13
HETATM   13  C   UNL     1      -5.204  -0.682 -33.211  1.00  0.00     0.014 A 
HETATM   14  C   UNL     1      -4.274  -1.614 -33.694  1.00  0.00     0.015 A 
HETATM   15  C   UNL     1      -4.695  -2.721 -34.438  1.00  0.00     0.001 A 
HETATM   16  C   UNL     1      -6.050  -2.907 -34.707  1.00  0.00     0.000 A 
HETATM   17  C   UNL     1      -6.986  -1.990 -34.234  1.00  0.00     0.001 A 
HETATM   18  C   UNL     1      -6.565  -0.884 -33.491  1.00  0.00     0.015 A 
ENDBRANCH  11  13
ENDBRANCH   7   8
ENDBRANCH   3   7
BRANCH   1  19
HETATM   19  C   UNL     1      -2.026   6.539 -30.774  1.00  0.00     0.036 A 
HETATM   20  C   UNL     1      -1.358   7.234 -29.762  1.00  0.00     0.036 A 
HETATM   21  C   UNL     1       0.038   7.143 -29.627  1.00  0.00    -0.060 A 
HETATM   22  C   UNL     1       0.748   7.913 -28.551  1.00  0.00     0.048 C 
HETATM   23  C   UNL     1       0.769   6.384 -30.547  1.00  0.00     0.007 A 
HETATM   24  C   UNL     1       0.117   5.715 -31.577  1.00  0.00     0.003 A 
HETATM   25  C   UNL     1      -1.271   5.795 -31.690  1.00  0.00     0.029 A 
ENDBRANCH   1  19
TORSDOF 4
ENDMDL
