MODEL 1
REMARK VINA RESULT:      -9.9      0.000      0.000
REMARK  7 active torsions:
REMARK  status: ('A' for Active; 'I' for Inactive)
REMARK       I    between atoms: N_2  and  C_3 
REMARK    1  A    between atoms: N_2  and  C_22 
REMARK    2  A    between atoms: C_3  and  C_4 
REMARK    3  A    between atoms: C_4  and  N_5 
REMARK    4  A    between atoms: N_5  and  C_6 
REMARK    5  A    between atoms: C_7  and  O_8 
REMARK    6  A    between atoms: C_22  and  C_23 
REMARK       I    between atoms: C_23  and  N_24 
REMARK    7  A    between atoms: N_24  and  C_25 
ROOT
HETATM    1  C   UNL     1      -5.298   3.585 -32.550  1.00  0.00     0.195 C 
ENDROOT
BRANCH   1   2
HETATM    2  C   UNL     1      -4.650   4.325 -33.739  1.00  0.00     0.233 C 
HETATM    3  N   UNL     1      -3.355   4.818 -33.571  1.00  0.00    -0.347 N 
HETATM    4  C   UNL     1      -2.822   5.695 -34.599  1.00  0.00     0.153 C 
HETATM    5  O   UNL     1      -5.333   4.606 -34.730  1.00  0.00    -0.272 OA
BRANCH   3   6
HETATM    6  C   UNL     1      -2.373   4.184 -32.681  1.00  0.00     0.228 C 
BRANCH   6   7
HETATM    7  C   UNL     1      -1.383   5.103 -31.948  1.00  0.00     0.240 C 
HETATM    8  N   UNL     1      -1.766   5.463 -30.669  1.00  0.00    -0.324 N 
HETATM    9  H   UNL     1      -2.302   4.741 -30.191  1.00  0.00     0.169 HD
HETATM   10  O   UNL     1      -0.351   5.457 -32.515  1.00  0.00    -0.271 OA
BRANCH   8  11
HETATM   11  C   UNL     1      -1.026   6.343 -29.838  1.00  0.00     0.056 A 
HETATM   12  C   UNL     1       0.159   6.017 -29.155  1.00  0.00     0.060 A 
HETATM   13 CL   UNL     1       1.067   4.573 -29.457  1.00  0.00    -0.082 Cl
HETATM   14  C   UNL     1       0.750   6.949 -28.290  1.00  0.00     0.026 A 
HETATM   15  C   UNL     1       0.192   8.216 -28.125  1.00  0.00     0.002 A 
HETATM   16  C   UNL     1      -0.937   8.571 -28.855  1.00  0.00     0.002 A 
HETATM   17  C   UNL     1      -1.529   7.646 -29.718  1.00  0.00     0.031 A 
ENDBRANCH   8  11
ENDBRANCH   6   7
ENDBRANCH   3   6
ENDBRANCH   1   2
BRANCH   1  18
HETATM   18  N   UNL     1      -6.572   3.043 -33.052  1.00  0.00    -0.282 NA
HETATM   19  H   UNL     1      -6.858   3.599 -33.862  1.00  0.00     0.128 HD
BRANCH  18  20
HETATM   20  C   UNL     1      -6.676   1.671 -33.364  1.00  0.00     0.045 A 
HETATM   21  C   UNL     1      -7.760   1.058 -34.030  1.00  0.00     0.090 A 
HETATM   22  C   UNL     1      -7.750  -0.309 -34.381  1.00  0.00     0.053 A 
HETATM   23  C   UNL     1      -6.591  -1.066 -34.143  1.00  0.00     0.014 A 
HETATM   24  C   UNL     1      -5.512  -0.433 -33.544  1.00  0.00     0.089 A 
HETATM   25  C   UNL     1      -6.177  -2.410 -34.373  1.00  0.00     0.011 A 
HETATM   26  O   UNL     1      -4.466  -1.292 -33.401  1.00  0.00    -0.309 OA
HETATM   27  C   UNL     1      -5.510   0.905 -33.153  1.00  0.00     0.064 A 
HETATM   28  C   UNL     1      -4.869  -2.491 -33.904  1.00  0.00     0.087 A 
HETATM   29  C   UNL     1      -4.091  -3.645 -33.951  1.00  0.00     0.038 A 
HETATM   30  C   UNL     1      -4.687  -4.779 -34.512  1.00  0.00     0.003 A 
HETATM   31  C   UNL     1      -5.998  -4.741 -34.995  1.00  0.00     0.001 A 
HETATM   32  C   UNL     1      -6.758  -3.563 -34.935  1.00  0.00     0.015 A 
BRANCH  21  33
HETATM   33  O   UNL     1      -8.898   1.779 -34.308  1.00  0.00    -0.354 OA
HETATM   34  C   UNL     1      -9.883   1.615 -33.283  1.00  0.00     0.210 C 
ENDBRANCH  21  33
ENDBRANCH  18  20
ENDBRANCH   1  18
TORSDOF 7
ENDMDL
MODEL 2
REMARK VINA RESULT:      -9.7      1.813      2.143
REMARK  7 active torsions:
REMARK  status: ('A' for Active; 'I' for Inactive)
REMARK       I    between atoms: N_2  and  C_3 
REMARK    1  A    between atoms: N_2  and  C_22 
REMARK    2  A    between atoms: C_3  and  C_4 
REMARK    3  A    between atoms: C_4  and  N_5 
REMARK    4  A    between atoms: N_5  and  C_6 
REMARK    5  A    between atoms: C_7  and  O_8 
REMARK    6  A    between atoms: C_22  and  C_23 
REMARK       I    between atoms: C_23  and  N_24 
REMARK    7  A    between atoms: N_24  and  C_25 
ROOT
HETATM    1  C   UNL     1      -3.856   3.200 -31.452  1.00  0.00     0.195 C 
ENDROOT
BRANCH   1   2
HETATM    2  C   UNL     1      -2.941   4.244 -32.127  1.00  0.00     0.233 C 
HETATM    3  N   UNL     1      -3.142   5.588 -31.807  1.00  0.00    -0.347 N 
HETATM    4  C   UNL     1      -2.437   6.587 -32.592  1.00  0.00     0.153 C 
HETATM    5  O   UNL     1      -2.184   3.894 -33.038  1.00  0.00    -0.272 OA
BRANCH   3   6
HETATM    6  C   UNL     1      -3.653   6.027 -30.502  1.00  0.00     0.228 C 
BRANCH   6   7
HETATM    7  C   UNL     1      -2.762   6.960 -29.668  1.00  0.00     0.240 C 
HETATM    8  N   UNL     1      -1.637   6.360 -29.132  1.00  0.00    -0.324 N 
HETATM    9  H   UNL     1      -1.259   5.618 -29.719  1.00  0.00     0.169 HD
HETATM   10  O   UNL     1      -3.083   8.138 -29.525  1.00  0.00    -0.271 OA
BRANCH   8  11
HETATM   11  C   UNL     1      -0.708   7.024 -28.292  1.00  0.00     0.056 A 
HETATM   12  C   UNL     1      -0.818   7.156 -26.897  1.00  0.00     0.060 A 
HETATM   13 CL   UNL     1      -1.961   6.270 -25.943  1.00  0.00    -0.082 Cl
HETATM   14  C   UNL     1       0.122   7.916 -26.186  1.00  0.00     0.026 A 
HETATM   15  C   UNL     1       1.194   8.516 -26.848  1.00  0.00     0.002 A 
HETATM   16  C   UNL     1       1.351   8.327 -28.216  1.00  0.00     0.002 A 
HETATM   17  C   UNL     1       0.417   7.571 -28.927  1.00  0.00     0.031 A 
ENDBRANCH   8  11
ENDBRANCH   6   7
ENDBRANCH   3   6
ENDBRANCH   1   2
BRANCH   1  18
HETATM   18  N   UNL     1      -5.039   3.072 -32.319  1.00  0.00    -0.282 NA
HETATM   19  H   UNL     1      -4.906   3.679 -33.132  1.00  0.00     0.128 HD
BRANCH  18  20
HETATM   20  C   UNL     1      -5.458   1.796 -32.751  1.00  0.00     0.045 A 
HETATM   21  C   UNL     1      -6.680   1.505 -33.396  1.00  0.00     0.090 A 
HETATM   22  C   UNL     1      -6.987   0.213 -33.874  1.00  0.00     0.053 A 
HETATM   23  C   UNL     1      -6.016  -0.797 -33.786  1.00  0.00     0.014 A 
HETATM   24  C   UNL     1      -4.797  -0.478 -33.205  1.00  0.00     0.089 A 
HETATM   25  C   UNL     1      -5.920  -2.166 -34.168  1.00  0.00     0.011 A 
HETATM   26  O   UNL     1      -3.962  -1.552 -33.214  1.00  0.00    -0.309 OA
HETATM   27  C   UNL     1      -4.482   0.778 -32.691  1.00  0.00     0.064 A 
HETATM   28  C   UNL     1      -4.643  -2.576 -33.798  1.00  0.00     0.087 A 
HETATM   29  C   UNL     1      -4.141  -3.860 -34.005  1.00  0.00     0.038 A 
HETATM   30  C   UNL     1      -4.999  -4.772 -34.628  1.00  0.00     0.003 A 
HETATM   31  C   UNL     1      -6.289  -4.401 -35.016  1.00  0.00     0.001 A 
HETATM   32  C   UNL     1      -6.766  -3.101 -34.795  1.00  0.00     0.015 A 
BRANCH  21  33
HETATM   33  O   UNL     1      -7.640   2.480 -33.529  1.00  0.00    -0.354 OA
HETATM   34  C   UNL     1      -8.873   1.934 -34.010  1.00  0.00     0.210 C 
ENDBRANCH  21  33
ENDBRANCH  18  20
ENDBRANCH   1  18
TORSDOF 7
ENDMDL
MODEL 3
REMARK VINA RESULT:      -9.6      2.383      3.508
REMARK  7 active torsions:
REMARK  status: ('A' for Active; 'I' for Inactive)
REMARK       I    between atoms: N_2  and  C_3 
REMARK    1  A    between atoms: N_2  and  C_22 
REMARK    2  A    between atoms: C_3  and  C_4 
REMARK    3  A    between atoms: C_4  and  N_5 
REMARK    4  A    between atoms: N_5  and  C_6 
REMARK    5  A    between atoms: C_7  and  O_8 
REMARK    6  A    between atoms: C_22  and  C_23 
REMARK       I    between atoms: C_23  and  N_24 
REMARK    7  A    between atoms: N_24  and  C_25 
ROOT
HETATM    1  C   UNL     1      -7.352   3.414 -32.146  1.00  0.00     0.195 C 
ENDROOT
BRANCH   1   2
HETATM    2  C   UNL     1      -7.358   2.296 -31.082  1.00  0.00     0.233 C 
HETATM    3  N   UNL     1      -6.182   2.079 -30.362  1.00  0.00    -0.347 N 
HETATM    4  C   UNL     1      -6.111   0.899 -29.516  1.00  0.00     0.153 C 
HETATM    5  O   UNL     1      -8.322   1.528 -31.009  1.00  0.00    -0.272 OA
BRANCH   3   6
HETATM    6  C   UNL     1      -5.219   3.149 -30.070  1.00  0.00     0.228 C 
BRANCH   6   7
HETATM    7  C   UNL     1      -4.033   3.317 -31.031  1.00  0.00     0.240 C 
HETATM    8  N   UNL     1      -3.981   4.538 -31.679  1.00  0.00    -0.324 N 
HETATM    9  H   UNL     1      -4.347   5.305 -31.119  1.00  0.00     0.169 HD
HETATM   10  O   UNL     1      -3.230   2.396 -31.170  1.00  0.00    -0.271 OA
BRANCH   8  11
HETATM   11  C   UNL     1      -3.000   4.882 -32.644  1.00  0.00     0.056 A 
HETATM   12  C   UNL     1      -1.673   5.251 -32.363  1.00  0.00     0.060 A 
HETATM   13 CL   UNL     1      -0.938   5.056 -30.806  1.00  0.00    -0.082 Cl
HETATM   14  C   UNL     1      -0.822   5.658 -33.401  1.00  0.00     0.026 A 
HETATM   15  C   UNL     1      -1.270   5.666 -34.722  1.00  0.00     0.002 A 
HETATM   16  C   UNL     1      -2.557   5.232 -35.015  1.00  0.00     0.002 A 
HETATM   17  C   UNL     1      -3.407   4.825 -33.984  1.00  0.00     0.031 A 
ENDBRANCH   8  11
ENDBRANCH   6   7
ENDBRANCH   3   6
ENDBRANCH   1   2
BRANCH   1  18
HETATM   18  N   UNL     1      -6.621   2.872 -33.304  1.00  0.00    -0.282 NA
HETATM   19  H   UNL     1      -5.636   3.136 -33.210  1.00  0.00     0.128 HD
BRANCH  18  20
HETATM   20  C   UNL     1      -6.710   1.498 -33.610  1.00  0.00     0.045 A 
HETATM   21  C   UNL     1      -7.759   0.881 -34.326  1.00  0.00     0.090 A 
HETATM   22  C   UNL     1      -7.732  -0.489 -34.666  1.00  0.00     0.053 A 
HETATM   23  C   UNL     1      -6.589  -1.245 -34.362  1.00  0.00     0.014 A 
HETATM   24  C   UNL     1      -5.540  -0.608 -33.714  1.00  0.00     0.089 A 
HETATM   25  C   UNL     1      -6.165  -2.591 -34.560  1.00  0.00     0.011 A 
HETATM   26  O   UNL     1      -4.505  -1.467 -33.511  1.00  0.00    -0.309 OA
HETATM   27  C   UNL     1      -5.558   0.733 -33.333  1.00  0.00     0.064 A 
HETATM   28  C   UNL     1      -4.883  -2.669 -34.024  1.00  0.00     0.087 A 
HETATM   29  C   UNL     1      -4.104  -3.825 -34.022  1.00  0.00     0.038 A 
HETATM   30  C   UNL     1      -4.673  -4.962 -34.604  1.00  0.00     0.003 A 
HETATM   31  C   UNL     1      -5.957  -4.927 -35.154  1.00  0.00     0.001 A 
HETATM   32  C   UNL     1      -6.717  -3.748 -35.142  1.00  0.00     0.015 A 
BRANCH  21  33
HETATM   33  O   UNL     1      -8.880   1.601 -34.668  1.00  0.00    -0.354 OA
HETATM   34  C   UNL     1     -10.038   1.124 -33.975  1.00  0.00     0.210 C 
ENDBRANCH  21  33
ENDBRANCH  18  20
ENDBRANCH   1  18
TORSDOF 7
ENDMDL
MODEL 4
REMARK VINA RESULT:      -9.5      2.969      4.117
REMARK  7 active torsions:
REMARK  status: ('A' for Active; 'I' for Inactive)
REMARK       I    between atoms: N_2  and  C_3 
REMARK    1  A    between atoms: N_2  and  C_22 
REMARK    2  A    between atoms: C_3  and  C_4 
REMARK    3  A    between atoms: C_4  and  N_5 
REMARK    4  A    between atoms: N_5  and  C_6 
REMARK    5  A    between atoms: C_7  and  O_8 
REMARK    6  A    between atoms: C_22  and  C_23 
REMARK       I    between atoms: C_23  and  N_24 
REMARK    7  A    between atoms: N_24  and  C_25 
ROOT
HETATM    1  C   UNL     1      -6.900   2.572 -30.110  1.00  0.00     0.195 C 
ENDROOT
BRANCH   1   2
HETATM    2  C   UNL     1      -7.688   3.884 -29.910  1.00  0.00     0.233 C 
HETATM    3  N   UNL     1      -7.055   4.925 -29.229  1.00  0.00    -0.347 N 
HETATM    4  C   UNL     1      -7.857   6.076 -28.851  1.00  0.00     0.153 C 
HETATM    5  O   UNL     1      -8.888   3.925 -30.201  1.00  0.00    -0.272 OA
BRANCH   3   6
HETATM    6  C   UNL     1      -5.600   5.125 -29.256  1.00  0.00     0.228 C 
BRANCH   6   7
HETATM    7  C   UNL     1      -4.976   5.618 -30.570  1.00  0.00     0.240 C 
HETATM    8  N   UNL     1      -4.322   4.644 -31.302  1.00  0.00    -0.324 N 
HETATM    9  H   UNL     1      -4.739   3.720 -31.204  1.00  0.00     0.169 HD
HETATM   10  O   UNL     1      -5.085   6.801 -30.886  1.00  0.00    -0.271 OA
BRANCH   8  11
HETATM   11  C   UNL     1      -3.635   4.892 -32.517  1.00  0.00     0.056 A 
HETATM   12  C   UNL     1      -4.230   4.983 -33.788  1.00  0.00     0.060 A 
HETATM   13 CL   UNL     1      -5.941   5.099 -34.032  1.00  0.00    -0.082 Cl
HETATM   14  C   UNL     1      -3.431   5.143 -34.929  1.00  0.00     0.026 A 
HETATM   15  C   UNL     1      -2.045   5.251 -34.813  1.00  0.00     0.002 A 
HETATM   16  C   UNL     1      -1.456   5.238 -33.554  1.00  0.00     0.002 A 
HETATM   17  C   UNL     1      -2.249   5.079 -32.416  1.00  0.00     0.031 A 
ENDBRANCH   8  11
ENDBRANCH   6   7
ENDBRANCH   3   6
ENDBRANCH   1   2
BRANCH   1  18
HETATM   18  N   UNL     1      -6.668   2.451 -31.559  1.00  0.00    -0.282 NA
HETATM   19  H   UNL     1      -5.753   2.860 -31.770  1.00  0.00     0.128 HD
BRANCH  18  20
HETATM   20  C   UNL     1      -6.774   1.191 -32.184  1.00  0.00     0.045 A 
HETATM   21  C   UNL     1      -7.882   0.732 -32.930  1.00  0.00     0.090 A 
HETATM   22  C   UNL     1      -7.875  -0.511 -33.597  1.00  0.00     0.053 A 
HETATM   23  C   UNL     1      -6.700  -1.281 -33.594  1.00  0.00     0.014 A 
HETATM   24  C   UNL     1      -5.600  -0.786 -32.909  1.00  0.00     0.089 A 
HETATM   25  C   UNL     1      -6.285  -2.523 -34.155  1.00  0.00     0.011 A 
HETATM   26  O   UNL     1      -4.542  -1.634 -33.019  1.00  0.00    -0.309 OA
HETATM   27  C   UNL     1      -5.593   0.419 -32.211  1.00  0.00     0.064 A 
HETATM   28  C   UNL     1      -4.957  -2.688 -33.775  1.00  0.00     0.087 A 
HETATM   29  C   UNL     1      -4.171  -3.782 -34.128  1.00  0.00     0.038 A 
HETATM   30  C   UNL     1      -4.782  -4.762 -34.916  1.00  0.00     0.003 A 
HETATM   31  C   UNL     1      -6.114  -4.636 -35.321  1.00  0.00     0.001 A 
HETATM   32  C   UNL     1      -6.881  -3.521 -34.950  1.00  0.00     0.015 A 
BRANCH  21  33
HETATM   33  O   UNL     1      -9.037   1.477 -32.980  1.00  0.00    -0.354 OA
HETATM   34  C   UNL     1     -10.192   0.640 -33.090  1.00  0.00     0.210 C 
ENDBRANCH  21  33
ENDBRANCH  18  20
ENDBRANCH   1  18
TORSDOF 7
ENDMDL
MODEL 5
REMARK VINA RESULT:      -9.5      3.322      4.672
REMARK  7 active torsions:
REMARK  status: ('A' for Active; 'I' for Inactive)
REMARK       I    between atoms: N_2  and  C_3 
REMARK    1  A    between atoms: N_2  and  C_22 
REMARK    2  A    between atoms: C_3  and  C_4 
REMARK    3  A    between atoms: C_4  and  N_5 
REMARK    4  A    between atoms: N_5  and  C_6 
REMARK    5  A    between atoms: C_7  and  O_8 
REMARK    6  A    between atoms: C_22  and  C_23 
REMARK       I    between atoms: C_23  and  N_24 
REMARK    7  A    between atoms: N_24  and  C_25 
ROOT
HETATM    1  C   UNL     1      -8.945   3.849 -30.741  1.00  0.00     0.195 C 
ENDROOT
BRANCH   1   2
HETATM    2  C   UNL     1      -9.933   4.697 -31.569  1.00  0.00     0.233 C 
HETATM    3  N   UNL     1      -9.486   5.213 -32.786  1.00  0.00    -0.347 N 
HETATM    4  C   UNL     1     -10.328   6.182 -33.466  1.00  0.00     0.153 C 
HETATM    5  O   UNL     1     -11.013   5.034 -31.073  1.00  0.00    -0.272 OA
BRANCH   3   6
HETATM    6  C   UNL     1      -8.472   4.540 -33.610  1.00  0.00     0.228 C 
BRANCH   6   7
HETATM    7  C   UNL     1      -7.013   4.998 -33.453  1.00  0.00     0.240 C 
HETATM    8  N   UNL     1      -6.073   4.122 -33.964  1.00  0.00    -0.324 N 
HETATM    9  H   UNL     1      -6.404   3.610 -34.780  1.00  0.00     0.169 HD
HETATM   10  O   UNL     1      -6.771   6.070 -32.902  1.00  0.00    -0.271 OA
BRANCH   8  11
HETATM   11  C   UNL     1      -4.672   4.325 -33.881  1.00  0.00     0.056 A 
HETATM   12  C   UNL     1      -3.840   3.862 -32.847  1.00  0.00     0.060 A 
HETATM   13 CL   UNL     1      -4.351   2.713 -31.655  1.00  0.00    -0.082 Cl
HETATM   14  C   UNL     1      -2.481   4.206 -32.831  1.00  0.00     0.026 A 
HETATM   15  C   UNL     1      -1.933   4.976 -33.857  1.00  0.00     0.002 A 
HETATM   16  C   UNL     1      -2.734   5.374 -34.921  1.00  0.00     0.002 A 
HETATM   17  C   UNL     1      -4.088   5.033 -34.941  1.00  0.00     0.031 A 
ENDBRANCH   8  11
ENDBRANCH   6   7
ENDBRANCH   3   6
ENDBRANCH   1   2
BRANCH   1  18
HETATM   18  N   UNL     1      -9.505   2.487 -30.707  1.00  0.00    -0.282 NA
HETATM   19  H   UNL     1     -10.516   2.554 -30.854  1.00  0.00     0.128 HD
BRANCH  18  20
HETATM   20  C   UNL     1      -8.974   1.489 -31.551  1.00  0.00     0.045 A 
HETATM   21  C   UNL     1      -9.530   1.067 -32.778  1.00  0.00     0.090 A 
HETATM   22  C   UNL     1      -8.890   0.120 -33.606  1.00  0.00     0.053 A 
HETATM   23  C   UNL     1      -7.618  -0.354 -33.245  1.00  0.00     0.014 A 
HETATM   24  C   UNL     1      -7.059   0.118 -32.067  1.00  0.00     0.089 A 
HETATM   25  C   UNL     1      -6.659  -1.248 -33.802  1.00  0.00     0.011 A 
HETATM   26  O   UNL     1      -5.824  -0.418 -31.870  1.00  0.00    -0.309 OA
HETATM   27  C   UNL     1      -7.686   1.023 -31.212  1.00  0.00     0.064 A 
HETATM   28  C   UNL     1      -5.581  -1.247 -32.922  1.00  0.00     0.087 A 
HETATM   29  C   UNL     1      -4.419  -1.992 -33.106  1.00  0.00     0.038 A 
HETATM   30  C   UNL     1      -4.360  -2.783 -34.258  1.00  0.00     0.003 A 
HETATM   31  C   UNL     1      -5.420  -2.814 -35.168  1.00  0.00     0.001 A 
HETATM   32  C   UNL     1      -6.578  -2.051 -34.956  1.00  0.00     0.015 A 
BRANCH  21  33
HETATM   33  O   UNL     1     -10.759   1.537 -33.178  1.00  0.00    -0.354 OA
HETATM   34  C   UNL     1     -11.664   0.462 -33.453  1.00  0.00     0.210 C 
ENDBRANCH  21  33
ENDBRANCH  18  20
ENDBRANCH   1  18
TORSDOF 7
ENDMDL
MODEL 6
REMARK VINA RESULT:      -9.4      2.749      4.263
REMARK  7 active torsions:
REMARK  status: ('A' for Active; 'I' for Inactive)
REMARK       I    between atoms: N_2  and  C_3 
REMARK    1  A    between atoms: N_2  and  C_22 
REMARK    2  A    between atoms: C_3  and  C_4 
REMARK    3  A    between atoms: C_4  and  N_5 
REMARK    4  A    between atoms: N_5  and  C_6 
REMARK    5  A    between atoms: C_7  and  O_8 
REMARK    6  A    between atoms: C_22  and  C_23 
REMARK       I    between atoms: C_23  and  N_24 
REMARK    7  A    between atoms: N_24  and  C_25 
ROOT
HETATM    1  C   UNL     1      -8.357   2.621 -33.485  1.00  0.00     0.195 C 
ENDROOT
BRANCH   1   2
HETATM    2  C   UNL     1      -8.396   2.896 -31.967  1.00  0.00     0.233 C 
HETATM    3  N   UNL     1      -7.827   4.084 -31.507  1.00  0.00    -0.347 N 
HETATM    4  C   UNL     1      -7.669   4.252 -30.072  1.00  0.00     0.153 C 
HETATM    5  O   UNL     1      -8.768   2.006 -31.195  1.00  0.00    -0.272 OA
BRANCH   3   6
HETATM    6  C   UNL     1      -7.786   5.311 -32.315  1.00  0.00     0.228 C 
BRANCH   6   7
HETATM    7  C   UNL     1      -6.410   5.943 -32.575  1.00  0.00     0.240 C 
HETATM    8  N   UNL     1      -5.425   5.049 -32.954  1.00  0.00    -0.324 N 
HETATM    9  H   UNL     1      -5.781   4.265 -33.498  1.00  0.00     0.169 HD
HETATM   10  O   UNL     1      -6.263   7.155 -32.435  1.00  0.00    -0.271 OA
BRANCH   8  11
HETATM   11  C   UNL     1      -4.075   5.411 -33.194  1.00  0.00     0.056 A 
HETATM   12  C   UNL     1      -3.197   5.965 -32.245  1.00  0.00     0.060 A 
HETATM   13 CL   UNL     1      -3.539   6.020 -30.548  1.00  0.00    -0.082 Cl
HETATM   14  C   UNL     1      -1.910   6.366 -32.629  1.00  0.00     0.026 A 
HETATM   15  C   UNL     1      -1.473   6.186 -33.942  1.00  0.00     0.002 A 
HETATM   16  C   UNL     1      -2.309   5.571 -34.866  1.00  0.00     0.002 A 
HETATM   17  C   UNL     1      -3.592   5.170 -34.488  1.00  0.00     0.031 A 
ENDBRANCH   8  11
ENDBRANCH   6   7
ENDBRANCH   3   6
ENDBRANCH   1   2
BRANCH   1  18
HETATM   18  N   UNL     1      -6.933   2.612 -33.862  1.00  0.00    -0.282 NA
HETATM   19  H   UNL     1      -6.456   3.337 -33.320  1.00  0.00     0.128 HD
BRANCH  18  20
HETATM   20  C   UNL     1      -6.196   1.412 -33.792  1.00  0.00     0.045 A 
HETATM   21  C   UNL     1      -5.070   1.184 -32.970  1.00  0.00     0.090 A 
HETATM   22  C   UNL     1      -4.438  -0.076 -32.894  1.00  0.00     0.053 A 
HETATM   23  C   UNL     1      -4.996  -1.162 -33.589  1.00  0.00     0.014 A 
HETATM   24  C   UNL     1      -6.138  -0.935 -34.343  1.00  0.00     0.089 A 
HETATM   25  C   UNL     1      -4.698  -2.547 -33.739  1.00  0.00     0.011 A 
HETATM   26  O   UNL     1      -6.562  -2.084 -34.934  1.00  0.00    -0.309 OA
HETATM   27  C   UNL     1      -6.759   0.307 -34.465  1.00  0.00     0.064 A 
HETATM   28  C   UNL     1      -5.689  -3.062 -34.568  1.00  0.00     0.087 A 
HETATM   29  C   UNL     1      -5.768  -4.397 -34.959  1.00  0.00     0.038 A 
HETATM   30  C   UNL     1      -4.774  -5.250 -34.470  1.00  0.00     0.003 A 
HETATM   31  C   UNL     1      -3.760  -4.774 -33.635  1.00  0.00     0.001 A 
HETATM   32  C   UNL     1      -3.707  -3.424 -33.257  1.00  0.00     0.015 A 
BRANCH  21  33
HETATM   33  O   UNL     1      -4.519   2.218 -32.250  1.00  0.00    -0.354 OA
HETATM   34  C   UNL     1      -4.778   2.074 -30.850  1.00  0.00     0.210 C 
ENDBRANCH  21  33
ENDBRANCH  18  20
ENDBRANCH   1  18
TORSDOF 7
ENDMDL
MODEL 7
REMARK VINA RESULT:      -9.3      3.120      4.606
REMARK  7 active torsions:
REMARK  status: ('A' for Active; 'I' for Inactive)
REMARK       I    between atoms: N_2  and  C_3 
REMARK    1  A    between atoms: N_2  and  C_22 
REMARK    2  A    between atoms: C_3  and  C_4 
REMARK    3  A    between atoms: C_4  and  N_5 
REMARK    4  A    between atoms: N_5  and  C_6 
REMARK    5  A    between atoms: C_7  and  O_8 
REMARK    6  A    between atoms: C_22  and  C_23 
REMARK       I    between atoms: C_23  and  N_24 
REMARK    7  A    between atoms: N_24  and  C_25 
ROOT
HETATM    1  C   UNL     1      -7.065   2.394 -30.305  1.00  0.00     0.195 C 
ENDROOT
BRANCH   1   2
HETATM    2  C   UNL     1      -7.790   3.731 -30.050  1.00  0.00     0.233 C 
HETATM    3  N   UNL     1      -7.123   4.700 -29.297  1.00  0.00    -0.347 N 
HETATM    4  C   UNL     1      -7.875   5.869 -28.873  1.00  0.00     0.153 C 
HETATM    5  O   UNL     1      -8.979   3.851 -30.364  1.00  0.00    -0.272 OA
BRANCH   3   6
HETATM    6  C   UNL     1      -5.660   4.825 -29.281  1.00  0.00     0.228 C 
BRANCH   6   7
HETATM    7  C   UNL     1      -4.983   5.402 -30.534  1.00  0.00     0.240 C 
HETATM    8  N   UNL     1      -4.321   4.473 -31.314  1.00  0.00    -0.324 N 
HETATM    9  H   UNL     1      -4.757   3.552 -31.300  1.00  0.00     0.169 HD
HETATM   10  O   UNL     1      -5.060   6.607 -30.763  1.00  0.00    -0.271 OA
BRANCH   8  11
HETATM   11  C   UNL     1      -3.589   4.797 -32.485  1.00  0.00     0.056 A 
HETATM   12  C   UNL     1      -4.131   4.935 -33.775  1.00  0.00     0.060 A 
HETATM   13 CL   UNL     1      -5.832   5.019 -34.090  1.00  0.00    -0.082 Cl
HETATM   14  C   UNL     1      -3.287   5.170 -34.870  1.00  0.00     0.026 A 
HETATM   15  C   UNL     1      -1.911   5.308 -34.688  1.00  0.00     0.002 A 
HETATM   16  C   UNL     1      -1.378   5.248 -33.406  1.00  0.00     0.002 A 
HETATM   17  C   UNL     1      -2.214   5.014 -32.312  1.00  0.00     0.031 A 
ENDBRANCH   8  11
ENDBRANCH   6   7
ENDBRANCH   3   6
ENDBRANCH   1   2
BRANCH   1  18
HETATM   18  N   UNL     1      -6.705   2.390 -31.733  1.00  0.00    -0.282 NA
HETATM   19  H   UNL     1      -6.075   3.178 -31.905  1.00  0.00     0.128 HD
BRANCH  18  20
HETATM   20  C   UNL     1      -6.167   1.224 -32.318  1.00  0.00     0.045 A 
HETATM   21  C   UNL     1      -4.837   0.771 -32.179  1.00  0.00     0.090 A 
HETATM   22  C   UNL     1      -4.400  -0.454 -32.728  1.00  0.00     0.053 A 
HETATM   23  C   UNL     1      -5.334  -1.292 -33.357  1.00  0.00     0.014 A 
HETATM   24  C   UNL     1      -6.650  -0.859 -33.431  1.00  0.00     0.089 A 
HETATM   25  C   UNL     1      -5.308  -2.572 -33.982  1.00  0.00     0.011 A 
HETATM   26  O   UNL     1      -7.430  -1.788 -34.049  1.00  0.00    -0.309 OA
HETATM   27  C   UNL     1      -7.100   0.361 -32.931  1.00  0.00     0.064 A 
HETATM   28  C   UNL     1      -6.616  -2.827 -34.383  1.00  0.00     0.087 A 
HETATM   29  C   UNL     1      -7.024  -3.990 -35.033  1.00  0.00     0.038 A 
HETATM   30  C   UNL     1      -6.033  -4.945 -35.284  1.00  0.00     0.003 A 
HETATM   31  C   UNL     1      -4.707  -4.729 -34.898  1.00  0.00     0.001 A 
HETATM   32  C   UNL     1      -4.327  -3.548 -34.244  1.00  0.00     0.015 A 
BRANCH  21  33
HETATM   33  O   UNL     1      -3.904   1.552 -31.538  1.00  0.00    -0.354 OA
HETATM   34  C   UNL     1      -2.870   0.755 -30.952  1.00  0.00     0.210 C 
ENDBRANCH  21  33
ENDBRANCH  18  20
ENDBRANCH   1  18
TORSDOF 7
ENDMDL
MODEL 8
REMARK VINA RESULT:      -9.3      2.288      9.507
REMARK  7 active torsions:
REMARK  status: ('A' for Active; 'I' for Inactive)
REMARK       I    between atoms: N_2  and  C_3 
REMARK    1  A    between atoms: N_2  and  C_22 
REMARK    2  A    between atoms: C_3  and  C_4 
REMARK    3  A    between atoms: C_4  and  N_5 
REMARK    4  A    between atoms: N_5  and  C_6 
REMARK    5  A    between atoms: C_7  and  O_8 
REMARK    6  A    between atoms: C_22  and  C_23 
REMARK       I    between atoms: C_23  and  N_24 
REMARK    7  A    between atoms: N_24  and  C_25 
ROOT
HETATM    1  C   UNL     1      -5.422   4.577 -34.030  1.00  0.00     0.195 C 
ENDROOT
BRANCH   1   2
HETATM    2  C   UNL     1      -6.930   4.438 -33.732  1.00  0.00     0.233 C 
HETATM    3  N   UNL     1      -7.348   3.328 -32.998  1.00  0.00    -0.347 N 
HETATM    4  C   UNL     1      -8.776   3.077 -32.897  1.00  0.00     0.153 C 
HETATM    5  O   UNL     1      -7.732   5.203 -34.278  1.00  0.00    -0.272 OA
BRANCH   3   6
HETATM    6  C   UNL     1      -6.500   2.672 -31.994  1.00  0.00     0.228 C 
BRANCH   6   7
HETATM    7  C   UNL     1      -6.282   1.157 -32.130  1.00  0.00     0.240 C 
HETATM    8  N   UNL     1      -5.909   0.736 -33.393  1.00  0.00    -0.324 N 
HETATM    9  H   UNL     1      -5.343   1.419 -33.893  1.00  0.00     0.169 HD
HETATM   10  O   UNL     1      -6.447   0.431 -31.151  1.00  0.00    -0.271 OA
BRANCH   8  11
HETATM   11  C   UNL     1      -5.706  -0.621 -33.749  1.00  0.00     0.056 A 
HETATM   12  C   UNL     1      -4.482  -1.309 -33.681  1.00  0.00     0.060 A 
HETATM   13 CL   UNL     1      -3.083  -0.688 -32.870  1.00  0.00    -0.082 Cl
HETATM   14  C   UNL     1      -4.390  -2.628 -34.148  1.00  0.00     0.026 A 
HETATM   15  C   UNL     1      -5.515  -3.283 -34.648  1.00  0.00     0.002 A 
HETATM   16  C   UNL     1      -6.745  -2.634 -34.648  1.00  0.00     0.002 A 
HETATM   17  C   UNL     1      -6.841  -1.321 -34.184  1.00  0.00     0.031 A 
ENDBRANCH   8  11
ENDBRANCH   6   7
ENDBRANCH   3   6
ENDBRANCH   1   2
BRANCH   1  18
HETATM   18  N   UNL     1      -5.046   5.938 -33.614  1.00  0.00    -0.282 NA
HETATM   19  H   UNL     1      -5.852   6.362 -33.146  1.00  0.00     0.128 HD
BRANCH  18  20
HETATM   20  C   UNL     1      -3.890   6.139 -32.830  1.00  0.00     0.045 A 
HETATM   21  C   UNL     1      -2.583   6.334 -33.325  1.00  0.00     0.090 A 
HETATM   22  C   UNL     1      -1.491   6.614 -32.475  1.00  0.00     0.053 A 
HETATM   23  C   UNL     1      -1.724   6.790 -31.102  1.00  0.00     0.014 A 
HETATM   24  C   UNL     1      -3.025   6.656 -30.639  1.00  0.00     0.089 A 
HETATM   25  C   UNL     1      -0.934   7.106 -29.958  1.00  0.00     0.011 A 
HETATM   26  O   UNL     1      -3.086   6.876 -29.298  1.00  0.00    -0.309 OA
HETATM   27  C   UNL     1      -4.113   6.343 -31.451  1.00  0.00     0.064 A 
HETATM   28  C   UNL     1      -1.818   7.149 -28.885  1.00  0.00     0.087 A 
HETATM   29  C   UNL     1      -1.445   7.436 -27.574  1.00  0.00     0.038 A 
HETATM   30  C   UNL     1      -0.088   7.695 -27.353  1.00  0.00     0.003 A 
HETATM   31  C   UNL     1       0.833   7.663 -28.403  1.00  0.00     0.001 A 
HETATM   32  C   UNL     1       0.427   7.371 -29.714  1.00  0.00     0.015 A 
BRANCH  21  33
HETATM   33  O   UNL     1      -2.326   6.201 -34.670  1.00  0.00    -0.354 OA
HETATM   34  C   UNL     1      -1.237   5.304 -34.906  1.00  0.00     0.210 C 
ENDBRANCH  21  33
ENDBRANCH  18  20
ENDBRANCH   1  18
TORSDOF 7
ENDMDL
MODEL 9
REMARK VINA RESULT:      -9.2      1.812      2.311
REMARK  7 active torsions:
REMARK  status: ('A' for Active; 'I' for Inactive)
REMARK       I    between atoms: N_2  and  C_3 
REMARK    1  A    between atoms: N_2  and  C_22 
REMARK    2  A    between atoms: C_3  and  C_4 
REMARK    3  A    between atoms: C_4  and  N_5 
REMARK    4  A    between atoms: N_5  and  C_6 
REMARK    5  A    between atoms: C_7  and  O_8 
REMARK    6  A    between atoms: C_22  and  C_23 
REMARK       I    between atoms: C_23  and  N_24 
REMARK    7  A    between atoms: N_24  and  C_25 
ROOT
HETATM    1  C   UNL     1      -5.709   3.692 -33.023  1.00  0.00     0.195 C 
ENDROOT
BRANCH   1   2
HETATM    2  C   UNL     1      -6.642   4.914 -33.150  1.00  0.00     0.233 C 
HETATM    3  N   UNL     1      -6.940   5.628 -31.988  1.00  0.00    -0.347 N 
HETATM    4  C   UNL     1      -7.979   6.641 -32.059  1.00  0.00     0.153 C 
HETATM    5  O   UNL     1      -7.226   5.128 -34.217  1.00  0.00    -0.272 OA
BRANCH   3   6
HETATM    6  C   UNL     1      -6.009   5.728 -30.856  1.00  0.00     0.228 C 
BRANCH   6   7
HETATM    7  C   UNL     1      -4.625   6.336 -31.128  1.00  0.00     0.240 C 
HETATM    8  N   UNL     1      -3.570   5.661 -30.542  1.00  0.00    -0.324 N 
HETATM    9  H   UNL     1      -3.725   4.656 -30.473  1.00  0.00     0.169 HD
HETATM   10  O   UNL     1      -4.533   7.349 -31.819  1.00  0.00    -0.271 OA
BRANCH   8  11
HETATM   11  C   UNL     1      -2.217   6.078 -30.624  1.00  0.00     0.056 A 
HETATM   12  C   UNL     1      -1.273   5.611 -31.555  1.00  0.00     0.060 A 
HETATM   13 CL   UNL     1      -1.693   4.665 -32.945  1.00  0.00    -0.082 Cl
HETATM   14  C   UNL     1       0.061   6.035 -31.477  1.00  0.00     0.026 A 
HETATM   15  C   UNL     1       0.457   6.950 -30.501  1.00  0.00     0.002 A 
HETATM   16  C   UNL     1      -0.486   7.473 -29.625  1.00  0.00     0.002 A 
HETATM   17  C   UNL     1      -1.816   7.053 -29.700  1.00  0.00     0.031 A 
ENDBRANCH   8  11
ENDBRANCH   6   7
ENDBRANCH   3   6
ENDBRANCH   1   2
BRANCH   1  18
HETATM   18  N   UNL     1      -6.446   2.694 -32.230  1.00  0.00    -0.282 NA
HETATM   19  H   UNL     1      -7.370   3.078 -32.014  1.00  0.00     0.128 HD
BRANCH  18  20
HETATM   20  C   UNL     1      -6.588   1.377 -32.715  1.00  0.00     0.045 A 
HETATM   21  C   UNL     1      -7.704   0.874 -33.419  1.00  0.00     0.090 A 
HETATM   22  C   UNL     1      -7.732  -0.434 -33.946  1.00  0.00     0.053 A 
HETATM   23  C   UNL     1      -6.582  -1.235 -33.847  1.00  0.00     0.014 A 
HETATM   24  C   UNL     1      -5.472  -0.703 -33.207  1.00  0.00     0.089 A 
HETATM   25  C   UNL     1      -6.203  -2.544 -34.264  1.00  0.00     0.011 A 
HETATM   26  O   UNL     1      -4.441  -1.591 -33.211  1.00  0.00    -0.309 OA
HETATM   27  C   UNL     1      -5.432   0.571 -32.644  1.00  0.00     0.064 A 
HETATM   28  C   UNL     1      -4.884  -2.707 -33.853  1.00  0.00     0.087 A 
HETATM   29  C   UNL     1      -4.130  -3.858 -34.076  1.00  0.00     0.038 A 
HETATM   30  C   UNL     1      -4.767  -4.898 -34.760  1.00  0.00     0.003 A 
HETATM   31  C   UNL     1      -6.091  -4.775 -35.191  1.00  0.00     0.001 A 
HETATM   32  C   UNL     1      -6.824  -3.604 -34.953  1.00  0.00     0.015 A 
BRANCH  21  33
HETATM   33  O   UNL     1      -8.834   1.645 -33.563  1.00  0.00    -0.354 OA
HETATM   34  C   UNL     1     -10.009   0.922 -33.182  1.00  0.00     0.210 C 
ENDBRANCH  21  33
ENDBRANCH  18  20
ENDBRANCH   1  18
TORSDOF 7
ENDMDL
MODEL 10
REMARK VINA RESULT:      -9.0      1.723      2.450
REMARK  7 active torsions:
REMARK  status: ('A' for Active; 'I' for Inactive)
REMARK       I    between atoms: N_2  and  C_3 
REMARK    1  A    between atoms: N_2  and  C_22 
REMARK    2  A    between atoms: C_3  and  C_4 
REMARK    3  A    between atoms: C_4  and  N_5 
REMARK    4  A    between atoms: N_5  and  C_6 
REMARK    5  A    between atoms: C_7  and  O_8 
REMARK    6  A    between atoms: C_22  and  C_23 
REMARK       I    between atoms: C_23  and  N_24 
REMARK    7  A    between atoms: N_24  and  C_25 
ROOT
HETATM    1  C   UNL     1      -6.143   4.017 -34.234  1.00  0.00     0.195 C 
ENDROOT
BRANCH   1   2
HETATM    2  C   UNL     1      -6.367   5.311 -33.424  1.00  0.00     0.233 C 
HETATM    3  N   UNL     1      -5.295   5.804 -32.677  1.00  0.00    -0.347 N 
HETATM    4  C   UNL     1      -5.555   6.891 -31.750  1.00  0.00     0.153 C 
HETATM    5  O   UNL     1      -7.505   5.778 -33.321  1.00  0.00    -0.272 OA
BRANCH   3   6
HETATM    6  C   UNL     1      -3.894   5.604 -33.070  1.00  0.00     0.228 C 
BRANCH   6   7
HETATM    7  C   UNL     1      -2.834   6.483 -32.389  1.00  0.00     0.240 C 
HETATM    8  N   UNL     1      -2.506   6.102 -31.101  1.00  0.00    -0.324 N 
HETATM    9  H   UNL     1      -2.564   5.096 -30.952  1.00  0.00     0.169 HD
HETATM   10  O   UNL     1      -2.356   7.438 -32.998  1.00  0.00    -0.271 OA
BRANCH   8  11
HETATM   11  C   UNL     1      -1.591   6.803 -30.275  1.00  0.00     0.056 A 
HETATM   12  C   UNL     1      -0.233   6.481 -30.105  1.00  0.00     0.060 A 
HETATM   13 CL   UNL     1       0.611   5.350 -31.110  1.00  0.00    -0.082 Cl
HETATM   14  C   UNL     1       0.550   7.198 -29.189  1.00  0.00     0.026 A 
HETATM   15  C   UNL     1       0.003   8.258 -28.466  1.00  0.00     0.002 A 
HETATM   16  C   UNL     1      -1.319   8.629 -28.684  1.00  0.00     0.002 A 
HETATM   17  C   UNL     1      -2.102   7.918 -29.596  1.00  0.00     0.031 A 
ENDBRANCH   8  11
ENDBRANCH   6   7
ENDBRANCH   3   6
ENDBRANCH   1   2
BRANCH   1  18
HETATM   18  N   UNL     1      -6.603   2.912 -33.376  1.00  0.00    -0.282 NA
HETATM   19  H   UNL     1      -7.599   2.762 -33.555  1.00  0.00     0.128 HD
BRANCH  18  20
HETATM   20  C   UNL     1      -5.929   1.673 -33.405  1.00  0.00     0.045 A 
HETATM   21  C   UNL     1      -4.789   1.337 -32.642  1.00  0.00     0.090 A 
HETATM   22  C   UNL     1      -4.224   0.044 -32.667  1.00  0.00     0.053 A 
HETATM   23  C   UNL     1      -4.863  -0.967 -33.403  1.00  0.00     0.014 A 
HETATM   24  C   UNL     1      -6.018  -0.635 -34.097  1.00  0.00     0.089 A 
HETATM   25  C   UNL     1      -4.646  -2.354 -33.646  1.00  0.00     0.011 A 
HETATM   26  O   UNL     1      -6.524  -1.722 -34.739  1.00  0.00    -0.309 OA
HETATM   27  C   UNL     1      -6.574   0.642 -34.121  1.00  0.00     0.064 A 
HETATM   28  C   UNL     1      -5.693  -2.765 -34.465  1.00  0.00     0.087 A 
HETATM   29  C   UNL     1      -5.857  -4.068 -34.932  1.00  0.00     0.038 A 
HETATM   30  C   UNL     1      -4.894  -5.000 -34.534  1.00  0.00     0.003 A 
HETATM   31  C   UNL     1      -3.827  -4.629 -33.711  1.00  0.00     0.001 A 
HETATM   32  C   UNL     1      -3.688  -3.309 -33.256  1.00  0.00     0.015 A 
BRANCH  21  33
HETATM   33  O   UNL     1      -4.158   2.295 -31.884  1.00  0.00    -0.354 OA
HETATM   34  C   UNL     1      -4.826   2.493 -30.634  1.00  0.00     0.210 C 
ENDBRANCH  21  33
ENDBRANCH  18  20
ENDBRANCH   1  18
TORSDOF 7
ENDMDL
