MODEL 1
REMARK VINA RESULT:     -10.7      0.000      0.000
REMARK  6 active torsions:
REMARK  status: ('A' for Active; 'I' for Inactive)
REMARK    1  A    between atoms: C_6  and  N_7 
REMARK       I    between atoms: N_7  and  C_8 
REMARK    2  A    between atoms: C_8  and  C_9 
REMARK    3  A    between atoms: C_11  and  N_12 
REMARK    4  A    between atoms: N_12  and  N_13 
REMARK       I    between atoms: N_13  and  C_14 
REMARK    5  A    between atoms: C_14  and  C_15 
REMARK    6  A    between atoms: C_16  and  C_17 
ROOT
HETATM    1  C   UNL     1      -4.222   2.264 -31.395  1.00  0.00     0.151 A 
HETATM    2  N   UNL     1      -2.988   2.709 -31.797  1.00  0.00    -0.210 NA
HETATM    3  C   UNL     1      -2.730   4.011 -31.647  1.00  0.00     0.220 A 
HETATM    4  N   UNL     1      -3.601   4.884 -31.107  1.00  0.00    -0.228 NA
HETATM    5  C   UNL     1      -4.800   4.399 -30.715  1.00  0.00     0.146 A 
HETATM    6  C   UNL     1      -5.182   3.083 -30.835  1.00  0.00     0.086 A 
HETATM    7 CL   UNL     1      -6.745   2.636 -30.288  1.00  0.00    -0.080 Cl
ENDROOT
BRANCH   3   8
HETATM    8  N   UNL     1      -1.491   4.486 -32.098  1.00  0.00    -0.169 NA
HETATM    9  H   UNL     1      -0.821   3.716 -32.146  1.00  0.00     0.156 HD
BRANCH   8  10
HETATM   10  N   UNL     1      -1.024   5.595 -31.369  1.00  0.00    -0.281 N 
HETATM   11  C   UNL     1       0.224   5.512 -30.798  1.00  0.00     0.255 C 
HETATM   12  O   UNL     1       0.975   4.553 -30.936  1.00  0.00    -0.267 OA
HETATM   13  H   UNL     1      -1.706   6.329 -31.195  1.00  0.00     0.184 HD
BRANCH  11  14
HETATM   14  C   UNL     1       0.562   6.705 -29.980  1.00  0.00     0.076 C 
HETATM   15  C   UNL     1       0.415   6.662 -28.647  1.00  0.00     0.017 C 
BRANCH  15  16
HETATM   16  C   UNL     1       0.692   7.770 -27.716  1.00  0.00    -0.036 A 
HETATM   17  C   UNL     1       1.699   7.593 -26.753  1.00  0.00     0.013 A 
HETATM   18  C   UNL     1       2.020   8.613 -25.852  1.00  0.00     0.024 A 
HETATM   19  C   UNL     1       1.339   9.825 -25.909  1.00  0.00     0.034 A 
HETATM   20 CL   UNL     1       1.727  11.080 -24.799  1.00  0.00    -0.084 Cl
HETATM   21  C   UNL     1       0.346  10.026 -26.863  1.00  0.00     0.024 A 
HETATM   22  C   UNL     1       0.029   9.005 -27.767  1.00  0.00     0.013 A 
ENDBRANCH  15  16
ENDBRANCH  11  14
ENDBRANCH   8  10
ENDBRANCH   3   8
BRANCH   1  23
HETATM   23  C   UNL     1      -4.438   0.790 -31.638  1.00  0.00     0.276 C 
HETATM   24  N   UNL     1      -4.870   0.513 -32.926  1.00  0.00    -0.322 N 
HETATM   25  H   UNL     1      -4.967   1.329 -33.524  1.00  0.00     0.169 HD
HETATM   26  O   UNL     1      -4.240  -0.034 -30.756  1.00  0.00    -0.266 OA
BRANCH  24  27
HETATM   27  C   UNL     1      -5.186  -0.738 -33.489  1.00  0.00     0.035 A 
HETATM   28  C   UNL     1      -4.326  -1.837 -33.486  1.00  0.00     0.037 A 
HETATM   29  C   UNL     1      -4.706  -3.066 -34.058  1.00  0.00    -0.054 A 
HETATM   30  C   UNL     1      -5.965  -3.183 -34.676  1.00  0.00    -0.056 A 
HETATM   31  C   UNL     1      -3.729  -4.212 -34.030  1.00  0.00     0.049 C 
HETATM   32  C   UNL     1      -6.415  -4.469 -35.314  1.00  0.00     0.049 C 
HETATM   33  C   UNL     1      -6.830  -2.082 -34.666  1.00  0.00     0.009 A 
HETATM   34  C   UNL     1      -6.445  -0.874 -34.079  1.00  0.00     0.030 A 
ENDBRANCH  24  27
ENDBRANCH   1  23
TORSDOF 6
ENDMDL
MODEL 2
REMARK VINA RESULT:     -10.4      2.572      3.556
REMARK  6 active torsions:
REMARK  status: ('A' for Active; 'I' for Inactive)
REMARK    1  A    between atoms: C_6  and  N_7 
REMARK       I    between atoms: N_7  and  C_8 
REMARK    2  A    between atoms: C_8  and  C_9 
REMARK    3  A    between atoms: C_11  and  N_12 
REMARK    4  A    between atoms: N_12  and  N_13 
REMARK       I    between atoms: N_13  and  C_14 
REMARK    5  A    between atoms: C_14  and  C_15 
REMARK    6  A    between atoms: C_16  and  C_17 
ROOT
HETATM    1  C   UNL     1      -6.587   2.579 -33.264  1.00  0.00     0.151 A 
HETATM    2  N   UNL     1      -5.522   3.244 -33.816  1.00  0.00    -0.210 NA
HETATM    3  C   UNL     1      -5.721   4.513 -34.188  1.00  0.00     0.220 A 
HETATM    4  N   UNL     1      -6.890   5.160 -34.024  1.00  0.00    -0.228 NA
HETATM    5  C   UNL     1      -7.907   4.469 -33.465  1.00  0.00     0.146 A 
HETATM    6  C   UNL     1      -7.825   3.157 -33.060  1.00  0.00     0.086 A 
HETATM    7 CL   UNL     1      -9.216   2.429 -32.371  1.00  0.00    -0.080 Cl
ENDROOT
BRANCH   3   8
HETATM    8  N   UNL     1      -4.655   5.187 -34.797  1.00  0.00    -0.169 NA
HETATM    9  H   UNL     1      -4.283   4.626 -35.566  1.00  0.00     0.156 HD
BRANCH   8  10
HETATM   10  N   UNL     1      -3.674   5.613 -33.883  1.00  0.00    -0.281 N 
HETATM   11  C   UNL     1      -2.354   5.490 -34.249  1.00  0.00     0.255 C 
HETATM   12  O   UNL     1      -1.986   5.087 -35.348  1.00  0.00    -0.267 OA
HETATM   13  H   UNL     1      -4.008   5.849 -32.952  1.00  0.00     0.184 HD
BRANCH  11  14
HETATM   14  C   UNL     1      -1.417   5.884 -33.166  1.00  0.00     0.076 C 
HETATM   15  C   UNL     1      -1.761   5.688 -31.884  1.00  0.00     0.017 C 
BRANCH  15  16
HETATM   16  C   UNL     1      -0.944   6.044 -30.711  1.00  0.00    -0.036 A 
HETATM   17  C   UNL     1      -1.047   7.348 -30.201  1.00  0.00     0.013 A 
HETATM   18  C   UNL     1      -0.309   7.743 -29.080  1.00  0.00     0.024 A 
HETATM   19  C   UNL     1       0.536   6.831 -28.455  1.00  0.00     0.034 A 
HETATM   20 CL   UNL     1       1.449   7.314 -27.078  1.00  0.00    -0.084 Cl
HETATM   21  C   UNL     1       0.644   5.530 -28.937  1.00  0.00     0.024 A 
HETATM   22  C   UNL     1      -0.099   5.137 -30.056  1.00  0.00     0.013 A 
ENDBRANCH  15  16
ENDBRANCH  11  14
ENDBRANCH   8  10
ENDBRANCH   3   8
BRANCH   1  23
HETATM   23  C   UNL     1      -6.282   1.144 -32.912  1.00  0.00     0.276 C 
HETATM   24  N   UNL     1      -5.840   0.404 -33.998  1.00  0.00    -0.322 N 
HETATM   25  H   UNL     1      -5.771   0.927 -34.866  1.00  0.00     0.169 HD
HETATM   26  O   UNL     1      -6.428   0.725 -31.772  1.00  0.00    -0.266 OA
BRANCH  24  27
HETATM   27  C   UNL     1      -5.486  -0.959 -34.039  1.00  0.00     0.035 A 
HETATM   28  C   UNL     1      -6.261  -1.950 -34.644  1.00  0.00     0.037 A 
HETATM   29  C   UNL     1      -5.846  -3.295 -34.660  1.00  0.00    -0.054 A 
HETATM   30  C   UNL     1      -4.643  -3.657 -34.026  1.00  0.00    -0.056 A 
HETATM   31  C   UNL     1      -6.730  -4.319 -35.322  1.00  0.00     0.049 C 
HETATM   32  C   UNL     1      -4.160  -5.081 -34.002  1.00  0.00     0.049 C 
HETATM   33  C   UNL     1      -3.863  -2.658 -33.431  1.00  0.00     0.009 A 
HETATM   34  C   UNL     1      -4.280  -1.324 -33.438  1.00  0.00     0.030 A 
ENDBRANCH  24  27
ENDBRANCH   1  23
TORSDOF 6
ENDMDL
MODEL 3
REMARK VINA RESULT:     -10.0      3.177      4.371
REMARK  6 active torsions:
REMARK  status: ('A' for Active; 'I' for Inactive)
REMARK    1  A    between atoms: C_6  and  N_7 
REMARK       I    between atoms: N_7  and  C_8 
REMARK    2  A    between atoms: C_8  and  C_9 
REMARK    3  A    between atoms: C_11  and  N_12 
REMARK    4  A    between atoms: N_12  and  N_13 
REMARK       I    between atoms: N_13  and  C_14 
REMARK    5  A    between atoms: C_14  and  C_15 
REMARK    6  A    between atoms: C_16  and  C_17 
ROOT
HETATM    1  C   UNL     1      -8.031   2.142 -33.266  1.00  0.00     0.151 A 
HETATM    2  N   UNL     1      -7.156   3.159 -33.549  1.00  0.00    -0.210 NA
HETATM    3  C   UNL     1      -7.681   4.340 -33.892  1.00  0.00     0.220 A 
HETATM    4  N   UNL     1      -9.005   4.576 -33.945  1.00  0.00    -0.228 NA
HETATM    5  C   UNL     1      -9.829   3.549 -33.647  1.00  0.00     0.146 A 
HETATM    6  C   UNL     1      -9.404   2.287 -33.298  1.00  0.00     0.086 A 
HETATM    7 CL   UNL     1     -10.588   1.096 -32.953  1.00  0.00    -0.080 Cl
ENDROOT
BRANCH   3   8
HETATM    8  N   UNL     1      -6.796   5.372 -34.230  1.00  0.00    -0.169 NA
HETATM    9  H   UNL     1      -6.442   5.230 -35.178  1.00  0.00     0.156 HD
BRANCH   8  10
HETATM   10  N   UNL     1      -5.783   5.569 -33.274  1.00  0.00    -0.281 N 
HETATM   11  C   UNL     1      -4.480   5.602 -33.712  1.00  0.00     0.255 C 
HETATM   12  O   UNL     1      -4.156   5.529 -34.892  1.00  0.00    -0.267 OA
HETATM   13  H   UNL     1      -6.078   5.529 -32.301  1.00  0.00     0.184 HD
BRANCH  11  14
HETATM   14  C   UNL     1      -3.502   5.721 -32.600  1.00  0.00     0.076 C 
HETATM   15  C   UNL     1      -2.779   6.844 -32.466  1.00  0.00     0.017 C 
BRANCH  15  16
HETATM   16  C   UNL     1      -1.765   7.093 -31.427  1.00  0.00    -0.036 A 
HETATM   17  C   UNL     1      -2.129   7.869 -30.316  1.00  0.00     0.013 A 
HETATM   18  C   UNL     1      -1.215   8.129 -29.288  1.00  0.00     0.024 A 
HETATM   19  C   UNL     1       0.072   7.607 -29.363  1.00  0.00     0.034 A 
HETATM   20 CL   UNL     1       1.201   7.927 -28.104  1.00  0.00    -0.084 Cl
HETATM   21  C   UNL     1       0.450   6.825 -30.450  1.00  0.00     0.024 A 
HETATM   22  C   UNL     1      -0.467   6.563 -31.474  1.00  0.00     0.013 A 
ENDBRANCH  15  16
ENDBRANCH  11  14
ENDBRANCH   8  10
ENDBRANCH   3   8
BRANCH   1  23
HETATM   23  C   UNL     1      -7.351   0.839 -32.929  1.00  0.00     0.276 C 
HETATM   24  N   UNL     1      -6.768   0.233 -34.031  1.00  0.00    -0.322 N 
HETATM   25  H   UNL     1      -6.867   0.750 -34.900  1.00  0.00     0.169 HD
HETATM   26  O   UNL     1      -7.343   0.404 -31.786  1.00  0.00    -0.266 OA
BRANCH  24  27
HETATM   27  C   UNL     1      -6.072  -0.990 -34.088  1.00  0.00     0.035 A 
HETATM   28  C   UNL     1      -6.583  -2.154 -34.665  1.00  0.00     0.037 A 
HETATM   29  C   UNL     1      -5.832  -3.345 -34.699  1.00  0.00    -0.054 A 
HETATM   30  C   UNL     1      -4.553  -3.374 -34.112  1.00  0.00    -0.056 A 
HETATM   31  C   UNL     1      -6.442  -4.569 -35.329  1.00  0.00     0.049 C 
HETATM   32  C   UNL     1      -3.715  -4.623 -34.109  1.00  0.00     0.049 C 
HETATM   33  C   UNL     1      -4.040  -2.201 -33.545  1.00  0.00     0.009 A 
HETATM   34  C   UNL     1      -4.791  -1.022 -33.534  1.00  0.00     0.030 A 
ENDBRANCH  24  27
ENDBRANCH   1  23
TORSDOF 6
ENDMDL
MODEL 4
REMARK VINA RESULT:      -9.6      4.481      6.035
REMARK  6 active torsions:
REMARK  status: ('A' for Active; 'I' for Inactive)
REMARK    1  A    between atoms: C_6  and  N_7 
REMARK       I    between atoms: N_7  and  C_8 
REMARK    2  A    between atoms: C_8  and  C_9 
REMARK    3  A    between atoms: C_11  and  N_12 
REMARK    4  A    between atoms: N_12  and  N_13 
REMARK       I    between atoms: N_13  and  C_14 
REMARK    5  A    between atoms: C_14  and  C_15 
REMARK    6  A    between atoms: C_16  and  C_17 
ROOT
HETATM    1  C   UNL     1      -9.463   2.083 -33.671  1.00  0.00     0.151 A 
HETATM    2  N   UNL     1      -8.707   3.215 -33.843  1.00  0.00    -0.210 NA
HETATM    3  C   UNL     1      -9.347   4.326 -34.220  1.00  0.00     0.220 A 
HETATM    4  N   UNL     1     -10.678   4.388 -34.410  1.00  0.00    -0.228 NA
HETATM    5  C   UNL     1     -11.384   3.253 -34.218  1.00  0.00     0.146 A 
HETATM    6  C   UNL     1     -10.832   2.048 -33.846  1.00  0.00     0.086 A 
HETATM    7 CL   UNL     1     -11.875   0.701 -33.648  1.00  0.00    -0.080 Cl
ENDROOT
BRANCH   3   8
HETATM    8  N   UNL     1      -8.578   5.475 -34.446  1.00  0.00    -0.169 NA
HETATM    9  H   UNL     1      -8.493   5.645 -35.450  1.00  0.00     0.156 HD
BRANCH   8  10
HETATM   10  N   UNL     1      -7.344   5.458 -33.771  1.00  0.00    -0.281 N 
HETATM   11  C   UNL     1      -7.199   6.268 -32.670  1.00  0.00     0.255 C 
HETATM   12  O   UNL     1      -8.101   6.959 -32.208  1.00  0.00    -0.267 OA
HETATM   13  H   UNL     1      -6.593   4.951 -34.234  1.00  0.00     0.184 HD
BRANCH  11  14
HETATM   14  C   UNL     1      -5.826   6.230 -32.104  1.00  0.00     0.076 C 
HETATM   15  C   UNL     1      -4.805   5.800 -32.862  1.00  0.00     0.017 C 
BRANCH  15  16
HETATM   16  C   UNL     1      -3.401   5.691 -32.430  1.00  0.00    -0.036 A 
HETATM   17  C   UNL     1      -3.058   6.172 -31.156  1.00  0.00     0.013 A 
HETATM   18  C   UNL     1      -1.745   6.083 -30.683  1.00  0.00     0.024 A 
HETATM   19  C   UNL     1      -0.762   5.506 -31.480  1.00  0.00     0.034 A 
HETATM   20 CL   UNL     1       0.856   5.399 -30.904  1.00  0.00    -0.084 Cl
HETATM   21  C   UNL     1      -1.082   5.012 -32.741  1.00  0.00     0.024 A 
HETATM   22  C   UNL     1      -2.398   5.098 -33.211  1.00  0.00     0.013 A 
ENDBRANCH  15  16
ENDBRANCH  11  14
ENDBRANCH   8  10
ENDBRANCH   3   8
BRANCH   1  23
HETATM   23  C   UNL     1      -8.653   0.871 -33.284  1.00  0.00     0.276 C 
HETATM   24  N   UNL     1      -7.749   0.491 -34.264  1.00  0.00    -0.322 N 
HETATM   25  H   UNL     1      -7.748   1.081 -35.091  1.00  0.00     0.169 HD
HETATM   26  O   UNL     1      -8.815   0.317 -32.206  1.00  0.00    -0.266 OA
BRANCH  24  27
HETATM   27  C   UNL     1      -6.853  -0.596 -34.250  1.00  0.00     0.035 A 
HETATM   28  C   UNL     1      -7.178  -1.883 -34.681  1.00  0.00     0.037 A 
HETATM   29  C   UNL     1      -6.233  -2.926 -34.651  1.00  0.00    -0.054 A 
HETATM   30  C   UNL     1      -4.943  -2.677 -34.146  1.00  0.00    -0.056 A 
HETATM   31  C   UNL     1      -6.648  -4.295 -35.122  1.00  0.00     0.049 C 
HETATM   32  C   UNL     1      -3.900  -3.759 -34.079  1.00  0.00     0.049 C 
HETATM   33  C   UNL     1      -4.617  -1.382 -33.726  1.00  0.00     0.009 A 
HETATM   34  C   UNL     1      -5.561  -0.353 -33.778  1.00  0.00     0.030 A 
ENDBRANCH  24  27
ENDBRANCH   1  23
TORSDOF 6
ENDMDL
MODEL 5
REMARK VINA RESULT:      -9.6      3.526      4.956
REMARK  6 active torsions:
REMARK  status: ('A' for Active; 'I' for Inactive)
REMARK    1  A    between atoms: C_6  and  N_7 
REMARK       I    between atoms: N_7  and  C_8 
REMARK    2  A    between atoms: C_8  and  C_9 
REMARK    3  A    between atoms: C_11  and  N_12 
REMARK    4  A    between atoms: N_12  and  N_13 
REMARK       I    between atoms: N_13  and  C_14 
REMARK    5  A    between atoms: C_14  and  C_15 
REMARK    6  A    between atoms: C_16  and  C_17 
ROOT
HETATM    1  C   UNL     1      -8.747   2.044 -33.496  1.00  0.00     0.151 A 
HETATM    2  N   UNL     1      -7.913   3.123 -33.638  1.00  0.00    -0.210 NA
HETATM    3  C   UNL     1      -8.465   4.274 -34.034  1.00  0.00     0.220 A 
HETATM    4  N   UNL     1      -9.782   4.424 -34.270  1.00  0.00    -0.228 NA
HETATM    5  C   UNL     1     -10.567   3.337 -34.106  1.00  0.00     0.146 A 
HETATM    6  C   UNL     1     -10.109   2.098 -33.718  1.00  0.00     0.086 A 
HETATM    7 CL   UNL     1     -11.244   0.823 -33.561  1.00  0.00    -0.080 Cl
ENDROOT
BRANCH   3   8
HETATM    8  N   UNL     1      -7.615   5.371 -34.229  1.00  0.00    -0.169 NA
HETATM    9  H   UNL     1      -7.215   5.337 -35.168  1.00  0.00     0.156 HD
BRANCH   8  10
HETATM   10  N   UNL     1      -6.655   5.516 -33.212  1.00  0.00    -0.281 N 
HETATM   11  C   UNL     1      -5.327   5.442 -33.562  1.00  0.00     0.255 C 
HETATM   12  O   UNL     1      -4.933   5.318 -34.716  1.00  0.00    -0.267 OA
HETATM   13  H   UNL     1      -7.015   5.521 -32.260  1.00  0.00     0.184 HD
BRANCH  11  14
HETATM   14  C   UNL     1      -4.418   5.516 -32.390  1.00  0.00     0.076 C 
HETATM   15  C   UNL     1      -3.124   5.822 -32.569  1.00  0.00     0.017 C 
BRANCH  15  16
HETATM   16  C   UNL     1      -2.108   5.913 -31.506  1.00  0.00    -0.036 A 
HETATM   17  C   UNL     1      -2.341   6.791 -30.436  1.00  0.00     0.013 A 
HETATM   18  C   UNL     1      -1.421   6.910 -29.389  1.00  0.00     0.024 A 
HETATM   19  C   UNL     1      -0.259   6.145 -29.401  1.00  0.00     0.034 A 
HETATM   20 CL   UNL     1       0.877   6.291 -28.117  1.00  0.00    -0.084 Cl
HETATM   21  C   UNL     1      -0.014   5.259 -30.446  1.00  0.00     0.024 A 
HETATM   22  C   UNL     1      -0.938   5.138 -31.491  1.00  0.00     0.013 A 
ENDBRANCH  15  16
ENDBRANCH  11  14
ENDBRANCH   8  10
ENDBRANCH   3   8
BRANCH   1  23
HETATM   23  C   UNL     1      -8.031   0.781 -33.085  1.00  0.00     0.276 C 
HETATM   24  N   UNL     1      -7.023   0.420 -33.966  1.00  0.00    -0.322 N 
HETATM   25  H   UNL     1      -6.899   1.055 -34.749  1.00  0.00     0.169 HD
HETATM   26  O   UNL     1      -8.347   0.174 -32.071  1.00  0.00    -0.266 OA
BRANCH  24  27
HETATM   27  C   UNL     1      -6.172  -0.700 -33.906  1.00  0.00     0.035 A 
HETATM   28  C   UNL     1      -5.107  -0.826 -33.014  1.00  0.00     0.037 A 
HETATM   29  C   UNL     1      -4.297  -1.978 -32.997  1.00  0.00    -0.054 A 
HETATM   30  C   UNL     1      -4.544  -3.011 -33.920  1.00  0.00    -0.056 A 
HETATM   31  C   UNL     1      -3.158  -2.050 -32.015  1.00  0.00     0.049 C 
HETATM   32  C   UNL     1      -3.702  -4.257 -33.955  1.00  0.00     0.049 C 
HETATM   33  C   UNL     1      -5.621  -2.886 -34.806  1.00  0.00     0.009 A 
HETATM   34  C   UNL     1      -6.427  -1.744 -34.799  1.00  0.00     0.030 A 
ENDBRANCH  24  27
ENDBRANCH   1  23
TORSDOF 6
ENDMDL
MODEL 6
REMARK VINA RESULT:      -9.5      3.441     11.299
REMARK  6 active torsions:
REMARK  status: ('A' for Active; 'I' for Inactive)
REMARK    1  A    between atoms: C_6  and  N_7 
REMARK       I    between atoms: N_7  and  C_8 
REMARK    2  A    between atoms: C_8  and  C_9 
REMARK    3  A    between atoms: C_11  and  N_12 
REMARK    4  A    between atoms: N_12  and  N_13 
REMARK       I    between atoms: N_13  and  C_14 
REMARK    5  A    between atoms: C_14  and  C_15 
REMARK    6  A    between atoms: C_16  and  C_17 
ROOT
HETATM    1  C   UNL     1      -3.211   6.519 -32.975  1.00  0.00     0.151 A 
HETATM    2  N   UNL     1      -4.500   6.063 -32.862  1.00  0.00    -0.210 NA
HETATM    3  C   UNL     1      -4.963   5.290 -33.849  1.00  0.00     0.220 A 
HETATM    4  N   UNL     1      -4.226   4.926 -34.915  1.00  0.00    -0.228 NA
HETATM    5  C   UNL     1      -2.959   5.389 -34.978  1.00  0.00     0.146 A 
HETATM    6  C   UNL     1      -2.380   6.203 -34.031  1.00  0.00     0.086 A 
HETATM    7 CL   UNL     1      -0.758   6.703 -34.269  1.00  0.00    -0.080 Cl
ENDROOT
BRANCH   3   8
HETATM    8  N   UNL     1      -6.293   4.858 -33.769  1.00  0.00    -0.169 NA
HETATM    9  H   UNL     1      -6.717   5.197 -32.903  1.00  0.00     0.156 HD
BRANCH   8  10
HETATM   10  N   UNL     1      -6.438   3.472 -33.962  1.00  0.00    -0.281 N 
HETATM   11  C   UNL     1      -7.201   2.771 -33.058  1.00  0.00     0.255 C 
HETATM   12  O   UNL     1      -7.810   3.292 -32.131  1.00  0.00    -0.267 OA
HETATM   13  H   UNL     1      -5.846   3.060 -34.680  1.00  0.00     0.184 HD
BRANCH  11  14
HETATM   14  C   UNL     1      -7.200   1.308 -33.317  1.00  0.00     0.076 C 
HETATM   15  C   UNL     1      -6.069   0.702 -33.712  1.00  0.00     0.017 C 
BRANCH  15  16
HETATM   16  C   UNL     1      -5.925  -0.731 -34.021  1.00  0.00    -0.036 A 
HETATM   17  C   UNL     1      -4.667  -1.326 -33.839  1.00  0.00     0.013 A 
HETATM   18  C   UNL     1      -4.470  -2.687 -34.100  1.00  0.00     0.024 A 
HETATM   19  C   UNL     1      -5.535  -3.466 -34.540  1.00  0.00     0.034 A 
HETATM   20 CL   UNL     1      -5.297  -5.138 -34.866  1.00  0.00    -0.084 Cl
HETATM   21  C   UNL     1      -6.794  -2.898 -34.715  1.00  0.00     0.024 A 
HETATM   22  C   UNL     1      -6.989  -1.538 -34.450  1.00  0.00     0.013 A 
ENDBRANCH  15  16
ENDBRANCH  11  14
ENDBRANCH   8  10
ENDBRANCH   3   8
BRANCH   1  23
HETATM   23  C   UNL     1      -2.788   7.414 -31.836  1.00  0.00     0.276 C 
HETATM   24  N   UNL     1      -2.228   6.714 -30.778  1.00  0.00    -0.322 N 
HETATM   25  H   UNL     1      -2.169   5.709 -30.920  1.00  0.00     0.169 HD
HETATM   26  O   UNL     1      -2.946   8.625 -31.889  1.00  0.00    -0.266 OA
BRANCH  24  27
HETATM   27  C   UNL     1      -1.745   7.219 -29.556  1.00  0.00     0.035 A 
HETATM   28  C   UNL     1      -0.425   7.617 -29.341  1.00  0.00     0.037 A 
HETATM   29  C   UNL     1      -0.006   8.125 -28.096  1.00  0.00    -0.054 A 
HETATM   30  C   UNL     1      -0.927   8.204 -27.035  1.00  0.00    -0.056 A 
HETATM   31  C   UNL     1       1.434   8.529 -27.925  1.00  0.00     0.049 C 
HETATM   32  C   UNL     1      -0.529   8.725 -25.682  1.00  0.00     0.049 C 
HETATM   33  C   UNL     1      -2.254   7.815 -27.258  1.00  0.00     0.009 A 
HETATM   34  C   UNL     1      -2.659   7.329 -28.505  1.00  0.00     0.030 A 
ENDBRANCH  24  27
ENDBRANCH   1  23
TORSDOF 6
ENDMDL
MODEL 7
REMARK VINA RESULT:      -9.3      4.897     10.672
REMARK  6 active torsions:
REMARK  status: ('A' for Active; 'I' for Inactive)
REMARK    1  A    between atoms: C_6  and  N_7 
REMARK       I    between atoms: N_7  and  C_8 
REMARK    2  A    between atoms: C_8  and  C_9 
REMARK    3  A    between atoms: C_11  and  N_12 
REMARK    4  A    between atoms: N_12  and  N_13 
REMARK       I    between atoms: N_13  and  C_14 
REMARK    5  A    between atoms: C_14  and  C_15 
REMARK    6  A    between atoms: C_16  and  C_17 
ROOT
HETATM    1  C   UNL     1      -8.511   5.376 -32.872  1.00  0.00     0.151 A 
HETATM    2  N   UNL     1      -8.646   4.382 -33.807  1.00  0.00    -0.210 NA
HETATM    3  C   UNL     1      -9.863   3.851 -33.962  1.00  0.00     0.220 A 
HETATM    4  N   UNL     1     -10.945   4.259 -33.273  1.00  0.00    -0.228 NA
HETATM    5  C   UNL     1     -10.767   5.248 -32.371  1.00  0.00     0.146 A 
HETATM    6  C   UNL     1      -9.560   5.858 -32.114  1.00  0.00     0.086 A 
HETATM    7 CL   UNL     1      -9.510   7.099 -30.932  1.00  0.00    -0.080 Cl
ENDROOT
BRANCH   3   8
HETATM    8  N   UNL     1     -10.003   2.802 -34.880  1.00  0.00    -0.169 NA
HETATM    9  H   UNL     1     -10.984   2.523 -34.942  1.00  0.00     0.156 HD
BRANCH   8  10
HETATM   10  N   UNL     1      -9.127   1.729 -34.634  1.00  0.00    -0.281 N 
HETATM   11  C   UNL     1      -9.550   0.731 -33.788  1.00  0.00     0.255 C 
HETATM   12  O   UNL     1     -10.666   0.693 -33.284  1.00  0.00    -0.267 OA
HETATM   13  H   UNL     1      -8.180   1.841 -34.988  1.00  0.00     0.184 HD
BRANCH  11  14
HETATM   14  C   UNL     1      -8.502  -0.291 -33.536  1.00  0.00     0.076 C 
HETATM   15  C   UNL     1      -7.712  -0.697 -34.542  1.00  0.00     0.017 C 
BRANCH  15  16
HETATM   16  C   UNL     1      -6.649  -1.712 -34.444  1.00  0.00    -0.036 A 
HETATM   17  C   UNL     1      -5.395  -1.316 -33.953  1.00  0.00     0.013 A 
HETATM   18  C   UNL     1      -4.350  -2.237 -33.821  1.00  0.00     0.024 A 
HETATM   19  C   UNL     1      -4.553  -3.567 -34.174  1.00  0.00     0.034 A 
HETATM   20 CL   UNL     1      -3.270  -4.702 -34.018  1.00  0.00    -0.084 Cl
HETATM   21  C   UNL     1      -5.793  -3.984 -34.651  1.00  0.00     0.024 A 
HETATM   22  C   UNL     1      -6.838  -3.061 -34.778  1.00  0.00     0.013 A 
ENDBRANCH  15  16
ENDBRANCH  11  14
ENDBRANCH   8  10
ENDBRANCH   3   8
BRANCH   1  23
HETATM   23  C   UNL     1      -7.098   5.887 -32.738  1.00  0.00     0.276 C 
HETATM   24  N   UNL     1      -6.150   4.877 -32.800  1.00  0.00    -0.322 N 
HETATM   25  H   UNL     1      -6.533   3.946 -32.938  1.00  0.00     0.169 HD
HETATM   26  O   UNL     1      -6.865   7.079 -32.590  1.00  0.00    -0.266 OA
BRANCH  24  27
HETATM   27  C   UNL     1      -4.750   4.986 -32.692  1.00  0.00     0.035 A 
HETATM   28  C   UNL     1      -3.884   5.032 -33.785  1.00  0.00     0.037 A 
HETATM   29  C   UNL     1      -2.491   5.152 -33.611  1.00  0.00    -0.054 A 
HETATM   30  C   UNL     1      -1.957   5.195 -32.310  1.00  0.00    -0.056 A 
HETATM   31  C   UNL     1      -1.608   5.187 -34.830  1.00  0.00     0.049 C 
HETATM   32  C   UNL     1      -0.477   5.309 -32.068  1.00  0.00     0.049 C 
HETATM   33  C   UNL     1      -2.831   5.161 -31.217  1.00  0.00     0.009 A 
HETATM   34  C   UNL     1      -4.212   5.059 -31.406  1.00  0.00     0.030 A 
ENDBRANCH  24  27
ENDBRANCH   1  23
TORSDOF 6
ENDMDL
MODEL 8
REMARK VINA RESULT:      -9.2      5.122      9.284
REMARK  6 active torsions:
REMARK  status: ('A' for Active; 'I' for Inactive)
REMARK    1  A    between atoms: C_6  and  N_7 
REMARK       I    between atoms: N_7  and  C_8 
REMARK    2  A    between atoms: C_8  and  C_9 
REMARK    3  A    between atoms: C_11  and  N_12 
REMARK    4  A    between atoms: N_12  and  N_13 
REMARK       I    between atoms: N_13  and  C_14 
REMARK    5  A    between atoms: C_14  and  C_15 
REMARK    6  A    between atoms: C_16  and  C_17 
ROOT
HETATM    1  C   UNL     1      -7.335   4.912 -31.291  1.00  0.00     0.151 A 
HETATM    2  N   UNL     1      -6.181   4.282 -31.683  1.00  0.00    -0.210 NA
HETATM    3  C   UNL     1      -5.080   5.033 -31.784  1.00  0.00     0.220 A 
HETATM    4  N   UNL     1      -5.049   6.348 -31.500  1.00  0.00    -0.228 NA
HETATM    5  C   UNL     1      -6.206   6.923 -31.107  1.00  0.00     0.146 A 
HETATM    6  C   UNL     1      -7.403   6.256 -30.983  1.00  0.00     0.086 A 
HETATM    7 CL   UNL     1      -8.780   7.142 -30.474  1.00  0.00    -0.080 Cl
ENDROOT
BRANCH   3   8
HETATM    8  N   UNL     1      -3.906   4.410 -32.229  1.00  0.00    -0.169 NA
HETATM    9  H   UNL     1      -3.423   5.016 -32.895  1.00  0.00     0.156 HD
BRANCH   8  10
HETATM   10  N   UNL     1      -4.119   3.104 -32.706  1.00  0.00    -0.281 N 
HETATM   11  C   UNL     1      -3.489   2.069 -32.056  1.00  0.00     0.255 C 
HETATM   12  O   UNL     1      -2.803   2.213 -31.050  1.00  0.00    -0.267 OA
HETATM   13  H   UNL     1      -4.611   3.030 -33.593  1.00  0.00     0.184 HD
BRANCH  11  14
HETATM   14  C   UNL     1      -3.716   0.755 -32.710  1.00  0.00     0.076 C 
HETATM   15  C   UNL     1      -4.966   0.366 -33.006  1.00  0.00     0.017 C 
BRANCH  15  16
HETATM   16  C   UNL     1      -5.342  -0.912 -33.635  1.00  0.00    -0.036 A 
HETATM   17  C   UNL     1      -4.344  -1.882 -33.817  1.00  0.00     0.013 A 
HETATM   18  C   UNL     1      -4.641  -3.122 -34.394  1.00  0.00     0.024 A 
HETATM   19  C   UNL     1      -5.945  -3.403 -34.790  1.00  0.00     0.034 A 
HETATM   20 CL   UNL     1      -6.314  -4.924 -35.504  1.00  0.00    -0.084 Cl
HETATM   21  C   UNL     1      -6.952  -2.460 -34.608  1.00  0.00     0.024 A 
HETATM   22  C   UNL     1      -6.653  -1.222 -34.027  1.00  0.00     0.013 A 
ENDBRANCH  15  16
ENDBRANCH  11  14
ENDBRANCH   8  10
ENDBRANCH   3   8
BRANCH   1  23
HETATM   23  C   UNL     1      -8.533   3.996 -31.243  1.00  0.00     0.276 C 
HETATM   24  N   UNL     1      -8.884   3.499 -32.489  1.00  0.00    -0.322 N 
HETATM   25  H   UNL     1      -8.284   3.806 -33.251  1.00  0.00     0.169 HD
HETATM   26  O   UNL     1      -9.102   3.751 -30.189  1.00  0.00    -0.266 OA
BRANCH  24  27
HETATM   27  C   UNL     1      -9.950   2.641 -32.818  1.00  0.00     0.035 A 
HETATM   28  C   UNL     1     -11.264   3.067 -33.017  1.00  0.00     0.037 A 
HETATM   29  C   UNL     1     -12.286   2.158 -33.354  1.00  0.00    -0.054 A 
HETATM   30  C   UNL     1     -11.986   0.787 -33.461  1.00  0.00    -0.056 A 
HETATM   31  C   UNL     1     -13.686   2.679 -33.547  1.00  0.00     0.049 C 
HETATM   32  C   UNL     1     -13.042  -0.227 -33.804  1.00  0.00     0.049 C 
HETATM   33  C   UNL     1     -10.664   0.366 -33.272  1.00  0.00     0.009 A 
HETATM   34  C   UNL     1      -9.658   1.282 -32.955  1.00  0.00     0.030 A 
ENDBRANCH  24  27
ENDBRANCH   1  23
TORSDOF 6
ENDMDL
MODEL 9
REMARK VINA RESULT:      -9.1      3.334      4.417
REMARK  6 active torsions:
REMARK  status: ('A' for Active; 'I' for Inactive)
REMARK    1  A    between atoms: C_6  and  N_7 
REMARK       I    between atoms: N_7  and  C_8 
REMARK    2  A    between atoms: C_8  and  C_9 
REMARK    3  A    between atoms: C_11  and  N_12 
REMARK    4  A    between atoms: N_12  and  N_13 
REMARK       I    between atoms: N_13  and  C_14 
REMARK    5  A    between atoms: C_14  and  C_15 
REMARK    6  A    between atoms: C_16  and  C_17 
ROOT
HETATM    1  C   UNL     1      -5.288   1.728 -32.744  1.00  0.00     0.151 A 
HETATM    2  N   UNL     1      -4.547   2.829 -33.091  1.00  0.00    -0.210 NA
HETATM    3  C   UNL     1      -3.448   3.076 -32.373  1.00  0.00     0.220 A 
HETATM    4  N   UNL     1      -3.031   2.294 -31.360  1.00  0.00    -0.228 NA
HETATM    5  C   UNL     1      -3.785   1.214 -31.061  1.00  0.00     0.146 A 
HETATM    6  C   UNL     1      -4.943   0.869 -31.719  1.00  0.00     0.086 A 
HETATM    7 CL   UNL     1      -5.782  -0.536 -31.208  1.00  0.00    -0.080 Cl
ENDROOT
BRANCH   3   8
HETATM    8  N   UNL     1      -2.709   4.225 -32.687  1.00  0.00    -0.169 NA
HETATM    9  H   UNL     1      -2.199   4.082 -33.560  1.00  0.00     0.156 HD
BRANCH   8  10
HETATM   10  N   UNL     1      -1.899   4.670 -31.627  1.00  0.00    -0.281 N 
HETATM   11  C   UNL     1      -0.974   5.653 -31.890  1.00  0.00     0.255 C 
HETATM   12  O   UNL     1      -0.858   6.205 -32.978  1.00  0.00    -0.267 OA
HETATM   13  H   UNL     1      -1.954   4.127 -30.768  1.00  0.00     0.184 HD
BRANCH  11  14
HETATM   14  C   UNL     1      -0.119   5.968 -30.717  1.00  0.00     0.076 C 
HETATM   15  C   UNL     1      -0.595   6.751 -29.737  1.00  0.00     0.017 C 
BRANCH  15  16
HETATM   16  C   UNL     1       0.143   7.159 -28.529  1.00  0.00    -0.036 A 
HETATM   17  C   UNL     1       1.023   8.249 -28.624  1.00  0.00     0.013 A 
HETATM   18  C   UNL     1       1.741   8.695 -27.509  1.00  0.00     0.024 A 
HETATM   19  C   UNL     1       1.579   8.056 -26.284  1.00  0.00     0.034 A 
HETATM   20 CL   UNL     1       2.462   8.598 -24.911  1.00  0.00    -0.084 Cl
HETATM   21  C   UNL     1       0.702   6.982 -26.164  1.00  0.00     0.024 A 
HETATM   22  C   UNL     1      -0.018   6.540 -27.281  1.00  0.00     0.013 A 
ENDBRANCH  15  16
ENDBRANCH  11  14
ENDBRANCH   8  10
ENDBRANCH   3   8
BRANCH   1  23
HETATM   23  C   UNL     1      -6.529   1.549 -33.583  1.00  0.00     0.276 C 
HETATM   24  N   UNL     1      -7.672   2.033 -32.965  1.00  0.00    -0.322 N 
HETATM   25  H   UNL     1      -7.516   2.447 -32.050  1.00  0.00     0.169 HD
HETATM   26  O   UNL     1      -6.480   1.025 -34.687  1.00  0.00    -0.266 OA
BRANCH  24  27
HETATM   27  C   UNL     1      -8.997   2.016 -33.444  1.00  0.00     0.035 A 
HETATM   28  C   UNL     1      -9.572   3.045 -34.190  1.00  0.00     0.037 A 
HETATM   29  C   UNL     1     -10.900   2.964 -34.649  1.00  0.00    -0.054 A 
HETATM   30  C   UNL     1     -11.678   1.837 -34.323  1.00  0.00    -0.056 A 
HETATM   31  C   UNL     1     -11.466   4.111 -35.443  1.00  0.00     0.049 C 
HETATM   32  C   UNL     1     -13.106   1.705 -34.775  1.00  0.00     0.049 C 
HETATM   33  C   UNL     1     -11.093   0.801 -33.583  1.00  0.00     0.009 A 
HETATM   34  C   UNL     1      -9.767   0.889 -33.150  1.00  0.00     0.030 A 
ENDBRANCH  24  27
ENDBRANCH   1  23
TORSDOF 6
ENDMDL
MODEL 10
REMARK VINA RESULT:      -9.0      3.014     11.851
REMARK  6 active torsions:
REMARK  status: ('A' for Active; 'I' for Inactive)
REMARK    1  A    between atoms: C_6  and  N_7 
REMARK       I    between atoms: N_7  and  C_8 
REMARK    2  A    between atoms: C_8  and  C_9 
REMARK    3  A    between atoms: C_11  and  N_12 
REMARK    4  A    between atoms: N_12  and  N_13 
REMARK       I    between atoms: N_13  and  C_14 
REMARK    5  A    between atoms: C_14  and  C_15 
REMARK    6  A    between atoms: C_16  and  C_17 
ROOT
HETATM    1  C   UNL     1      -1.814   6.336 -30.565  1.00  0.00     0.151 A 
HETATM    2  N   UNL     1      -3.122   5.926 -30.515  1.00  0.00    -0.210 NA
HETATM    3  C   UNL     1      -3.501   4.987 -31.386  1.00  0.00     0.220 A 
HETATM    4  N   UNL     1      -2.666   4.419 -32.277  1.00  0.00    -0.228 NA
HETATM    5  C   UNL     1      -1.385   4.847 -32.282  1.00  0.00     0.146 A 
HETATM    6  C   UNL     1      -0.885   5.817 -31.445  1.00  0.00     0.086 A 
HETATM    7 CL   UNL     1       0.770   6.243 -31.587  1.00  0.00    -0.080 Cl
ENDROOT
BRANCH   3   8
HETATM    8  N   UNL     1      -4.846   4.594 -31.377  1.00  0.00    -0.169 NA
HETATM    9  H   UNL     1      -5.204   4.604 -30.420  1.00  0.00     0.156 HD
BRANCH   8  10
HETATM   10  N   UNL     1      -5.074   3.381 -32.051  1.00  0.00    -0.281 N 
HETATM   11  C   UNL     1      -6.147   3.310 -32.907  1.00  0.00     0.255 C 
HETATM   12  O   UNL     1      -6.880   4.259 -33.162  1.00  0.00    -0.267 OA
HETATM   13  H   UNL     1      -4.509   2.591 -31.746  1.00  0.00     0.184 HD
BRANCH  11  14
HETATM   14  C   UNL     1      -6.335   1.953 -33.483  1.00  0.00     0.076 C 
HETATM   15  C   UNL     1      -5.512   0.956 -33.122  1.00  0.00     0.017 C 
BRANCH  15  16
HETATM   16  C   UNL     1      -5.568  -0.428 -33.623  1.00  0.00    -0.036 A 
HETATM   17  C   UNL     1      -6.791  -0.906 -34.120  1.00  0.00     0.013 A 
HETATM   18  C   UNL     1      -6.904  -2.206 -34.624  1.00  0.00     0.024 A 
HETATM   19  C   UNL     1      -5.789  -3.039 -34.641  1.00  0.00     0.034 A 
HETATM   20 CL   UNL     1      -5.925  -4.640 -35.256  1.00  0.00    -0.084 Cl
HETATM   21  C   UNL     1      -4.565  -2.581 -34.165  1.00  0.00     0.024 A 
HETATM   22  C   UNL     1      -4.453  -1.278 -33.665  1.00  0.00     0.013 A 
ENDBRANCH  15  16
ENDBRANCH  11  14
ENDBRANCH   8  10
ENDBRANCH   3   8
BRANCH   1  23
HETATM   23  C   UNL     1      -1.487   7.425 -29.572  1.00  0.00     0.276 C 
HETATM   24  N   UNL     1      -0.659   6.991 -28.548  1.00  0.00    -0.322 N 
HETATM   25  H   UNL     1      -0.380   6.016 -28.614  1.00  0.00     0.169 HD
HETATM   26  O   UNL     1      -1.932   8.556 -29.701  1.00  0.00    -0.266 OA
BRANCH  24  27
HETATM   27  C   UNL     1      -0.172   7.725 -27.449  1.00  0.00     0.035 A 
HETATM   28  C   UNL     1      -0.982   8.265 -26.449  1.00  0.00     0.037 A 
HETATM   29  C   UNL     1      -0.432   8.982 -25.369  1.00  0.00    -0.054 A 
HETATM   30  C   UNL     1       0.959   9.188 -25.311  1.00  0.00    -0.056 A 
HETATM   31  C   UNL     1      -1.359   9.547 -24.326  1.00  0.00     0.049 C 
HETATM   32  C   UNL     1       1.596   9.957 -24.187  1.00  0.00     0.049 C 
HETATM   33  C   UNL     1       1.769   8.634 -26.310  1.00  0.00     0.009 A 
HETATM   34  C   UNL     1       1.210   7.910 -27.367  1.00  0.00     0.030 A 
ENDBRANCH  24  27
ENDBRANCH   1  23
TORSDOF 6
ENDMDL
