MODEL 1
REMARK VINA RESULT:      -8.8      0.000      0.000
REMARK  9 active torsions:
REMARK  status: ('A' for Active; 'I' for Inactive)
REMARK    1  A    between atoms: C_7  and  O_8 
REMARK    2  A    between atoms: O_8  and  C_9 
REMARK    3  A    between atoms: C_9  and  C_10 
REMARK    4  A    between atoms: C_10  and  O_11 
REMARK    5  A    between atoms: C_10  and  C_12 
REMARK    6  A    between atoms: C_12  and  N_13 
REMARK    7  A    between atoms: N_18  and  C_19 
REMARK    8  A    between atoms: C_19  and  C_20 
REMARK    9  A    between atoms: C_20  and  N_21 
ROOT
HETATM    1  N   UNL     1      -5.816  -0.061 -31.716  1.00  0.00    -0.179 N 
HETATM    2  C   UNL     1      -7.012   0.605 -31.902  1.00  0.00     0.681 A 
HETATM    3  N   UNL     1      -7.530   1.493 -31.053  1.00  0.00    -0.234 N 
HETATM    4  H   UNL     1      -8.436   1.916 -31.134  1.00  0.00     0.174 HD
HETATM    5  H   UNL     1      -7.048   1.625 -30.155  1.00  0.00     0.174 HD
HETATM    6  N   UNL     1      -7.667   0.250 -33.082  1.00  0.00    -0.180 N 
HETATM    7  C   UNL     1      -6.858  -0.786 -33.640  1.00  0.00     0.079 A 
HETATM    8  C   UNL     1      -5.735  -0.970 -32.819  1.00  0.00     0.079 A 
HETATM    9  C   UNL     1      -7.066  -1.549 -34.770  1.00  0.00     0.032 A 
HETATM   10  C   UNL     1      -6.108  -2.524 -35.066  1.00  0.00     0.002 A 
HETATM   11  C   UNL     1      -4.981  -2.709 -34.242  1.00  0.00     0.002 A 
HETATM   12  C   UNL     1      -4.784  -1.925 -33.100  1.00  0.00     0.032 A 
ENDROOT
BRANCH   1  13
HETATM   13  C   UNL     1      -4.782   0.018 -30.650  1.00  0.00     0.181 C 
BRANCH  13  14
HETATM   14  C   UNL     1      -3.514   0.811 -30.992  1.00  0.00     0.161 C 
BRANCH  14  15
HETATM   15  C   UNL     1      -3.591   1.425 -32.400  1.00  0.00     0.209 C 
BRANCH  15  16
HETATM   16  O   UNL     1      -4.178   2.720 -32.229  1.00  0.00    -0.349 OA
BRANCH  16  17
HETATM   17  C   UNL     1      -3.351   3.802 -32.350  1.00  0.00     0.069 A 
HETATM   18  C   UNL     1      -3.265   4.598 -31.207  1.00  0.00     0.038 A 
HETATM   19  C   UNL     1      -2.456   5.735 -31.197  1.00  0.00     0.027 A 
HETATM   20  C   UNL     1      -1.730   6.086 -32.335  1.00  0.00     0.040 A 
HETATM   21  C   UNL     1      -1.807   5.302 -33.496  1.00  0.00    -0.038 A 
HETATM   22 CL   UNL     1      -0.753   7.507 -32.262  1.00  0.00    -0.084 Cl
HETATM   23  C   UNL     1      -1.053   5.669 -34.745  1.00  0.00     0.050 C 
HETATM   24  C   UNL     1      -2.630   4.159 -33.492  1.00  0.00     0.045 A 
ENDBRANCH  16  17
ENDBRANCH  15  16
ENDBRANCH  14  15
BRANCH  14  25
HETATM   25  O   UNL     1      -2.368  -0.064 -30.928  1.00  0.00    -0.392 OA
HETATM   26  H   UNL     1      -1.806   0.299 -30.202  1.00  0.00     0.210 HD
ENDBRANCH  14  25
ENDBRANCH  13  14
ENDBRANCH   1  13
BRANCH   6  27
HETATM   27  C   UNL     1      -8.975   0.694 -33.577  1.00  0.00     0.175 C 
BRANCH  27  28
HETATM   28  C   UNL     1     -10.152   0.005 -32.854  1.00  0.00     0.256 C 
BRANCH  28  29
HETATM   29  N   UNL     1     -11.495   0.626 -33.188  1.00  0.00    -0.066 N 
HETATM   30  H   UNL     1     -11.822   1.205 -32.401  1.00  0.00     0.280 HD
HETATM   31  C   UNL     1     -11.374   1.585 -34.392  1.00  0.00     0.261 C 
HETATM   32  C   UNL     1     -12.740   2.207 -34.698  1.00  0.00     0.195 C 
HETATM   33  O   UNL     1     -13.707   1.188 -34.966  1.00  0.00    -0.388 OA
HETATM   34  C   UNL     1     -13.901   0.325 -33.844  1.00  0.00     0.195 C 
HETATM   35  C   UNL     1     -12.598  -0.401 -33.486  1.00  0.00     0.261 C 
ENDBRANCH  28  29
ENDBRANCH  27  28
ENDBRANCH   6  27
TORSDOF 9
ENDMDL
MODEL 2
REMARK VINA RESULT:      -8.8      4.655      9.670
REMARK  9 active torsions:
REMARK  status: ('A' for Active; 'I' for Inactive)
REMARK    1  A    between atoms: C_7  and  O_8 
REMARK    2  A    between atoms: O_8  and  C_9 
REMARK    3  A    between atoms: C_9  and  C_10 
REMARK    4  A    between atoms: C_10  and  O_11 
REMARK    5  A    between atoms: C_10  and  C_12 
REMARK    6  A    between atoms: C_12  and  N_13 
REMARK    7  A    between atoms: N_18  and  C_19 
REMARK    8  A    between atoms: C_19  and  C_20 
REMARK    9  A    between atoms: C_20  and  N_21 
ROOT
HETATM    1  N   UNL     1      -3.791   4.255 -31.887  1.00  0.00    -0.179 N 
HETATM    2  C   UNL     1      -4.176   5.120 -30.881  1.00  0.00     0.681 A 
HETATM    3  N   UNL     1      -5.116   4.862 -29.972  1.00  0.00    -0.234 N 
HETATM    4  H   UNL     1      -5.464   5.514 -29.293  1.00  0.00     0.174 HD
HETATM    5  H   UNL     1      -5.654   3.994 -30.081  1.00  0.00     0.174 HD
HETATM    6  N   UNL     1      -3.490   6.336 -30.903  1.00  0.00    -0.180 N 
HETATM    7  C   UNL     1      -2.669   6.261 -32.069  1.00  0.00     0.079 A 
HETATM    8  C   UNL     1      -2.844   5.000 -32.660  1.00  0.00     0.079 A 
HETATM    9  C   UNL     1      -1.832   7.211 -32.615  1.00  0.00     0.032 A 
HETATM   10  C   UNL     1      -1.162   6.868 -33.794  1.00  0.00     0.002 A 
HETATM   11  C   UNL     1      -1.338   5.603 -34.389  1.00  0.00     0.002 A 
HETATM   12  C   UNL     1      -2.189   4.650 -33.820  1.00  0.00     0.032 A 
ENDROOT
BRANCH   1  13
HETATM   13  C   UNL     1      -4.207   2.869 -32.227  1.00  0.00     0.181 C 
BRANCH  13  14
HETATM   14  C   UNL     1      -3.887   1.788 -31.186  1.00  0.00     0.161 C 
BRANCH  14  15
HETATM   15  C   UNL     1      -3.689   0.411 -31.842  1.00  0.00     0.209 C 
BRANCH  15  16
HETATM   16  O   UNL     1      -4.469   0.435 -33.043  1.00  0.00    -0.349 OA
BRANCH  16  17
HETATM   17  C   UNL     1      -4.860  -0.770 -33.559  1.00  0.00     0.069 A 
HETATM   18  C   UNL     1      -6.125  -0.767 -34.148  1.00  0.00     0.038 A 
HETATM   19  C   UNL     1      -6.645  -1.933 -34.712  1.00  0.00     0.027 A 
HETATM   20  C   UNL     1      -5.902  -3.114 -34.684  1.00  0.00     0.040 A 
HETATM   21  C   UNL     1      -4.631  -3.139 -34.090  1.00  0.00    -0.038 A 
HETATM   22 CL   UNL     1      -6.602  -4.524 -35.390  1.00  0.00    -0.084 Cl
HETATM   23  C   UNL     1      -3.817  -4.403 -34.026  1.00  0.00     0.050 C 
HETATM   24  C   UNL     1      -4.121  -1.955 -33.524  1.00  0.00     0.045 A 
ENDBRANCH  16  17
ENDBRANCH  15  16
ENDBRANCH  14  15
BRANCH  14  25
HETATM   25  O   UNL     1      -4.969   1.700 -30.236  1.00  0.00    -0.392 OA
HETATM   26  H   UNL     1      -5.147   2.631 -29.960  1.00  0.00     0.210 HD
ENDBRANCH  14  25
ENDBRANCH  13  14
ENDBRANCH   1  13
BRANCH   6  27
HETATM   27  C   UNL     1      -3.674   7.510 -30.043  1.00  0.00     0.175 C 
BRANCH  27  28
HETATM   28  C   UNL     1      -3.242   7.255 -28.583  1.00  0.00     0.256 C 
BRANCH  28  29
HETATM   29  N   UNL     1      -1.779   6.875 -28.457  1.00  0.00    -0.066 N 
HETATM   30  H   UNL     1      -1.602   5.985 -28.945  1.00  0.00     0.280 HD
HETATM   31  C   UNL     1      -0.878   7.920 -29.150  1.00  0.00     0.261 C 
HETATM   32  C   UNL     1       0.591   7.504 -29.020  1.00  0.00     0.195 C 
HETATM   33  O   UNL     1       0.953   7.366 -27.643  1.00  0.00    -0.388 OA
HETATM   34  C   UNL     1       0.190   6.352 -26.987  1.00  0.00     0.195 C 
HETATM   35  C   UNL     1      -1.304   6.699 -27.007  1.00  0.00     0.261 C 
ENDBRANCH  28  29
ENDBRANCH  27  28
ENDBRANCH   6  27
TORSDOF 9
ENDMDL
MODEL 3
REMARK VINA RESULT:      -8.7      1.634      2.275
REMARK  9 active torsions:
REMARK  status: ('A' for Active; 'I' for Inactive)
REMARK    1  A    between atoms: C_7  and  O_8 
REMARK    2  A    between atoms: O_8  and  C_9 
REMARK    3  A    between atoms: C_9  and  C_10 
REMARK    4  A    between atoms: C_10  and  O_11 
REMARK    5  A    between atoms: C_10  and  C_12 
REMARK    6  A    between atoms: C_12  and  N_13 
REMARK    7  A    between atoms: N_18  and  C_19 
REMARK    8  A    between atoms: C_19  and  C_20 
REMARK    9  A    between atoms: C_20  and  N_21 
ROOT
HETATM    1  N   UNL     1      -7.225   0.988 -31.189  1.00  0.00    -0.179 N 
HETATM    2  C   UNL     1      -8.576   1.076 -31.466  1.00  0.00     0.681 A 
HETATM    3  N   UNL     1      -9.468   1.719 -30.714  1.00  0.00    -0.234 N 
HETATM    4  H   UNL     1     -10.462   1.716 -30.857  1.00  0.00     0.174 HD
HETATM    5  H   UNL     1      -9.143   2.101 -29.817  1.00  0.00     0.174 HD
HETATM    6  N   UNL     1      -8.948   0.400 -32.630  1.00  0.00    -0.180 N 
HETATM    7  C   UNL     1      -7.748  -0.235 -33.072  1.00  0.00     0.079 A 
HETATM    8  C   UNL     1      -6.705   0.126 -32.206  1.00  0.00     0.079 A 
HETATM    9  C   UNL     1      -7.549  -1.088 -34.137  1.00  0.00     0.032 A 
HETATM   10  C   UNL     1      -6.255  -1.588 -34.319  1.00  0.00     0.002 A 
HETATM   11  C   UNL     1      -5.207  -1.227 -33.450  1.00  0.00     0.002 A 
HETATM   12  C   UNL     1      -5.426  -0.358 -32.376  1.00  0.00     0.032 A 
ENDROOT
BRANCH   1  13
HETATM   13  C   UNL     1      -6.387   1.566 -30.105  1.00  0.00     0.181 C 
BRANCH  13  14
HETATM   14  C   UNL     1      -6.301   3.097 -30.056  1.00  0.00     0.161 C 
BRANCH  14  15
HETATM   15  C   UNL     1      -5.980   3.691 -31.438  1.00  0.00     0.209 C 
BRANCH  15  16
HETATM   16  O   UNL     1      -4.738   3.101 -31.837  1.00  0.00    -0.349 OA
BRANCH  16  17
HETATM   17  C   UNL     1      -3.750   3.948 -32.257  1.00  0.00     0.069 A 
HETATM   18  C   UNL     1      -4.034   4.633 -33.438  1.00  0.00     0.038 A 
HETATM   19  C   UNL     1      -3.109   5.529 -33.977  1.00  0.00     0.027 A 
HETATM   20  C   UNL     1      -1.888   5.740 -33.338  1.00  0.00     0.040 A 
HETATM   21  C   UNL     1      -1.580   5.057 -32.151  1.00  0.00    -0.038 A 
HETATM   22 CL   UNL     1      -0.783   6.854 -34.057  1.00  0.00    -0.084 Cl
HETATM   23  C   UNL     1      -0.261   5.248 -31.452  1.00  0.00     0.050 C 
HETATM   24  C   UNL     1      -2.523   4.155 -31.621  1.00  0.00     0.045 A 
ENDBRANCH  16  17
ENDBRANCH  15  16
ENDBRANCH  14  15
BRANCH  14  25
HETATM   25  O   UNL     1      -5.267   3.490 -29.129  1.00  0.00    -0.392 OA
HETATM   26  H   UNL     1      -4.494   3.735 -29.692  1.00  0.00     0.210 HD
ENDBRANCH  14  25
ENDBRANCH  13  14
ENDBRANCH   1  13
BRANCH   6  27
HETATM   27  C   UNL     1     -10.288   0.219 -33.199  1.00  0.00     0.175 C 
BRANCH  27  28
HETATM   28  C   UNL     1     -10.709   1.386 -34.117  1.00  0.00     0.256 C 
BRANCH  28  29
HETATM   29  N   UNL     1     -12.186   1.719 -34.012  1.00  0.00    -0.066 N 
HETATM   30  H   UNL     1     -12.533   2.075 -34.914  1.00  0.00     0.280 HD
HETATM   31  C   UNL     1     -13.015   0.450 -33.716  1.00  0.00     0.261 C 
HETATM   32  C   UNL     1     -14.501   0.812 -33.629  1.00  0.00     0.195 C 
HETATM   33  O   UNL     1     -14.719   1.800 -32.618  1.00  0.00    -0.388 OA
HETATM   34  C   UNL     1     -14.026   3.017 -32.898  1.00  0.00     0.195 C 
HETATM   35  C   UNL     1     -12.511   2.779 -32.950  1.00  0.00     0.261 C 
ENDBRANCH  28  29
ENDBRANCH  27  28
ENDBRANCH   6  27
TORSDOF 9
ENDMDL
MODEL 4
REMARK VINA RESULT:      -8.7      3.469      8.232
REMARK  9 active torsions:
REMARK  status: ('A' for Active; 'I' for Inactive)
REMARK    1  A    between atoms: C_7  and  O_8 
REMARK    2  A    between atoms: O_8  and  C_9 
REMARK    3  A    between atoms: C_9  and  C_10 
REMARK    4  A    between atoms: C_10  and  O_11 
REMARK    5  A    between atoms: C_10  and  C_12 
REMARK    6  A    between atoms: C_12  and  N_13 
REMARK    7  A    between atoms: N_18  and  C_19 
REMARK    8  A    between atoms: C_19  and  C_20 
REMARK    9  A    between atoms: C_20  and  N_21 
ROOT
HETATM    1  N   UNL     1      -7.852   2.497 -32.334  1.00  0.00    -0.179 N 
HETATM    2  C   UNL     1      -7.259   3.554 -32.996  1.00  0.00     0.681 A 
HETATM    3  N   UNL     1      -7.878   4.352 -33.866  1.00  0.00    -0.234 N 
HETATM    4  H   UNL     1      -7.438   5.065 -34.418  1.00  0.00     0.174 HD
HETATM    5  H   UNL     1      -8.841   4.108 -34.129  1.00  0.00     0.174 HD
HETATM    6  N   UNL     1      -5.908   3.717 -32.684  1.00  0.00    -0.180 N 
HETATM    7  C   UNL     1      -5.608   2.620 -31.820  1.00  0.00     0.079 A 
HETATM    8  C   UNL     1      -6.784   1.886 -31.602  1.00  0.00     0.079 A 
HETATM    9  C   UNL     1      -4.403   2.247 -31.263  1.00  0.00     0.032 A 
HETATM   10  C   UNL     1      -4.398   1.096 -30.468  1.00  0.00     0.002 A 
HETATM   11  C   UNL     1      -5.577   0.359 -30.248  1.00  0.00     0.002 A 
HETATM   12  C   UNL     1      -6.792   0.752 -30.820  1.00  0.00     0.032 A 
ENDROOT
BRANCH   1  13
HETATM   13  C   UNL     1      -9.246   1.979 -32.322  1.00  0.00     0.181 C 
BRANCH  13  14
HETATM   14  C   UNL     1      -9.649   1.084 -33.501  1.00  0.00     0.161 C 
BRANCH  14  15
HETATM   15  C   UNL     1      -8.917  -0.269 -33.461  1.00  0.00     0.209 C 
BRANCH  15  16
HETATM   16  O   UNL     1      -7.777  -0.121 -34.316  1.00  0.00    -0.349 OA
BRANCH  16  17
HETATM   17  C   UNL     1      -6.862  -1.137 -34.319  1.00  0.00     0.069 A 
HETATM   18  C   UNL     1      -5.612  -0.794 -33.802  1.00  0.00     0.038 A 
HETATM   19  C   UNL     1      -4.586  -1.739 -33.748  1.00  0.00     0.027 A 
HETATM   20  C   UNL     1      -4.804  -3.034 -34.218  1.00  0.00     0.040 A 
HETATM   21  C   UNL     1      -6.052  -3.397 -34.747  1.00  0.00    -0.038 A 
HETATM   22 CL   UNL     1      -3.495  -4.155 -34.131  1.00  0.00    -0.084 Cl
HETATM   23  C   UNL     1      -6.309  -4.780 -35.282  1.00  0.00     0.050 C 
HETATM   24  C   UNL     1      -7.077  -2.432 -34.797  1.00  0.00     0.045 A 
ENDBRANCH  16  17
ENDBRANCH  15  16
ENDBRANCH  14  15
BRANCH  14  25
HETATM   25  O   UNL     1      -9.329   1.749 -34.741  1.00  0.00    -0.392 OA
HETATM   26  H   UNL     1      -9.571   1.106 -35.450  1.00  0.00     0.210 HD
ENDBRANCH  14  25
ENDBRANCH  13  14
ENDBRANCH   1  13
BRANCH   6  27
HETATM   27  C   UNL     1      -4.947   4.679 -33.235  1.00  0.00     0.175 C 
BRANCH  27  28
HETATM   28  C   UNL     1      -4.982   6.041 -32.509  1.00  0.00     0.256 C 
BRANCH  28  29
HETATM   29  N   UNL     1      -3.601   6.625 -32.280  1.00  0.00    -0.066 N 
HETATM   30  H   UNL     1      -3.060   6.015 -31.651  1.00  0.00     0.280 HD
HETATM   31  C   UNL     1      -2.802   6.680 -33.600  1.00  0.00     0.261 C 
HETATM   32  C   UNL     1      -1.409   7.260 -33.338  1.00  0.00     0.195 C 
HETATM   33  O   UNL     1      -1.509   8.564 -32.759  1.00  0.00    -0.388 OA
HETATM   34  C   UNL     1      -2.177   8.541 -31.497  1.00  0.00     0.195 C 
HETATM   35  C   UNL     1      -3.615   8.027 -31.654  1.00  0.00     0.261 C 
ENDBRANCH  28  29
ENDBRANCH  27  28
ENDBRANCH   6  27
TORSDOF 9
ENDMDL
MODEL 5
REMARK VINA RESULT:      -8.3      3.722      7.151
REMARK  9 active torsions:
REMARK  status: ('A' for Active; 'I' for Inactive)
REMARK    1  A    between atoms: C_7  and  O_8 
REMARK    2  A    between atoms: O_8  and  C_9 
REMARK    3  A    between atoms: C_9  and  C_10 
REMARK    4  A    between atoms: C_10  and  O_11 
REMARK    5  A    between atoms: C_10  and  C_12 
REMARK    6  A    between atoms: C_12  and  N_13 
REMARK    7  A    between atoms: N_18  and  C_19 
REMARK    8  A    between atoms: C_19  and  C_20 
REMARK    9  A    between atoms: C_20  and  N_21 
ROOT
HETATM    1  N   UNL     1      -6.385   1.688 -30.761  1.00  0.00    -0.179 N 
HETATM    2  C   UNL     1      -6.228   2.954 -30.229  1.00  0.00     0.681 A 
HETATM    3  N   UNL     1      -5.206   3.338 -29.466  1.00  0.00    -0.234 N 
HETATM    4  H   UNL     1      -5.126   4.225 -29.002  1.00  0.00     0.174 HD
HETATM    5  H   UNL     1      -4.532   2.617 -29.180  1.00  0.00     0.174 HD
HETATM    6  N   UNL     1      -7.272   3.824 -30.551  1.00  0.00    -0.180 N 
HETATM    7  C   UNL     1      -8.200   3.014 -31.273  1.00  0.00     0.079 A 
HETATM    8  C   UNL     1      -7.662   1.726 -31.407  1.00  0.00     0.079 A 
HETATM    9  C   UNL     1      -9.444   3.340 -31.774  1.00  0.00     0.032 A 
HETATM   10  C   UNL     1     -10.154   2.325 -32.423  1.00  0.00     0.002 A 
HETATM   11  C   UNL     1      -9.615   1.031 -32.558  1.00  0.00     0.002 A 
HETATM   12  C   UNL     1      -8.351   0.718 -32.046  1.00  0.00     0.032 A 
ENDROOT
BRANCH   1  13
HETATM   13  C   UNL     1      -5.530   0.472 -30.718  1.00  0.00     0.181 C 
BRANCH  13  14
HETATM   14  C   UNL     1      -4.059   0.661 -31.112  1.00  0.00     0.161 C 
BRANCH  14  15
HETATM   15  C   UNL     1      -3.878   0.665 -32.639  1.00  0.00     0.209 C 
BRANCH  15  16
HETATM   16  O   UNL     1      -5.157   0.320 -33.184  1.00  0.00    -0.349 OA
BRANCH  16  17
HETATM   17  C   UNL     1      -5.299  -0.941 -33.693  1.00  0.00     0.069 A 
HETATM   18  C   UNL     1      -6.496  -1.161 -34.376  1.00  0.00     0.038 A 
HETATM   19  C   UNL     1      -6.768  -2.406 -34.943  1.00  0.00     0.027 A 
HETATM   20  C   UNL     1      -5.845  -3.445 -34.825  1.00  0.00     0.040 A 
HETATM   21  C   UNL     1      -4.638  -3.247 -34.136  1.00  0.00    -0.038 A 
HETATM   22 CL   UNL     1      -6.242  -4.964 -35.540  1.00  0.00    -0.084 Cl
HETATM   23  C   UNL     1      -3.633  -4.354 -33.973  1.00  0.00     0.050 C 
HETATM   24  C   UNL     1      -4.378  -1.984 -33.568  1.00  0.00     0.045 A 
ENDBRANCH  16  17
ENDBRANCH  15  16
ENDBRANCH  14  15
BRANCH  14  25
HETATM   25  O   UNL     1      -3.271  -0.411 -30.552  1.00  0.00    -0.392 OA
HETATM   26  H   UNL     1      -3.648  -0.567 -29.653  1.00  0.00     0.210 HD
ENDBRANCH  14  25
ENDBRANCH  13  14
ENDBRANCH   1  13
BRANCH   6  27
HETATM   27  C   UNL     1      -7.481   5.209 -30.116  1.00  0.00     0.175 C 
BRANCH  27  28
HETATM   28  C   UNL     1      -7.033   6.241 -31.173  1.00  0.00     0.256 C 
BRANCH  28  29
HETATM   29  N   UNL     1      -5.848   5.769 -31.994  1.00  0.00    -0.066 N 
HETATM   30  H   UNL     1      -5.483   4.885 -31.612  1.00  0.00     0.280 HD
HETATM   31  C   UNL     1      -6.274   5.455 -33.444  1.00  0.00     0.261 C 
HETATM   32  C   UNL     1      -5.063   4.968 -34.246  1.00  0.00     0.195 C 
HETATM   33  O   UNL     1      -4.023   5.951 -34.232  1.00  0.00    -0.388 OA
HETATM   34  C   UNL     1      -3.551   6.212 -32.910  1.00  0.00     0.195 C 
HETATM   35  C   UNL     1      -4.679   6.765 -32.029  1.00  0.00     0.261 C 
ENDBRANCH  28  29
ENDBRANCH  27  28
ENDBRANCH   6  27
TORSDOF 9
ENDMDL
MODEL 6
REMARK VINA RESULT:      -8.1      2.338      3.682
REMARK  9 active torsions:
REMARK  status: ('A' for Active; 'I' for Inactive)
REMARK    1  A    between atoms: C_7  and  O_8 
REMARK    2  A    between atoms: O_8  and  C_9 
REMARK    3  A    between atoms: C_9  and  C_10 
REMARK    4  A    between atoms: C_10  and  O_11 
REMARK    5  A    between atoms: C_10  and  C_12 
REMARK    6  A    between atoms: C_12  and  N_13 
REMARK    7  A    between atoms: N_18  and  C_19 
REMARK    8  A    between atoms: C_19  and  C_20 
REMARK    9  A    between atoms: C_20  and  N_21 
ROOT
HETATM    1  N   UNL     1      -5.146   3.316 -32.630  1.00  0.00    -0.179 N 
HETATM    2  C   UNL     1      -6.503   3.181 -32.851  1.00  0.00     0.681 A 
HETATM    3  N   UNL     1      -7.336   4.186 -33.122  1.00  0.00    -0.234 N 
HETATM    4  H   UNL     1      -8.334   4.112 -33.197  1.00  0.00     0.174 HD
HETATM    5  H   UNL     1      -6.956   5.140 -33.075  1.00  0.00     0.174 HD
HETATM    6  N   UNL     1      -6.953   1.863 -32.749  1.00  0.00    -0.180 N 
HETATM    7  C   UNL     1      -5.799   1.124 -32.347  1.00  0.00     0.079 A 
HETATM    8  C   UNL     1      -4.705   2.000 -32.282  1.00  0.00     0.079 A 
HETATM    9  C   UNL     1      -5.681  -0.214 -32.032  1.00  0.00     0.032 A 
HETATM   10  C   UNL     1      -4.417  -0.666 -31.638  1.00  0.00     0.002 A 
HETATM   11  C   UNL     1      -3.318   0.212 -31.573  1.00  0.00     0.002 A 
HETATM   12  C   UNL     1      -3.455   1.566 -31.897  1.00  0.00     0.032 A 
ENDROOT
BRANCH   1  13
HETATM   13  C   UNL     1      -4.239   4.493 -32.671  1.00  0.00     0.181 C 
BRANCH  13  14
HETATM   14  C   UNL     1      -3.733   4.914 -34.057  1.00  0.00     0.161 C 
BRANCH  14  15
HETATM   15  C   UNL     1      -2.815   6.145 -33.975  1.00  0.00     0.209 C 
BRANCH  15  16
HETATM   16  O   UNL     1      -1.508   5.638 -33.680  1.00  0.00    -0.349 OA
BRANCH  16  17
HETATM   17  C   UNL     1      -0.958   5.987 -32.478  1.00  0.00     0.069 A 
HETATM   18  C   UNL     1      -1.151   7.321 -32.117  1.00  0.00     0.038 A 
HETATM   19  C   UNL     1      -0.639   7.809 -30.913  1.00  0.00     0.027 A 
HETATM   20  C   UNL     1       0.075   6.963 -30.064  1.00  0.00     0.040 A 
HETATM   21  C   UNL     1       0.285   5.620 -30.412  1.00  0.00    -0.038 A 
HETATM   22 CL   UNL     1       0.690   7.627 -28.594  1.00  0.00    -0.084 Cl
HETATM   23  C   UNL     1       1.071   4.691 -29.528  1.00  0.00     0.050 C 
HETATM   24  C   UNL     1      -0.236   5.144 -31.631  1.00  0.00     0.045 A 
ENDBRANCH  16  17
ENDBRANCH  15  16
ENDBRANCH  14  15
BRANCH  14  25
HETATM   25  O   UNL     1      -4.858   5.228 -34.904  1.00  0.00    -0.392 OA
HETATM   26  H   UNL     1      -4.806   6.203 -35.052  1.00  0.00     0.210 HD
ENDBRANCH  14  25
ENDBRANCH  13  14
ENDBRANCH   1  13
BRANCH   6  27
HETATM   27  C   UNL     1      -8.323   1.349 -32.853  1.00  0.00     0.175 C 
BRANCH  27  28
HETATM   28  C   UNL     1      -8.751   1.082 -34.312  1.00  0.00     0.256 C 
BRANCH  28  29
HETATM   29  N   UNL     1     -10.195   1.458 -34.583  1.00  0.00    -0.066 N 
HETATM   30  H   UNL     1     -10.492   1.085 -35.496  1.00  0.00     0.280 HD
HETATM   31  C   UNL     1     -11.136   0.814 -33.541  1.00  0.00     0.261 C 
HETATM   32  C   UNL     1     -12.587   1.200 -33.847  1.00  0.00     0.195 C 
HETATM   33  O   UNL     1     -12.740   2.622 -33.847  1.00  0.00    -0.388 OA
HETATM   34  C   UNL     1     -11.939   3.247 -34.851  1.00  0.00     0.195 C 
HETATM   35  C   UNL     1     -10.450   2.973 -34.606  1.00  0.00     0.261 C 
ENDBRANCH  28  29
ENDBRANCH  27  28
ENDBRANCH   6  27
TORSDOF 9
ENDMDL
MODEL 7
REMARK VINA RESULT:      -8.1      3.815      8.911
REMARK  9 active torsions:
REMARK  status: ('A' for Active; 'I' for Inactive)
REMARK    1  A    between atoms: C_7  and  O_8 
REMARK    2  A    between atoms: O_8  and  C_9 
REMARK    3  A    between atoms: C_9  and  C_10 
REMARK    4  A    between atoms: C_10  and  O_11 
REMARK    5  A    between atoms: C_10  and  C_12 
REMARK    6  A    between atoms: C_12  and  N_13 
REMARK    7  A    between atoms: N_18  and  C_19 
REMARK    8  A    between atoms: C_19  and  C_20 
REMARK    9  A    between atoms: C_20  and  N_21 
ROOT
HETATM    1  N   UNL     1      -7.794   0.236 -32.453  1.00  0.00    -0.179 N 
HETATM    2  C   UNL     1      -7.000   1.000 -31.620  1.00  0.00     0.681 A 
HETATM    3  N   UNL     1      -7.420   2.054 -30.921  1.00  0.00    -0.234 N 
HETATM    4  H   UNL     1      -6.835   2.668 -30.384  1.00  0.00     0.174 HD
HETATM    5  H   UNL     1      -8.383   2.374 -31.081  1.00  0.00     0.174 HD
HETATM    6  N   UNL     1      -5.670   0.577 -31.582  1.00  0.00    -0.180 N 
HETATM    7  C   UNL     1      -5.607  -0.487 -32.532  1.00  0.00     0.079 A 
HETATM    8  C   UNL     1      -6.892  -0.698 -33.054  1.00  0.00     0.079 A 
HETATM    9  C   UNL     1      -4.520  -1.225 -32.952  1.00  0.00     0.032 A 
HETATM   10  C   UNL     1      -4.751  -2.199 -33.929  1.00  0.00     0.002 A 
HETATM   11  C   UNL     1      -6.041  -2.412 -34.453  1.00  0.00     0.002 A 
HETATM   12  C   UNL     1      -7.133  -1.655 -34.015  1.00  0.00     0.032 A 
ENDROOT
BRANCH   1  13
HETATM   13  C   UNL     1      -9.246   0.287 -32.773  1.00  0.00     0.181 C 
BRANCH  13  14
HETATM   14  C   UNL     1      -9.681   1.349 -33.792  1.00  0.00     0.161 C 
BRANCH  14  15
HETATM   15  C   UNL     1     -11.212   1.426 -33.910  1.00  0.00     0.209 C 
BRANCH  15  16
HETATM   16  O   UNL     1     -11.601   2.599 -33.186  1.00  0.00    -0.349 OA
BRANCH  16  17
HETATM   17  C   UNL     1     -12.922   2.718 -32.853  1.00  0.00     0.069 A 
HETATM   18  C   UNL     1     -13.703   1.606 -33.166  1.00  0.00     0.038 A 
HETATM   19  C   UNL     1     -15.069   1.597 -32.880  1.00  0.00     0.027 A 
HETATM   20  C   UNL     1     -15.664   2.709 -32.283  1.00  0.00     0.040 A 
HETATM   21  C   UNL     1     -14.897   3.840 -31.966  1.00  0.00    -0.038 A 
HETATM   22 CL   UNL     1     -17.359   2.641 -31.962  1.00  0.00    -0.084 Cl
HETATM   23  C   UNL     1     -15.516   5.061 -31.342  1.00  0.00     0.050 C 
HETATM   24  C   UNL     1     -13.520   3.834 -32.262  1.00  0.00     0.045 A 
ENDBRANCH  16  17
ENDBRANCH  15  16
ENDBRANCH  14  15
BRANCH  14  25
HETATM   25  O   UNL     1      -9.129   1.027 -35.086  1.00  0.00    -0.392 OA
HETATM   26  H   UNL     1      -9.127   1.879 -35.585  1.00  0.00     0.210 HD
ENDBRANCH  14  25
ENDBRANCH  13  14
ENDBRANCH   1  13
BRANCH   6  27
HETATM   27  C   UNL     1      -4.535   1.176 -30.870  1.00  0.00     0.175 C 
BRANCH  27  28
HETATM   28  C   UNL     1      -3.722   2.146 -31.754  1.00  0.00     0.256 C 
BRANCH  28  29
HETATM   29  N   UNL     1      -3.488   3.492 -31.093  1.00  0.00    -0.066 N 
HETATM   30  H   UNL     1      -3.202   3.359 -30.112  1.00  0.00     0.280 HD
HETATM   31  C   UNL     1      -2.321   4.242 -31.771  1.00  0.00     0.261 C 
HETATM   32  C   UNL     1      -2.098   5.589 -31.075  1.00  0.00     0.195 C 
HETATM   33  O   UNL     1      -3.291   6.378 -31.115  1.00  0.00    -0.388 OA
HETATM   34  C   UNL     1      -4.374   5.747 -30.430  1.00  0.00     0.195 C 
HETATM   35  C   UNL     1      -4.723   4.405 -31.086  1.00  0.00     0.261 C 
ENDBRANCH  28  29
ENDBRANCH  27  28
ENDBRANCH   6  27
TORSDOF 9
ENDMDL
MODEL 8
REMARK VINA RESULT:      -8.1      4.529      9.733
REMARK  9 active torsions:
REMARK  status: ('A' for Active; 'I' for Inactive)
REMARK    1  A    between atoms: C_7  and  O_8 
REMARK    2  A    between atoms: O_8  and  C_9 
REMARK    3  A    between atoms: C_9  and  C_10 
REMARK    4  A    between atoms: C_10  and  O_11 
REMARK    5  A    between atoms: C_10  and  C_12 
REMARK    6  A    between atoms: C_12  and  N_13 
REMARK    7  A    between atoms: N_18  and  C_19 
REMARK    8  A    between atoms: C_19  and  C_20 
REMARK    9  A    between atoms: C_20  and  N_21 
ROOT
HETATM    1  N   UNL     1      -3.592   4.520 -31.551  1.00  0.00    -0.179 N 
HETATM    2  C   UNL     1      -3.743   5.557 -30.652  1.00  0.00     0.681 A 
HETATM    3  N   UNL     1      -4.540   5.531 -29.584  1.00  0.00    -0.234 N 
HETATM    4  H   UNL     1      -4.725   6.307 -28.976  1.00  0.00     0.174 HD
HETATM    5  H   UNL     1      -5.153   4.713 -29.472  1.00  0.00     0.174 HD
HETATM    6  N   UNL     1      -2.980   6.683 -30.970  1.00  0.00    -0.180 N 
HETATM    7  C   UNL     1      -2.365   6.355 -32.217  1.00  0.00     0.079 A 
HETATM    8  C   UNL     1      -2.729   5.045 -32.565  1.00  0.00     0.079 A 
HETATM    9  C   UNL     1      -1.559   7.127 -33.026  1.00  0.00     0.032 A 
HETATM   10  C   UNL     1      -1.116   6.549 -34.221  1.00  0.00     0.002 A 
HETATM   11  C   UNL     1      -1.480   5.235 -34.572  1.00  0.00     0.002 A 
HETATM   12  C   UNL     1      -2.298   4.464 -33.738  1.00  0.00     0.032 A 
ENDROOT
BRANCH   1  13
HETATM   13  C   UNL     1      -4.160   3.147 -31.599  1.00  0.00     0.181 C 
BRANCH  13  14
HETATM   14  C   UNL     1      -5.586   3.020 -32.152  1.00  0.00     0.161 C 
BRANCH  14  15
HETATM   15  C   UNL     1      -6.143   1.599 -31.961  1.00  0.00     0.209 C 
BRANCH  15  16
HETATM   16  O   UNL     1      -6.300   1.060 -33.278  1.00  0.00    -0.349 OA
BRANCH  16  17
HETATM   17  C   UNL     1      -5.810  -0.197 -33.502  1.00  0.00     0.069 A 
HETATM   18  C   UNL     1      -4.497  -0.394 -33.073  1.00  0.00     0.038 A 
HETATM   19  C   UNL     1      -3.876  -1.632 -33.242  1.00  0.00     0.027 A 
HETATM   20  C   UNL     1      -4.565  -2.682 -33.850  1.00  0.00     0.040 A 
HETATM   21  C   UNL     1      -5.884  -2.502 -34.294  1.00  0.00    -0.038 A 
HETATM   22 CL   UNL     1      -3.741  -4.186 -34.038  1.00  0.00    -0.084 Cl
HETATM   23  C   UNL     1      -6.644  -3.609 -34.972  1.00  0.00     0.050 C 
HETATM   24  C   UNL     1      -6.496  -1.246 -34.117  1.00  0.00     0.045 A 
ENDBRANCH  16  17
ENDBRANCH  15  16
ENDBRANCH  14  15
BRANCH  14  25
HETATM   25  O   UNL     1      -5.584   3.333 -33.561  1.00  0.00    -0.392 OA
HETATM   26  H   UNL     1      -4.637   3.499 -33.788  1.00  0.00     0.210 HD
ENDBRANCH  14  25
ENDBRANCH  13  14
ENDBRANCH   1  13
BRANCH   6  27
HETATM   27  C   UNL     1      -2.933   7.983 -30.293  1.00  0.00     0.175 C 
BRANCH  27  28
HETATM   28  C   UNL     1      -1.745   8.105 -29.315  1.00  0.00     0.256 C 
BRANCH  28  29
HETATM   29  N   UNL     1      -2.178   8.410 -27.893  1.00  0.00    -0.066 N 
HETATM   30  H   UNL     1      -3.155   8.738 -27.884  1.00  0.00     0.280 HD
HETATM   31  C   UNL     1      -2.157   7.133 -27.026  1.00  0.00     0.261 C 
HETATM   32  C   UNL     1      -2.611   7.467 -25.602  1.00  0.00     0.195 C 
HETATM   33  O   UNL     1      -1.772   8.475 -25.030  1.00  0.00    -0.388 OA
HETATM   34  C   UNL     1      -1.825   9.698 -25.766  1.00  0.00     0.195 C 
HETATM   35  C   UNL     1      -1.331   9.489 -27.203  1.00  0.00     0.261 C 
ENDBRANCH  28  29
ENDBRANCH  27  28
ENDBRANCH   6  27
TORSDOF 9
ENDMDL
MODEL 9
REMARK VINA RESULT:      -8.0      3.656      6.423
REMARK  9 active torsions:
REMARK  status: ('A' for Active; 'I' for Inactive)
REMARK    1  A    between atoms: C_7  and  O_8 
REMARK    2  A    between atoms: O_8  and  C_9 
REMARK    3  A    between atoms: C_9  and  C_10 
REMARK    4  A    between atoms: C_10  and  O_11 
REMARK    5  A    between atoms: C_10  and  C_12 
REMARK    6  A    between atoms: C_12  and  N_13 
REMARK    7  A    between atoms: N_18  and  C_19 
REMARK    8  A    between atoms: C_19  and  C_20 
REMARK    9  A    between atoms: C_20  and  N_21 
ROOT
HETATM    1  N   UNL     1      -5.584   3.862 -31.454  1.00  0.00    -0.179 N 
HETATM    2  C   UNL     1      -6.528   3.931 -32.460  1.00  0.00     0.681 A 
HETATM    3  N   UNL     1      -6.353   3.481 -33.702  1.00  0.00    -0.234 N 
HETATM    4  H   UNL     1      -6.995   3.605 -34.463  1.00  0.00     0.174 HD
HETATM    5  H   UNL     1      -5.417   3.138 -33.953  1.00  0.00     0.174 HD
HETATM    6  N   UNL     1      -7.717   4.548 -32.064  1.00  0.00    -0.180 N 
HETATM    7  C   UNL     1      -7.466   4.976 -30.725  1.00  0.00     0.079 A 
HETATM    8  C   UNL     1      -6.181   4.555 -30.353  1.00  0.00     0.079 A 
HETATM    9  C   UNL     1      -8.272   5.700 -29.871  1.00  0.00     0.032 A 
HETATM   10  C   UNL     1      -7.750   6.004 -28.609  1.00  0.00     0.002 A 
HETATM   11  C   UNL     1      -6.460   5.582 -28.234  1.00  0.00     0.002 A 
HETATM   12  C   UNL     1      -5.657   4.847 -29.112  1.00  0.00     0.032 A 
ENDROOT
BRANCH   1  13
HETATM   13  C   UNL     1      -4.220   3.272 -31.401  1.00  0.00     0.181 C 
BRANCH  13  14
HETATM   14  C   UNL     1      -4.140   1.768 -31.111  1.00  0.00     0.161 C 
BRANCH  14  15
HETATM   15  C   UNL     1      -3.784   0.966 -32.374  1.00  0.00     0.209 C 
BRANCH  15  16
HETATM   16  O   UNL     1      -5.016   0.784 -33.081  1.00  0.00    -0.349 OA
BRANCH  16  17
HETATM   17  C   UNL     1      -5.274  -0.464 -33.576  1.00  0.00     0.069 A 
HETATM   18  C   UNL     1      -6.527  -0.604 -34.173  1.00  0.00     0.038 A 
HETATM   19  C   UNL     1      -6.918  -1.828 -34.718  1.00  0.00     0.027 A 
HETATM   20  C   UNL     1      -6.057  -2.924 -34.663  1.00  0.00     0.040 A 
HETATM   21  C   UNL     1      -4.794  -2.806 -34.061  1.00  0.00    -0.038 A 
HETATM   22 CL   UNL     1      -6.600  -4.413 -35.346  1.00  0.00    -0.084 Cl
HETATM   23  C   UNL     1      -3.854  -3.976 -33.967  1.00  0.00     0.050 C 
HETATM   24  C   UNL     1      -4.415  -1.564 -33.514  1.00  0.00     0.045 A 
ENDBRANCH  16  17
ENDBRANCH  15  16
ENDBRANCH  14  15
BRANCH  14  25
HETATM   25  O   UNL     1      -5.413   1.307 -30.610  1.00  0.00    -0.392 OA
HETATM   26  H   UNL     1      -5.337   1.358 -29.627  1.00  0.00     0.210 HD
ENDBRANCH  14  25
ENDBRANCH  13  14
ENDBRANCH   1  13
BRANCH   6  27
HETATM   27  C   UNL     1      -8.904   4.857 -32.868  1.00  0.00     0.175 C 
BRANCH  27  28
HETATM   28  C   UNL     1     -10.168   4.121 -32.374  1.00  0.00     0.256 C 
BRANCH  28  29
HETATM   29  N   UNL     1     -10.413   2.812 -33.100  1.00  0.00    -0.066 N 
HETATM   30  H   UNL     1      -9.989   2.845 -34.038  1.00  0.00     0.280 HD
HETATM   31  C   UNL     1      -9.723   1.640 -32.369  1.00  0.00     0.261 C 
HETATM   32  C   UNL     1      -9.974   0.335 -33.131  1.00  0.00     0.195 C 
HETATM   33  O   UNL     1     -11.378   0.090 -33.257  1.00  0.00    -0.388 OA
HETATM   34  C   UNL     1     -12.038   1.119 -33.995  1.00  0.00     0.195 C 
HETATM   35  C   UNL     1     -11.899   2.471 -33.284  1.00  0.00     0.261 C 
ENDBRANCH  28  29
ENDBRANCH  27  28
ENDBRANCH   6  27
TORSDOF 9
ENDMDL
MODEL 10
REMARK VINA RESULT:      -8.0      3.863      9.106
REMARK  9 active torsions:
REMARK  status: ('A' for Active; 'I' for Inactive)
REMARK    1  A    between atoms: C_7  and  O_8 
REMARK    2  A    between atoms: O_8  and  C_9 
REMARK    3  A    between atoms: C_9  and  C_10 
REMARK    4  A    between atoms: C_10  and  O_11 
REMARK    5  A    between atoms: C_10  and  C_12 
REMARK    6  A    between atoms: C_12  and  N_13 
REMARK    7  A    between atoms: N_18  and  C_19 
REMARK    8  A    between atoms: C_19  and  C_20 
REMARK    9  A    between atoms: C_20  and  N_21 
ROOT
HETATM    1  N   UNL     1      -7.244   1.250 -31.648  1.00  0.00    -0.179 N 
HETATM    2  C   UNL     1      -6.665   2.474 -31.376  1.00  0.00     0.681 A 
HETATM    3  N   UNL     1      -7.325   3.551 -30.950  1.00  0.00    -0.234 N 
HETATM    4  H   UNL     1      -6.932   4.467 -30.834  1.00  0.00     0.174 HD
HETATM    5  H   UNL     1      -8.350   3.491 -30.906  1.00  0.00     0.174 HD
HETATM    6  N   UNL     1      -5.288   2.501 -31.606  1.00  0.00    -0.180 N 
HETATM    7  C   UNL     1      -4.994   1.213 -32.148  1.00  0.00     0.079 A 
HETATM    8  C   UNL     1      -6.173   0.454 -32.167  1.00  0.00     0.079 A 
HETATM    9  C   UNL     1      -3.798   0.713 -32.620  1.00  0.00     0.032 A 
HETATM   10  C   UNL     1      -3.808  -0.591 -33.126  1.00  0.00     0.002 A 
HETATM   11  C   UNL     1      -4.992  -1.354 -33.145  1.00  0.00     0.002 A 
HETATM   12  C   UNL     1      -6.196  -0.832 -32.661  1.00  0.00     0.032 A 
ENDROOT
BRANCH   1  13
HETATM   13  C   UNL     1      -8.639   0.751 -31.518  1.00  0.00     0.181 C 
BRANCH  13  14
HETATM   14  C   UNL     1      -9.414   0.551 -32.827  1.00  0.00     0.161 C 
BRANCH  14  15
HETATM   15  C   UNL     1     -10.117   1.845 -33.272  1.00  0.00     0.209 C 
BRANCH  15  16
HETATM   16  O   UNL     1     -11.241   1.428 -34.056  1.00  0.00    -0.349 OA
BRANCH  16  17
HETATM   17  C   UNL     1     -12.484   1.741 -33.582  1.00  0.00     0.069 A 
HETATM   18  C   UNL     1     -13.500   0.882 -34.002  1.00  0.00     0.038 A 
HETATM   19  C   UNL     1     -14.818   1.090 -33.591  1.00  0.00     0.027 A 
HETATM   20  C   UNL     1     -15.128   2.166 -32.759  1.00  0.00     0.040 A 
HETATM   21  C   UNL     1     -14.122   3.045 -32.330  1.00  0.00    -0.038 A 
HETATM   22 CL   UNL     1     -16.776   2.374 -32.291  1.00  0.00    -0.084 Cl
HETATM   23  C   UNL     1     -14.431   4.226 -31.451  1.00  0.00     0.050 C 
HETATM   24  C   UNL     1     -12.798   2.823 -32.755  1.00  0.00     0.045 A 
ENDBRANCH  16  17
ENDBRANCH  15  16
ENDBRANCH  14  15
BRANCH  14  25
HETATM   25  O   UNL     1     -10.408  -0.479 -32.643  1.00  0.00    -0.392 OA
HETATM   26  H   UNL     1      -9.920  -1.331 -32.750  1.00  0.00     0.210 HD
ENDBRANCH  14  25
ENDBRANCH  13  14
ENDBRANCH   1  13
BRANCH   6  27
HETATM   27  C   UNL     1      -4.359   3.630 -31.493  1.00  0.00     0.175 C 
BRANCH  27  28
HETATM   28  C   UNL     1      -4.390   4.555 -32.729  1.00  0.00     0.256 C 
BRANCH  28  29
HETATM   29  N   UNL     1      -3.085   5.297 -32.945  1.00  0.00    -0.066 N 
HETATM   30  H   UNL     1      -2.355   4.915 -32.326  1.00  0.00     0.280 HD
HETATM   31  C   UNL     1      -2.565   5.090 -34.384  1.00  0.00     0.261 C 
HETATM   32  C   UNL     1      -1.241   5.838 -34.569  1.00  0.00     0.195 C 
HETATM   33  O   UNL     1      -1.409   7.231 -34.293  1.00  0.00    -0.388 OA
HETATM   34  C   UNL     1      -1.817   7.466 -32.945  1.00  0.00     0.195 C 
HETATM   35  C   UNL     1      -3.173   6.805 -32.665  1.00  0.00     0.261 C 
ENDBRANCH  28  29
ENDBRANCH  27  28
ENDBRANCH   6  27
TORSDOF 9
ENDMDL
