MODEL 1
REMARK VINA RESULT:      -8.5      0.000      0.000
REMARK  8 active torsions:
REMARK  status: ('A' for Active; 'I' for Inactive)
REMARK    1  A    between atoms: C_2  and  C_3 
REMARK    2  A    between atoms: C_3  and  N_4 
REMARK    3  A    between atoms: N_4  and  C_6 
REMARK    4  A    between atoms: N_4  and  C_23 
REMARK    5  A    between atoms: C_6  and  C_7 
REMARK       I    between atoms: C_7  and  N_8 
REMARK    6  A    between atoms: N_8  and  C_9 
REMARK    7  A    between atoms: C_23  and  C_24 
REMARK       I    between atoms: C_24  and  N_25 
REMARK    8  A    between atoms: N_25  and  C_26 
ROOT
HETATM    1  N   UNL     1      -6.514   2.820 -30.945  1.00  0.00    -0.055 N 
HETATM    2  H   UNL     1      -7.077   2.424 -31.715  1.00  0.00     0.281 HD
ENDROOT
BRANCH   1   3
HETATM    3  C   UNL     1      -7.456   3.083 -29.791  1.00  0.00     0.235 C 
BRANCH   3   4
HETATM    4  C   UNL     1      -8.899   3.320 -30.234  1.00  0.00     0.023 C 
HETATM    5  C   UNL     1      -9.311   4.784 -30.244  1.00  0.00     0.007 C 
ENDBRANCH   3   4
ENDBRANCH   1   3
BRANCH   1   6
HETATM    6  C   UNL     1      -5.804   4.083 -31.481  1.00  0.00     0.338 C 
BRANCH   6   7
HETATM    7  C   UNL     1      -5.336   3.931 -32.941  1.00  0.00     0.249 C 
HETATM    8  N   UNL     1      -6.175   3.632 -33.961  1.00  0.00    -0.304 N 
HETATM    9  H   UNL     1      -5.779   3.650 -34.894  1.00  0.00     0.171 HD
HETATM   10  O   UNL     1      -4.153   4.169 -33.221  1.00  0.00    -0.271 OA
BRANCH   8  11
HETATM   11  C   UNL     1      -7.468   3.221 -33.860  1.00  0.00     0.174 A 
HETATM   12  S   UNL     1      -8.603   4.477 -33.982  1.00  0.00    -0.050 SA
HETATM   13  C   UNL     1      -9.872   3.329 -33.792  1.00  0.00     0.040 A 
HETATM   14  C   UNL     1      -9.313   2.051 -33.677  1.00  0.00     0.079 A 
HETATM   15  C   UNL     1     -11.258   3.547 -33.756  1.00  0.00     0.061 A 
HETATM   16  N   UNL     1      -7.921   2.010 -33.690  1.00  0.00    -0.223 NA
HETATM   17  C   UNL     1     -10.177   0.943 -33.564  1.00  0.00     0.072 A 
HETATM   18  C   UNL     1     -11.560   1.147 -33.564  1.00  0.00     0.104 A 
HETATM   19  C   UNL     1     -12.090   2.436 -33.625  1.00  0.00     0.103 A 
HETATM   20  O   UNL     1     -12.342   0.021 -33.497  1.00  0.00    -0.346 OA
HETATM   21  O   UNL     1     -13.437   2.698 -33.582  1.00  0.00    -0.346 OA
HETATM   22  C   UNL     1     -14.188   1.555 -33.155  1.00  0.00     0.202 C 
HETATM   23  C   UNL     1     -13.699   0.303 -33.864  1.00  0.00     0.202 C 
ENDBRANCH   8  11
ENDBRANCH   6   7
ENDBRANCH   1   6
BRANCH   1  24
HETATM   24  C   UNL     1      -5.519   1.692 -30.606  1.00  0.00     0.338 C 
BRANCH  24  25
HETATM   25  C   UNL     1      -5.973   0.350 -31.190  1.00  0.00     0.248 C 
HETATM   26  N   UNL     1      -5.530   0.130 -32.477  1.00  0.00    -0.323 N 
HETATM   27  H   UNL     1      -4.962   0.844 -32.932  1.00  0.00     0.169 HD
HETATM   28  O   UNL     1      -6.623  -0.416 -30.482  1.00  0.00    -0.271 OA
BRANCH  26  29
HETATM   29  C   UNL     1      -5.720  -1.024 -33.273  1.00  0.00     0.077 A 
HETATM   30  C   UNL     1      -4.592  -1.835 -33.479  1.00  0.00     0.184 A 
HETATM   31  F   UNL     1      -3.427  -1.474 -32.914  1.00  0.00    -0.200 F 
HETATM   32  C   UNL     1      -4.665  -2.998 -34.233  1.00  0.00     0.195 A 
HETATM   33  F   UNL     1      -3.576  -3.760 -34.400  1.00  0.00    -0.199 F 
HETATM   34  C   UNL     1      -5.874  -3.363 -34.801  1.00  0.00     0.158 A 
HETATM   35  F   UNL     1      -5.966  -4.481 -35.532  1.00  0.00    -0.203 F 
HETATM   36  C   UNL     1      -7.007  -2.572 -34.618  1.00  0.00     0.048 A 
HETATM   37  C   UNL     1      -6.933  -1.401 -33.851  1.00  0.00     0.036 A 
ENDBRANCH  26  29
ENDBRANCH  24  25
ENDBRANCH   1  24
TORSDOF 8
ENDMDL
MODEL 2
REMARK VINA RESULT:      -8.4      3.034      6.769
REMARK  8 active torsions:
REMARK  status: ('A' for Active; 'I' for Inactive)
REMARK    1  A    between atoms: C_2  and  C_3 
REMARK    2  A    between atoms: C_3  and  N_4 
REMARK    3  A    between atoms: N_4  and  C_6 
REMARK    4  A    between atoms: N_4  and  C_23 
REMARK    5  A    between atoms: C_6  and  C_7 
REMARK       I    between atoms: C_7  and  N_8 
REMARK    6  A    between atoms: N_8  and  C_9 
REMARK    7  A    between atoms: C_23  and  C_24 
REMARK       I    between atoms: C_24  and  N_25 
REMARK    8  A    between atoms: N_25  and  C_26 
ROOT
HETATM    1  N   UNL     1      -7.514   2.136 -32.514  1.00  0.00    -0.055 N 
HETATM    2  H   UNL     1      -7.604   1.951 -33.526  1.00  0.00     0.281 HD
ENDROOT
BRANCH   1   3
HETATM    3  C   UNL     1      -8.586   1.329 -31.815  1.00  0.00     0.235 C 
BRANCH   3   4
HETATM    4  C   UNL     1      -9.635   0.766 -32.772  1.00  0.00     0.023 C 
HETATM    5  C   UNL     1      -9.263   0.887 -34.241  1.00  0.00     0.007 C 
ENDBRANCH   3   4
ENDBRANCH   1   3
BRANCH   1   6
HETATM    6  C   UNL     1      -7.632   3.661 -32.301  1.00  0.00     0.338 C 
BRANCH   6   7
HETATM    7  C   UNL     1      -7.511   4.460 -33.613  1.00  0.00     0.249 C 
HETATM    8  N   UNL     1      -6.363   5.056 -34.014  1.00  0.00    -0.304 N 
HETATM    9  H   UNL     1      -6.368   5.474 -34.938  1.00  0.00     0.171 HD
HETATM   10  O   UNL     1      -8.479   4.500 -34.384  1.00  0.00    -0.271 OA
BRANCH   8  11
HETATM   11  C   UNL     1      -5.235   5.234 -33.275  1.00  0.00     0.174 A 
HETATM   12  S   UNL     1      -5.328   6.522 -32.173  1.00  0.00    -0.050 SA
HETATM   13  C   UNL     1      -3.725   6.174 -31.652  1.00  0.00     0.040 A 
HETATM   14  C   UNL     1      -3.250   5.062 -32.358  1.00  0.00     0.079 A 
HETATM   15  C   UNL     1      -2.951   6.833 -30.685  1.00  0.00     0.061 A 
HETATM   16  N   UNL     1      -4.126   4.549 -33.313  1.00  0.00    -0.223 NA
HETATM   17  C   UNL     1      -1.967   4.565 -32.054  1.00  0.00     0.072 A 
HETATM   18  C   UNL     1      -1.203   5.194 -31.066  1.00  0.00     0.104 A 
HETATM   19  C   UNL     1      -1.678   6.332 -30.415  1.00  0.00     0.103 A 
HETATM   20  O   UNL     1       0.017   4.629 -30.789  1.00  0.00    -0.346 OA
HETATM   21  O   UNL     1      -0.952   7.017 -29.472  1.00  0.00    -0.346 OA
HETATM   22  C   UNL     1       0.425   6.624 -29.472  1.00  0.00     0.202 C 
HETATM   23  C   UNL     1       0.547   5.111 -29.546  1.00  0.00     0.202 C 
ENDBRANCH   8  11
ENDBRANCH   6   7
ENDBRANCH   1   6
BRANCH   1  24
HETATM   24  C   UNL     1      -6.107   1.607 -32.172  1.00  0.00     0.338 C 
BRANCH  24  25
HETATM   25  C   UNL     1      -6.045   0.079 -32.262  1.00  0.00     0.248 C 
HETATM   26  N   UNL     1      -5.996  -0.397 -33.555  1.00  0.00    -0.323 N 
HETATM   27  H   UNL     1      -6.008   0.270 -34.326  1.00  0.00     0.169 HD
HETATM   28  O   UNL     1      -5.994  -0.576 -31.222  1.00  0.00    -0.271 OA
BRANCH  26  29
HETATM   29  C   UNL     1      -5.873  -1.741 -33.979  1.00  0.00     0.077 A 
HETATM   30  C   UNL     1      -4.608  -2.330 -33.832  1.00  0.00     0.184 A 
HETATM   31  F   UNL     1      -3.613  -1.598 -33.302  1.00  0.00    -0.200 F 
HETATM   32  C   UNL     1      -4.376  -3.647 -34.204  1.00  0.00     0.195 A 
HETATM   33  F   UNL     1      -3.161  -4.188 -34.038  1.00  0.00    -0.199 F 
HETATM   34  C   UNL     1      -5.412  -4.393 -34.739  1.00  0.00     0.158 A 
HETATM   35  F   UNL     1      -5.209  -5.665 -35.105  1.00  0.00    -0.203 F 
HETATM   36  C   UNL     1      -6.676  -3.830 -34.903  1.00  0.00     0.048 A 
HETATM   37  C   UNL     1      -6.910  -2.502 -34.521  1.00  0.00     0.036 A 
ENDBRANCH  26  29
ENDBRANCH  24  25
ENDBRANCH   1  24
TORSDOF 8
ENDMDL
MODEL 3
REMARK VINA RESULT:      -8.1      4.001      7.693
REMARK  8 active torsions:
REMARK  status: ('A' for Active; 'I' for Inactive)
REMARK    1  A    between atoms: C_2  and  C_3 
REMARK    2  A    between atoms: C_3  and  N_4 
REMARK    3  A    between atoms: N_4  and  C_6 
REMARK    4  A    between atoms: N_4  and  C_23 
REMARK    5  A    between atoms: C_6  and  C_7 
REMARK       I    between atoms: C_7  and  N_8 
REMARK    6  A    between atoms: N_8  and  C_9 
REMARK    7  A    between atoms: C_23  and  C_24 
REMARK       I    between atoms: C_24  and  N_25 
REMARK    8  A    between atoms: N_25  and  C_26 
ROOT
HETATM    1  N   UNL     1      -6.731   3.050 -32.063  1.00  0.00    -0.055 N 
HETATM    2  H   UNL     1      -7.280   2.894 -32.924  1.00  0.00     0.281 HD
ENDROOT
BRANCH   1   3
HETATM    3  C   UNL     1      -7.588   2.607 -30.899  1.00  0.00     0.235 C 
BRANCH   3   4
HETATM    4  C   UNL     1      -8.982   2.143 -31.319  1.00  0.00     0.023 C 
HETATM    5  C   UNL     1      -9.039   0.697 -31.786  1.00  0.00     0.007 C 
ENDBRANCH   3   4
ENDBRANCH   1   3
BRANCH   1   6
HETATM    6  C   UNL     1      -6.333   4.542 -32.022  1.00  0.00     0.338 C 
BRANCH   6   7
HETATM    7  C   UNL     1      -5.827   5.063 -33.380  1.00  0.00     0.249 C 
HETATM    8  N   UNL     1      -4.574   5.542 -33.570  1.00  0.00    -0.304 N 
HETATM    9  H   UNL     1      -4.315   5.771 -34.524  1.00  0.00     0.171 HD
HETATM   10  O   UNL     1      -6.564   4.974 -34.372  1.00  0.00    -0.271 OA
BRANCH   8  11
HETATM   11  C   UNL     1      -3.659   5.836 -32.608  1.00  0.00     0.174 A 
HETATM   12  S   UNL     1      -2.538   4.594 -32.319  1.00  0.00    -0.050 SA
HETATM   13  C   UNL     1      -1.782   5.575 -31.122  1.00  0.00     0.040 A 
HETATM   14  C   UNL     1      -2.444   6.806 -31.060  1.00  0.00     0.079 A 
HETATM   15  C   UNL     1      -0.680   5.275 -30.307  1.00  0.00     0.061 A 
HETATM   16  N   UNL     1      -3.545   6.930 -31.906  1.00  0.00    -0.223 NA
HETATM   17  C   UNL     1      -1.959   7.792 -30.177  1.00  0.00     0.072 A 
HETATM   18  C   UNL     1      -0.839   7.515 -29.388  1.00  0.00     0.104 A 
HETATM   19  C   UNL     1      -0.230   6.261 -29.430  1.00  0.00     0.103 A 
HETATM   20  O   UNL     1      -0.393   8.535 -28.586  1.00  0.00    -0.346 OA
HETATM   21  O   UNL     1       0.842   5.919 -28.643  1.00  0.00    -0.346 OA
HETATM   22  C   UNL     1       1.047   6.861 -27.584  1.00  0.00     0.202 C 
HETATM   23  C   UNL     1       0.936   8.283 -28.108  1.00  0.00     0.202 C 
ENDBRANCH   8  11
ENDBRANCH   6   7
ENDBRANCH   1   6
BRANCH   1  24
HETATM   24  C   UNL     1      -5.510   2.126 -32.239  1.00  0.00     0.338 C 
BRANCH  24  25
HETATM   25  C   UNL     1      -5.780   1.031 -33.277  1.00  0.00     0.248 C 
HETATM   26  N   UNL     1      -5.412  -0.230 -32.859  1.00  0.00    -0.323 N 
HETATM   27  H   UNL     1      -5.001  -0.342 -31.933  1.00  0.00     0.169 HD
HETATM   28  O   UNL     1      -6.327   1.338 -34.335  1.00  0.00    -0.271 OA
BRANCH  26  29
HETATM   29  C   UNL     1      -5.582  -1.454 -33.547  1.00  0.00     0.077 A 
HETATM   30  C   UNL     1      -4.450  -2.279 -33.644  1.00  0.00     0.184 A 
HETATM   31  F   UNL     1      -3.301  -1.866 -33.083  1.00  0.00    -0.200 F 
HETATM   32  C   UNL     1      -4.505  -3.509 -34.286  1.00  0.00     0.195 A 
HETATM   33  F   UNL     1      -3.413  -4.282 -34.349  1.00  0.00    -0.199 F 
HETATM   34  C   UNL     1      -5.698  -3.927 -34.850  1.00  0.00     0.158 A 
HETATM   35  F   UNL     1      -5.772  -5.109 -35.474  1.00  0.00    -0.203 F 
HETATM   36  C   UNL     1      -6.834  -3.123 -34.774  1.00  0.00     0.048 A 
HETATM   37  C   UNL     1      -6.780  -1.885 -34.121  1.00  0.00     0.036 A 
ENDBRANCH  26  29
ENDBRANCH  24  25
ENDBRANCH   1  24
TORSDOF 8
ENDMDL
MODEL 4
REMARK VINA RESULT:      -8.0      3.322      6.976
REMARK  8 active torsions:
REMARK  status: ('A' for Active; 'I' for Inactive)
REMARK    1  A    between atoms: C_2  and  C_3 
REMARK    2  A    between atoms: C_3  and  N_4 
REMARK    3  A    between atoms: N_4  and  C_6 
REMARK    4  A    between atoms: N_4  and  C_23 
REMARK    5  A    between atoms: C_6  and  C_7 
REMARK       I    between atoms: C_7  and  N_8 
REMARK    6  A    between atoms: N_8  and  C_9 
REMARK    7  A    between atoms: C_23  and  C_24 
REMARK       I    between atoms: C_24  and  N_25 
REMARK    8  A    between atoms: N_25  and  C_26 
ROOT
HETATM    1  N   UNL     1      -9.272   4.260 -33.162  1.00  0.00    -0.055 N 
HETATM    2  H   UNL     1      -8.695   3.585 -32.634  1.00  0.00     0.281 HD
ENDROOT
BRANCH   1   3
HETATM    3  C   UNL     1      -9.997   5.115 -32.147  1.00  0.00     0.235 C 
BRANCH   3   4
HETATM    4  C   UNL     1      -9.750   4.679 -30.704  1.00  0.00     0.023 C 
HETATM    5  C   UNL     1      -8.291   4.734 -30.282  1.00  0.00     0.007 C 
ENDBRANCH   3   4
ENDBRANCH   1   3
BRANCH   1   6
HETATM    6  C   UNL     1     -10.205   3.456 -34.093  1.00  0.00     0.338 C 
BRANCH   6   7
HETATM    7  C   UNL     1     -11.171   2.536 -33.322  1.00  0.00     0.249 C 
HETATM    8  N   UNL     1     -10.752   1.547 -32.497  1.00  0.00    -0.304 N 
HETATM    9  H   UNL     1     -11.470   1.064 -31.967  1.00  0.00     0.171 HD
HETATM   10  O   UNL     1     -12.389   2.750 -33.391  1.00  0.00    -0.271 OA
BRANCH   8  11
HETATM   11  C   UNL     1      -9.484   1.071 -32.372  1.00  0.00     0.174 A 
HETATM   12  S   UNL     1      -9.023   0.002 -33.608  1.00  0.00    -0.050 SA
HETATM   13  C   UNL     1      -7.477  -0.162 -32.869  1.00  0.00     0.040 A 
HETATM   14  C   UNL     1      -7.430   0.651 -31.731  1.00  0.00     0.079 A 
HETATM   15  C   UNL     1      -6.387  -0.947 -33.274  1.00  0.00     0.061 A 
HETATM   16  N   UNL     1      -8.609   1.336 -31.442  1.00  0.00    -0.223 NA
HETATM   17  C   UNL     1      -6.230   0.713 -30.993  1.00  0.00     0.072 A 
HETATM   18  C   UNL     1      -5.127  -0.038 -31.411  1.00  0.00     0.104 A 
HETATM   19  C   UNL     1      -5.218  -0.881 -32.517  1.00  0.00     0.103 A 
HETATM   20  O   UNL     1      -3.979   0.106 -30.673  1.00  0.00    -0.346 OA
HETATM   21  O   UNL     1      -4.182  -1.676 -32.944  1.00  0.00    -0.346 OA
HETATM   22  C   UNL     1      -3.146  -1.773 -31.960  1.00  0.00     0.202 C 
HETATM   23  C   UNL     1      -2.837  -0.404 -31.377  1.00  0.00     0.202 C 
ENDBRANCH   8  11
ENDBRANCH   6   7
ENDBRANCH   1   6
BRANCH   1  24
HETATM   24  C   UNL     1      -8.235   5.087 -33.948  1.00  0.00     0.338 C 
BRANCH  24  25
HETATM   25  C   UNL     1      -6.813   4.564 -33.723  1.00  0.00     0.248 C 
HETATM   26  N   UNL     1      -5.875   5.562 -33.564  1.00  0.00    -0.323 N 
HETATM   27  H   UNL     1      -6.178   6.535 -33.610  1.00  0.00     0.169 HD
HETATM   28  O   UNL     1      -6.631   3.350 -33.652  1.00  0.00    -0.271 OA
BRANCH  26  29
HETATM   29  C   UNL     1      -4.497   5.419 -33.282  1.00  0.00     0.077 A 
HETATM   30  C   UNL     1      -3.648   5.237 -34.385  1.00  0.00     0.184 A 
HETATM   31  F   UNL     1      -4.186   5.216 -35.616  1.00  0.00    -0.200 F 
HETATM   32  C   UNL     1      -2.276   5.097 -34.226  1.00  0.00     0.195 A 
HETATM   33  F   UNL     1      -1.488   4.940 -35.298  1.00  0.00    -0.199 F 
HETATM   34  C   UNL     1      -1.734   5.130 -32.953  1.00  0.00     0.158 A 
HETATM   35  F   UNL     1      -0.413   4.997 -32.777  1.00  0.00    -0.203 F 
HETATM   36  C   UNL     1      -2.555   5.302 -31.840  1.00  0.00     0.048 A 
HETATM   37  C   UNL     1      -3.939   5.449 -32.002  1.00  0.00     0.036 A 
ENDBRANCH  26  29
ENDBRANCH  24  25
ENDBRANCH   1  24
TORSDOF 8
ENDMDL
MODEL 5
REMARK VINA RESULT:      -7.9      3.825      6.715
REMARK  8 active torsions:
REMARK  status: ('A' for Active; 'I' for Inactive)
REMARK    1  A    between atoms: C_2  and  C_3 
REMARK    2  A    between atoms: C_3  and  N_4 
REMARK    3  A    between atoms: N_4  and  C_6 
REMARK    4  A    between atoms: N_4  and  C_23 
REMARK    5  A    between atoms: C_6  and  C_7 
REMARK       I    between atoms: C_7  and  N_8 
REMARK    6  A    between atoms: N_8  and  C_9 
REMARK    7  A    between atoms: C_23  and  C_24 
REMARK       I    between atoms: C_24  and  N_25 
REMARK    8  A    between atoms: N_25  and  C_26 
ROOT
HETATM    1  N   UNL     1      -6.179   4.264 -32.121  1.00  0.00    -0.055 N 
HETATM    2  H   UNL     1      -6.696   3.371 -32.113  1.00  0.00     0.281 HD
ENDROOT
BRANCH   1   3
HETATM    3  C   UNL     1      -4.957   4.065 -32.989  1.00  0.00     0.235 C 
BRANCH   3   4
HETATM    4  C   UNL     1      -5.081   4.719 -34.364  1.00  0.00     0.023 C 
HETATM    5  C   UNL     1      -3.769   5.251 -34.918  1.00  0.00     0.007 C 
ENDBRANCH   3   4
ENDBRANCH   1   3
BRANCH   1   6
HETATM    6  C   UNL     1      -5.860   4.638 -30.657  1.00  0.00     0.338 C 
BRANCH   6   7
HETATM    7  C   UNL     1      -6.883   4.067 -29.657  1.00  0.00     0.249 C 
HETATM    8  N   UNL     1      -7.183   2.748 -29.575  1.00  0.00    -0.304 N 
HETATM    9  H   UNL     1      -7.798   2.469 -28.819  1.00  0.00     0.171 HD
HETATM   10  O   UNL     1      -7.407   4.827 -28.831  1.00  0.00    -0.271 OA
BRANCH   8  11
HETATM   11  C   UNL     1      -6.820   1.773 -30.452  1.00  0.00     0.174 A 
HETATM   12  S   UNL     1      -5.370   0.988 -30.050  1.00  0.00    -0.050 SA
HETATM   13  C   UNL     1      -5.538  -0.005 -31.446  1.00  0.00     0.040 A 
HETATM   14  C   UNL     1      -6.727   0.333 -32.102  1.00  0.00     0.079 A 
HETATM   15  C   UNL     1      -4.682  -1.013 -31.917  1.00  0.00     0.061 A 
HETATM   16  N   UNL     1      -7.442   1.382 -31.530  1.00  0.00    -0.223 NA
HETATM   17  C   UNL     1      -7.095  -0.395 -33.252  1.00  0.00     0.072 A 
HETATM   18  C   UNL     1      -6.267  -1.425 -33.708  1.00  0.00     0.104 A 
HETATM   19  C   UNL     1      -5.061  -1.706 -33.067  1.00  0.00     0.103 A 
HETATM   20  O   UNL     1      -6.710  -2.121 -34.804  1.00  0.00    -0.346 OA
HETATM   21  O   UNL     1      -4.187  -2.673 -33.498  1.00  0.00    -0.346 OA
HETATM   22  C   UNL     1      -4.500  -3.120 -34.822  1.00  0.00     0.202 C 
HETATM   23  C   UNL     1      -5.994  -3.355 -34.965  1.00  0.00     0.202 C 
ENDBRANCH   8  11
ENDBRANCH   6   7
ENDBRANCH   1   6
BRANCH   1  24
HETATM   24  C   UNL     1      -7.169   5.251 -32.772  1.00  0.00     0.338 C 
BRANCH  24  25
HETATM   25  C   UNL     1      -8.589   4.675 -32.813  1.00  0.00     0.248 C 
HETATM   26  N   UNL     1      -8.753   3.676 -33.748  1.00  0.00    -0.323 N 
HETATM   27  H   UNL     1      -7.957   3.404 -34.324  1.00  0.00     0.169 HD
HETATM   28  O   UNL     1      -9.422   5.092 -32.011  1.00  0.00    -0.271 OA
BRANCH  26  29
HETATM   29  C   UNL     1      -9.911   2.903 -33.996  1.00  0.00     0.077 A 
HETATM   30  C   UNL     1     -10.767   3.364 -35.008  1.00  0.00     0.184 A 
HETATM   31  F   UNL     1     -10.437   4.486 -35.669  1.00  0.00    -0.200 F 
HETATM   32  C   UNL     1     -11.926   2.678 -35.344  1.00  0.00     0.195 A 
HETATM   33  F   UNL     1     -12.716   3.134 -36.325  1.00  0.00    -0.199 F 
HETATM   34  C   UNL     1     -12.250   1.518 -34.660  1.00  0.00     0.158 A 
HETATM   35  F   UNL     1     -13.363   0.841 -34.968  1.00  0.00    -0.203 F 
HETATM   36  C   UNL     1     -11.421   1.042 -33.646  1.00  0.00     0.048 A 
HETATM   37  C   UNL     1     -10.248   1.733 -33.312  1.00  0.00     0.036 A 
ENDBRANCH  26  29
ENDBRANCH  24  25
ENDBRANCH   1  24
TORSDOF 8
ENDMDL
MODEL 6
REMARK VINA RESULT:      -7.9      3.134      6.762
REMARK  8 active torsions:
REMARK  status: ('A' for Active; 'I' for Inactive)
REMARK    1  A    between atoms: C_2  and  C_3 
REMARK    2  A    between atoms: C_3  and  N_4 
REMARK    3  A    between atoms: N_4  and  C_6 
REMARK    4  A    between atoms: N_4  and  C_23 
REMARK    5  A    between atoms: C_6  and  C_7 
REMARK       I    between atoms: C_7  and  N_8 
REMARK    6  A    between atoms: N_8  and  C_9 
REMARK    7  A    between atoms: C_23  and  C_24 
REMARK       I    between atoms: C_24  and  N_25 
REMARK    8  A    between atoms: N_25  and  C_26 
ROOT
HETATM    1  N   UNL     1      -7.133   2.560 -32.617  1.00  0.00    -0.055 N 
HETATM    2  H   UNL     1      -7.752   1.798 -32.937  1.00  0.00     0.281 HD
ENDROOT
BRANCH   1   3
HETATM    3  C   UNL     1      -7.907   3.368 -31.599  1.00  0.00     0.235 C 
BRANCH   3   4
HETATM    4  C   UNL     1      -7.430   3.146 -30.165  1.00  0.00     0.023 C 
HETATM    5  C   UNL     1      -7.379   4.414 -29.327  1.00  0.00     0.007 C 
ENDBRANCH   3   4
ENDBRANCH   1   3
BRANCH   1   6
HETATM    6  C   UNL     1      -6.693   3.364 -33.859  1.00  0.00     0.338 C 
BRANCH   6   7
HETATM    7  C   UNL     1      -7.264   4.794 -33.879  1.00  0.00     0.249 C 
HETATM    8  N   UNL     1      -6.562   5.878 -33.470  1.00  0.00    -0.304 N 
HETATM    9  H   UNL     1      -6.999   6.782 -33.614  1.00  0.00     0.171 HD
HETATM   10  O   UNL     1      -8.389   4.987 -34.361  1.00  0.00    -0.271 OA
BRANCH   8  11
HETATM   11  C   UNL     1      -5.376   5.879 -32.805  1.00  0.00     0.174 A 
HETATM   12  S   UNL     1      -5.375   6.828 -31.397  1.00  0.00    -0.050 SA
HETATM   13  C   UNL     1      -3.733   6.387 -31.119  1.00  0.00     0.040 A 
HETATM   14  C   UNL     1      -3.322   5.512 -32.130  1.00  0.00     0.079 A 
HETATM   15  C   UNL     1      -2.880   6.784 -30.078  1.00  0.00     0.061 A 
HETATM   16  N   UNL     1      -4.275   5.250 -33.113  1.00  0.00    -0.223 NA
HETATM   17  C   UNL     1      -2.018   4.979 -32.075  1.00  0.00     0.072 A 
HETATM   18  C   UNL     1      -1.173   5.340 -31.020  1.00  0.00     0.104 A 
HETATM   19  C   UNL     1      -1.590   6.257 -30.055  1.00  0.00     0.103 A 
HETATM   20  O   UNL     1       0.065   4.748 -31.003  1.00  0.00    -0.346 OA
HETATM   21  O   UNL     1      -0.787   6.682 -29.026  1.00  0.00    -0.346 OA
HETATM   22  C   UNL     1       0.585   6.332 -29.242  1.00  0.00     0.202 C 
HETATM   23  C   UNL     1       0.698   4.896 -29.724  1.00  0.00     0.202 C 
ENDBRANCH   8  11
ENDBRANCH   6   7
ENDBRANCH   1   6
BRANCH   1  24
HETATM   24  C   UNL     1      -5.955   1.816 -31.956  1.00  0.00     0.338 C 
BRANCH  24  25
HETATM   25  C   UNL     1      -6.082   0.299 -32.129  1.00  0.00     0.248 C 
HETATM   26  N   UNL     1      -5.826  -0.135 -33.412  1.00  0.00    -0.323 N 
HETATM   27  H   UNL     1      -5.585   0.552 -34.126  1.00  0.00     0.169 HD
HETATM   28  O   UNL     1      -6.340  -0.391 -31.145  1.00  0.00    -0.271 OA
BRANCH  26  29
HETATM   29  C   UNL     1      -5.799  -1.467 -33.887  1.00  0.00     0.077 A 
HETATM   30  C   UNL     1      -4.571  -2.140 -33.792  1.00  0.00     0.184 A 
HETATM   31  F   UNL     1      -3.520  -1.493 -33.261  1.00  0.00    -0.200 F 
HETATM   32  C   UNL     1      -4.432  -3.455 -34.216  1.00  0.00     0.195 A 
HETATM   33  F   UNL     1      -3.251  -4.077 -34.099  1.00  0.00    -0.199 F 
HETATM   34  C   UNL     1      -5.525  -4.113 -34.753  1.00  0.00     0.158 A 
HETATM   35  F   UNL     1      -5.413  -5.381 -35.168  1.00  0.00    -0.203 F 
HETATM   36  C   UNL     1      -6.754  -3.466 -34.865  1.00  0.00     0.048 A 
HETATM   37  C   UNL     1      -6.894  -2.141 -34.431  1.00  0.00     0.036 A 
ENDBRANCH  26  29
ENDBRANCH  24  25
ENDBRANCH   1  24
TORSDOF 8
ENDMDL
MODEL 7
REMARK VINA RESULT:      -7.8      3.110      6.905
REMARK  8 active torsions:
REMARK  status: ('A' for Active; 'I' for Inactive)
REMARK    1  A    between atoms: C_2  and  C_3 
REMARK    2  A    between atoms: C_3  and  N_4 
REMARK    3  A    between atoms: N_4  and  C_6 
REMARK    4  A    between atoms: N_4  and  C_23 
REMARK    5  A    between atoms: C_6  and  C_7 
REMARK       I    between atoms: C_7  and  N_8 
REMARK    6  A    between atoms: N_8  and  C_9 
REMARK    7  A    between atoms: C_23  and  C_24 
REMARK       I    between atoms: C_24  and  N_25 
REMARK    8  A    between atoms: N_25  and  C_26 
ROOT
HETATM    1  N   UNL     1      -7.985   2.905 -31.881  1.00  0.00    -0.055 N 
HETATM    2  H   UNL     1      -7.624   2.625 -32.807  1.00  0.00     0.281 HD
ENDROOT
BRANCH   1   3
HETATM    3  C   UNL     1      -9.311   2.202 -31.687  1.00  0.00     0.235 C 
BRANCH   3   4
HETATM    4  C   UNL     1      -9.829   1.532 -32.959  1.00  0.00     0.023 C 
HETATM    5  C   UNL     1      -9.594   0.030 -33.006  1.00  0.00     0.007 C 
ENDBRANCH   3   4
ENDBRANCH   1   3
BRANCH   1   6
HETATM    6  C   UNL     1      -8.079   4.446 -31.858  1.00  0.00     0.338 C 
BRANCH   6   7
HETATM    7  C   UNL     1      -7.916   5.077 -33.254  1.00  0.00     0.249 C 
HETATM    8  N   UNL     1      -6.718   5.443 -33.767  1.00  0.00    -0.304 N 
HETATM    9  H   UNL     1      -6.714   5.760 -34.730  1.00  0.00     0.171 HD
HETATM   10  O   UNL     1      -8.912   5.187 -33.983  1.00  0.00    -0.271 OA
BRANCH   8  11
HETATM   11  C   UNL     1      -5.534   5.520 -33.101  1.00  0.00     0.174 A 
HETATM   12  S   UNL     1      -4.523   4.177 -33.334  1.00  0.00    -0.050 SA
HETATM   13  C   UNL     1      -3.346   4.903 -32.308  1.00  0.00     0.040 A 
HETATM   14  C   UNL     1      -3.821   6.150 -31.886  1.00  0.00     0.079 A 
HETATM   15  C   UNL     1      -2.094   4.405 -31.916  1.00  0.00     0.061 A 
HETATM   16  N   UNL     1      -5.100   6.479 -32.330  1.00  0.00    -0.223 NA
HETATM   17  C   UNL     1      -2.992   6.949 -31.072  1.00  0.00     0.072 A 
HETATM   18  C   UNL     1      -1.728   6.477 -30.706  1.00  0.00     0.104 A 
HETATM   19  C   UNL     1      -1.301   5.208 -31.096  1.00  0.00     0.103 A 
HETATM   20  O   UNL     1      -0.957   7.326 -29.952  1.00  0.00    -0.346 OA
HETATM   21  O   UNL     1      -0.090   4.676 -30.728  1.00  0.00    -0.346 OA
HETATM   22  C   UNL     1       0.518   5.422 -29.667  1.00  0.00     0.202 C 
HETATM   23  C   UNL     1       0.417   6.914 -29.941  1.00  0.00     0.202 C 
ENDBRANCH   8  11
ENDBRANCH   6   7
ENDBRANCH   1   6
BRANCH   1  24
HETATM   24  C   UNL     1      -6.923   2.370 -30.900  1.00  0.00     0.338 C 
BRANCH  24  25
HETATM   25  C   UNL     1      -6.582   0.904 -31.188  1.00  0.00     0.248 C 
HETATM   26  N   UNL     1      -5.880   0.721 -32.360  1.00  0.00    -0.323 N 
HETATM   27  H   UNL     1      -5.651   1.534 -32.931  1.00  0.00     0.169 HD
HETATM   28  O   UNL     1      -6.898   0.048 -30.365  1.00  0.00    -0.271 OA
BRANCH  26  29
HETATM   29  C   UNL     1      -5.364  -0.489 -32.880  1.00  0.00     0.077 A 
HETATM   30  C   UNL     1      -4.293  -1.066 -32.179  1.00  0.00     0.184 A 
HETATM   31  F   UNL     1      -3.839  -0.449 -31.075  1.00  0.00    -0.200 F 
HETATM   32  C   UNL     1      -3.717  -2.259 -32.591  1.00  0.00     0.195 A 
HETATM   33  F   UNL     1      -2.707  -2.794 -31.893  1.00  0.00    -0.199 F 
HETATM   34  C   UNL     1      -4.202  -2.890 -33.724  1.00  0.00     0.158 A 
HETATM   35  F   UNL     1      -3.660  -4.042 -34.140  1.00  0.00    -0.203 F 
HETATM   36  C   UNL     1      -5.259  -2.335 -34.443  1.00  0.00     0.048 A 
HETATM   37  C   UNL     1      -5.844  -1.134 -34.022  1.00  0.00     0.036 A 
ENDBRANCH  26  29
ENDBRANCH  24  25
ENDBRANCH   1  24
TORSDOF 8
ENDMDL
MODEL 8
REMARK VINA RESULT:      -7.8      4.895      8.482
REMARK  8 active torsions:
REMARK  status: ('A' for Active; 'I' for Inactive)
REMARK    1  A    between atoms: C_2  and  C_3 
REMARK    2  A    between atoms: C_3  and  N_4 
REMARK    3  A    between atoms: N_4  and  C_6 
REMARK    4  A    between atoms: N_4  and  C_23 
REMARK    5  A    between atoms: C_6  and  C_7 
REMARK       I    between atoms: C_7  and  N_8 
REMARK    6  A    between atoms: N_8  and  C_9 
REMARK    7  A    between atoms: C_23  and  C_24 
REMARK       I    between atoms: C_24  and  N_25 
REMARK    8  A    between atoms: N_25  and  C_26 
ROOT
HETATM    1  N   UNL     1      -5.300   2.689 -31.130  1.00  0.00    -0.055 N 
HETATM    2  H   UNL     1      -5.358   2.408 -32.121  1.00  0.00     0.281 HD
ENDROOT
BRANCH   1   3
HETATM    3  C   UNL     1      -6.636   3.293 -30.757  1.00  0.00     0.235 C 
BRANCH   3   4
HETATM    4  C   UNL     1      -7.678   3.184 -31.869  1.00  0.00     0.023 C 
HETATM    5  C   UNL     1      -7.090   2.891 -33.240  1.00  0.00     0.007 C 
ENDBRANCH   3   4
ENDBRANCH   1   3
BRANCH   1   6
HETATM    6  C   UNL     1      -4.106   3.658 -30.983  1.00  0.00     0.338 C 
BRANCH   6   7
HETATM    7  C   UNL     1      -3.237   3.733 -32.253  1.00  0.00     0.249 C 
HETATM    8  N   UNL     1      -2.022   4.329 -32.285  1.00  0.00    -0.304 N 
HETATM    9  H   UNL     1      -1.494   4.238 -33.146  1.00  0.00     0.171 HD
HETATM   10  O   UNL     1      -3.622   3.157 -33.280  1.00  0.00    -0.271 OA
BRANCH   8  11
HETATM   11  C   UNL     1      -1.472   5.114 -31.319  1.00  0.00     0.174 A 
HETATM   12  S   UNL     1      -2.145   6.670 -31.229  1.00  0.00    -0.050 SA
HETATM   13  C   UNL     1      -1.078   7.040 -29.929  1.00  0.00     0.040 A 
HETATM   14  C   UNL     1      -0.299   5.912 -29.647  1.00  0.00     0.079 A 
HETATM   15  C   UNL     1      -0.949   8.239 -29.210  1.00  0.00     0.061 A 
HETATM   16  N   UNL     1      -0.520   4.816 -30.478  1.00  0.00    -0.223 NA
HETATM   17  C   UNL     1       0.616   5.972 -28.576  1.00  0.00     0.072 A 
HETATM   18  C   UNL     1       0.724   7.150 -27.831  1.00  0.00     0.104 A 
HETATM   19  C   UNL     1      -0.025   8.277 -28.167  1.00  0.00     0.103 A 
HETATM   20  O   UNL     1       1.600   7.123 -26.774  1.00  0.00    -0.346 OA
HETATM   21  O   UNL     1       0.076   9.473 -27.500  1.00  0.00    -0.346 OA
HETATM   22  C   UNL     1       1.234   9.517 -26.659  1.00  0.00     0.202 C 
HETATM   23  C   UNL     1       1.374   8.221 -25.879  1.00  0.00     0.202 C 
ENDBRANCH   8  11
ENDBRANCH   6   7
ENDBRANCH   1   6
BRANCH   1  24
HETATM   24  C   UNL     1      -5.064   1.358 -30.389  1.00  0.00     0.338 C 
BRANCH  24  25
HETATM   25  C   UNL     1      -5.700   0.180 -31.136  1.00  0.00     0.248 C 
HETATM   26  N   UNL     1      -5.071  -0.125 -32.323  1.00  0.00    -0.323 N 
HETATM   27  H   UNL     1      -4.266   0.430 -32.612  1.00  0.00     0.169 HD
HETATM   28  O   UNL     1      -6.647  -0.409 -30.618  1.00  0.00    -0.271 OA
BRANCH  26  29
HETATM   29  C   UNL     1      -5.368  -1.184 -33.214  1.00  0.00     0.077 A 
HETATM   30  C   UNL     1      -4.360  -2.143 -33.404  1.00  0.00     0.184 A 
HETATM   31  F   UNL     1      -3.202  -2.002 -32.737  1.00  0.00    -0.200 F 
HETATM   32  C   UNL     1      -4.547  -3.231 -34.245  1.00  0.00     0.195 A 
HETATM   33  F   UNL     1      -3.574  -4.139 -34.395  1.00  0.00    -0.199 F 
HETATM   34  C   UNL     1      -5.749  -3.369 -34.918  1.00  0.00     0.158 A 
HETATM   35  F   UNL     1      -5.949  -4.411 -35.735  1.00  0.00    -0.203 F 
HETATM   36  C   UNL     1      -6.762  -2.427 -34.753  1.00  0.00     0.048 A 
HETATM   37  C   UNL     1      -6.575  -1.332 -33.899  1.00  0.00     0.036 A 
ENDBRANCH  26  29
ENDBRANCH  24  25
ENDBRANCH   1  24
TORSDOF 8
ENDMDL
MODEL 9
REMARK VINA RESULT:      -7.5      5.859      9.458
REMARK  8 active torsions:
REMARK  status: ('A' for Active; 'I' for Inactive)
REMARK    1  A    between atoms: C_2  and  C_3 
REMARK    2  A    between atoms: C_3  and  N_4 
REMARK    3  A    between atoms: N_4  and  C_6 
REMARK    4  A    between atoms: N_4  and  C_23 
REMARK    5  A    between atoms: C_6  and  C_7 
REMARK       I    between atoms: C_7  and  N_8 
REMARK    6  A    between atoms: N_8  and  C_9 
REMARK    7  A    between atoms: C_23  and  C_24 
REMARK       I    between atoms: C_24  and  N_25 
REMARK    8  A    between atoms: N_25  and  C_26 
ROOT
HETATM    1  N   UNL     1      -2.623   4.741 -32.000  1.00  0.00    -0.055 N 
HETATM    2  H   UNL     1      -2.968   5.712 -31.941  1.00  0.00     0.281 HD
ENDROOT
BRANCH   1   3
HETATM    3  C   UNL     1      -2.212   4.499 -33.436  1.00  0.00     0.235 C 
BRANCH   3   4
HETATM    4  C   UNL     1      -2.345   5.740 -34.318  1.00  0.00     0.023 C 
HETATM    5  C   UNL     1      -1.226   6.752 -34.135  1.00  0.00     0.007 C 
ENDBRANCH   3   4
ENDBRANCH   1   3
BRANCH   1   6
HETATM    6  C   UNL     1      -3.749   3.809 -31.501  1.00  0.00     0.338 C 
BRANCH   6   7
HETATM    7  C   UNL     1      -5.136   4.204 -32.041  1.00  0.00     0.249 C 
HETATM    8  N   UNL     1      -6.024   3.307 -32.531  1.00  0.00    -0.304 N 
HETATM    9  H   UNL     1      -6.943   3.662 -32.772  1.00  0.00     0.171 HD
HETATM   10  O   UNL     1      -5.501   5.385 -31.955  1.00  0.00    -0.271 OA
BRANCH   8  11
HETATM   11  C   UNL     1      -5.786   2.000 -32.823  1.00  0.00     0.174 A 
HETATM   12  S   UNL     1      -6.685   1.410 -34.136  1.00  0.00    -0.050 SA
HETATM   13  C   UNL     1      -5.938  -0.128 -33.939  1.00  0.00     0.040 A 
HETATM   14  C   UNL     1      -5.023  -0.056 -32.882  1.00  0.00     0.079 A 
HETATM   15  C   UNL     1      -6.143  -1.307 -34.673  1.00  0.00     0.061 A 
HETATM   16  N   UNL     1      -4.969   1.174 -32.229  1.00  0.00    -0.223 NA
HETATM   17  C   UNL     1      -4.254  -1.196 -32.574  1.00  0.00     0.072 A 
HETATM   18  C   UNL     1      -4.425  -2.363 -33.324  1.00  0.00     0.104 A 
HETATM   19  C   UNL     1      -5.382  -2.426 -34.337  1.00  0.00     0.103 A 
HETATM   20  O   UNL     1      -3.611  -3.420 -33.000  1.00  0.00    -0.346 OA
HETATM   21  O   UNL     1      -5.625  -3.559 -35.073  1.00  0.00    -0.346 OA
HETATM   22  C   UNL     1      -5.028  -4.717 -34.479  1.00  0.00     0.202 C 
HETATM   23  C   UNL     1      -3.607  -4.414 -34.033  1.00  0.00     0.202 C 
ENDBRANCH   8  11
ENDBRANCH   6   7
ENDBRANCH   1   6
BRANCH   1  24
HETATM   24  C   UNL     1      -1.400   4.732 -31.062  1.00  0.00     0.338 C 
BRANCH  24  25
HETATM   25  C   UNL     1      -1.270   6.054 -30.297  1.00  0.00     0.248 C 
HETATM   26  N   UNL     1      -0.464   5.970 -29.182  1.00  0.00    -0.323 N 
HETATM   27  H   UNL     1      -0.033   5.075 -28.951  1.00  0.00     0.169 HD
HETATM   28  O   UNL     1      -1.827   7.055 -30.744  1.00  0.00    -0.271 OA
BRANCH  26  29
HETATM   29  C   UNL     1      -0.092   7.013 -28.302  1.00  0.00     0.077 A 
HETATM   30  C   UNL     1      -0.921   7.216 -27.187  1.00  0.00     0.184 A 
HETATM   31  F   UNL     1      -1.990   6.419 -27.024  1.00  0.00    -0.200 F 
HETATM   32  C   UNL     1      -0.645   8.203 -26.251  1.00  0.00     0.195 A 
HETATM   33  F   UNL     1      -1.444   8.364 -25.188  1.00  0.00    -0.199 F 
HETATM   34  C   UNL     1       0.466   9.011 -26.425  1.00  0.00     0.158 A 
HETATM   35  F   UNL     1       0.750   9.970 -25.535  1.00  0.00    -0.203 F 
HETATM   36  C   UNL     1       1.300   8.836 -27.528  1.00  0.00     0.048 A 
HETATM   37  C   UNL     1       1.024   7.835 -28.468  1.00  0.00     0.036 A 
ENDBRANCH  26  29
ENDBRANCH  24  25
ENDBRANCH   1  24
TORSDOF 8
ENDMDL
MODEL 10
REMARK VINA RESULT:      -7.5      4.389      8.085
REMARK  8 active torsions:
REMARK  status: ('A' for Active; 'I' for Inactive)
REMARK    1  A    between atoms: C_2  and  C_3 
REMARK    2  A    between atoms: C_3  and  N_4 
REMARK    3  A    between atoms: N_4  and  C_6 
REMARK    4  A    between atoms: N_4  and  C_23 
REMARK    5  A    between atoms: C_6  and  C_7 
REMARK       I    between atoms: C_7  and  N_8 
REMARK    6  A    between atoms: N_8  and  C_9 
REMARK    7  A    between atoms: C_23  and  C_24 
REMARK       I    between atoms: C_24  and  N_25 
REMARK    8  A    between atoms: N_25  and  C_26 
ROOT
HETATM    1  N   UNL     1      -5.724   3.981 -33.241  1.00  0.00    -0.055 N 
HETATM    2  H   UNL     1      -5.500   3.346 -34.024  1.00  0.00     0.281 HD
ENDROOT
BRANCH   1   3
HETATM    3  C   UNL     1      -7.229   4.130 -33.203  1.00  0.00     0.235 C 
BRANCH   3   4
HETATM    4  C   UNL     1      -7.971   2.840 -33.550  1.00  0.00     0.023 C 
HETATM    5  C   UNL     1      -9.462   2.885 -33.256  1.00  0.00     0.007 C 
ENDBRANCH   3   4
ENDBRANCH   1   3
BRANCH   1   6
HETATM    6  C   UNL     1      -4.965   5.305 -33.474  1.00  0.00     0.338 C 
BRANCH   6   7
HETATM    7  C   UNL     1      -3.895   5.195 -34.577  1.00  0.00     0.249 C 
HETATM    8  N   UNL     1      -2.566   5.281 -34.331  1.00  0.00    -0.304 N 
HETATM    9  H   UNL     1      -1.947   5.100 -35.114  1.00  0.00     0.171 HD
HETATM   10  O   UNL     1      -4.249   4.936 -35.735  1.00  0.00    -0.271 OA
BRANCH   8  11
HETATM   11  C   UNL     1      -1.974   5.675 -33.171  1.00  0.00     0.174 A 
HETATM   12  S   UNL     1      -2.187   7.320 -32.812  1.00  0.00    -0.050 SA
HETATM   13  C   UNL     1      -1.275   7.108 -31.367  1.00  0.00     0.040 A 
HETATM   14  C   UNL     1      -0.899   5.763 -31.262  1.00  0.00     0.079 A 
HETATM   15  C   UNL     1      -0.927   8.061 -30.398  1.00  0.00     0.061 A 
HETATM   16  N   UNL     1      -1.288   4.954 -32.327  1.00  0.00    -0.223 NA
HETATM   17  C   UNL     1      -0.182   5.348 -30.121  1.00  0.00     0.072 A 
HETATM   18  C   UNL     1       0.137   6.285 -29.132  1.00  0.00     0.104 A 
HETATM   19  C   UNL     1      -0.203   7.628 -29.287  1.00  0.00     0.103 A 
HETATM   20  O   UNL     1       0.794   5.803 -28.028  1.00  0.00    -0.346 OA
HETATM   21  O   UNL     1       0.126   8.597 -28.372  1.00  0.00    -0.346 OA
HETATM   22  C   UNL     1       1.104   8.133 -27.434  1.00  0.00     0.202 C 
HETATM   23  C   UNL     1       0.750   6.740 -26.943  1.00  0.00     0.202 C 
ENDBRANCH   8  11
ENDBRANCH   6   7
ENDBRANCH   1   6
BRANCH   1  24
HETATM   24  C   UNL     1      -5.209   3.224 -32.001  1.00  0.00     0.338 C 
BRANCH  24  25
HETATM   25  C   UNL     1      -4.417   1.973 -32.398  1.00  0.00     0.248 C 
HETATM   26  N   UNL     1      -5.174   0.820 -32.407  1.00  0.00    -0.323 N 
HETATM   27  H   UNL     1      -6.160   0.876 -32.158  1.00  0.00     0.169 HD
HETATM   28  O   UNL     1      -3.235   2.093 -32.713  1.00  0.00    -0.271 OA
BRANCH  26  29
HETATM   29  C   UNL     1      -4.765  -0.481 -32.784  1.00  0.00     0.077 A 
HETATM   30  C   UNL     1      -3.883  -1.137 -31.910  1.00  0.00     0.184 A 
HETATM   31  F   UNL     1      -3.494  -0.503 -30.791  1.00  0.00    -0.200 F 
HETATM   32  C   UNL     1      -3.427  -2.421 -32.173  1.00  0.00     0.195 A 
HETATM   33  F   UNL     1      -2.597  -3.028 -31.314  1.00  0.00    -0.199 F 
HETATM   34  C   UNL     1      -3.843  -3.066 -33.325  1.00  0.00     0.158 A 
HETATM   35  F   UNL     1      -3.414  -4.305 -33.598  1.00  0.00    -0.203 F 
HETATM   36  C   UNL     1      -4.713  -2.434 -34.212  1.00  0.00     0.048 A 
HETATM   37  C   UNL     1      -5.178  -1.140 -33.943  1.00  0.00     0.036 A 
ENDBRANCH  26  29
ENDBRANCH  24  25
ENDBRANCH   1  24
TORSDOF 8
ENDMDL
