MODEL 1
REMARK VINA RESULT:      -9.0      0.000      0.000
REMARK  7 active torsions:
REMARK  status: ('A' for Active; 'I' for Inactive)
REMARK    1  A    between atoms: C_2  and  O_3 
REMARK    2  A    between atoms: O_3  and  C_4 
REMARK    3  A    between atoms: C_5  and  N_6 
REMARK       I    between atoms: N_6  and  C_7 
REMARK    4  A    between atoms: C_7  and  C_8 
REMARK    5  A    between atoms: C_8  and  S_9 
REMARK    6  A    between atoms: S_9  and  C_10 
REMARK    7  A    between atoms: N_11  and  C_12 
ROOT
HETATM    1  C   UNL     1      -6.224   0.776 -31.678  1.00  0.00     0.177 A 
HETATM    2  N   UNL     1      -6.955   0.199 -32.740  1.00  0.00    -0.276 N 
HETATM    3  C   UNL     1      -6.357  -0.917 -33.435  1.00  0.00     0.124 A 
HETATM    4  N   UNL     1      -6.903  -1.486 -34.493  1.00  0.00    -0.384 N 
HETATM    5  H   UNL     1      -6.445  -2.249 -34.968  1.00  0.00     0.157 HD
HETATM    6  H   UNL     1      -7.784  -1.144 -34.855  1.00  0.00     0.157 HD
HETATM    7  C   UNL     1      -5.092  -1.364 -32.948  1.00  0.00     0.081 A 
HETATM    8  C   UNL     1      -4.506  -0.677 -31.890  1.00  0.00     0.187 A 
HETATM    9  N   UNL     1      -3.334  -1.189 -31.540  1.00  0.00    -0.153 NA
HETATM   10  N   UNL     1      -3.182  -2.226 -32.384  1.00  0.00    -0.280 N 
HETATM   11  H   UNL     1      -2.341  -2.790 -32.297  1.00  0.00     0.189 HD
HETATM   12  C   UNL     1      -4.219  -2.374 -33.282  1.00  0.00     0.042 A 
HETATM   13  C   UNL     1      -4.216  -3.443 -34.304  1.00  0.00     0.071 C 
HETATM   14  N   UNL     1      -5.045   0.430 -31.247  1.00  0.00    -0.202 NA
ENDROOT
BRANCH   1  15
HETATM   15  S   UNL     1      -6.915   2.174 -30.805  1.00  0.00    -0.082 SA
BRANCH  15  16
HETATM   16  C   UNL     1      -5.386   2.945 -30.202  1.00  0.00     0.185 C 
BRANCH  16  17
HETATM   17  C   UNL     1      -4.858   3.950 -31.214  1.00  0.00     0.232 C 
HETATM   18  N   UNL     1      -3.808   3.451 -31.974  1.00  0.00    -0.324 N 
HETATM   19  H   UNL     1      -3.882   2.481 -32.253  1.00  0.00     0.169 HD
HETATM   20  O   UNL     1      -5.370   5.058 -31.372  1.00  0.00    -0.272 OA
BRANCH  18  21
HETATM   21  C   UNL     1      -2.965   4.276 -32.747  1.00  0.00     0.068 A 
HETATM   22  C   UNL     1      -1.769   4.817 -32.244  1.00  0.00     0.095 A 
HETATM   23  C   UNL     1      -0.960   5.610 -33.062  1.00  0.00     0.039 A 
HETATM   24  C   UNL     1      -1.347   5.878 -34.377  1.00  0.00     0.003 A 
HETATM   25  C   UNL     1      -2.516   5.319 -34.889  1.00  0.00     0.002 A 
HETATM   26  C   UNL     1      -3.314   4.503 -34.082  1.00  0.00     0.032 A 
BRANCH  22  27
HETATM   27  O   UNL     1      -1.282   4.376 -31.037  1.00  0.00    -0.349 OA
BRANCH  27  28
HETATM   28  C   UNL     1      -0.507   5.357 -30.344  1.00  0.00     0.171 C 
HETATM   29  C   UNL     1       0.784   4.733 -29.850  1.00  0.00     0.034 C 
ENDBRANCH  27  28
ENDBRANCH  22  27
ENDBRANCH  18  21
ENDBRANCH  16  17
ENDBRANCH  15  16
ENDBRANCH   1  15
BRANCH   2  30
HETATM   30  C   UNL     1      -8.244   0.674 -33.123  1.00  0.00     0.043 A 
HETATM   31  C   UNL     1      -8.381   1.752 -34.011  1.00  0.00     0.031 A 
HETATM   32  C   UNL     1      -9.647   2.160 -34.439  1.00  0.00     0.021 A 
HETATM   33  C   UNL     1     -10.781   1.483 -33.992  1.00  0.00     0.011 A 
HETATM   34 BR   UNL     1     -12.491   2.026 -34.584  1.00  0.00    -0.051 Br
HETATM   35  C   UNL     1     -10.661   0.406 -33.117  1.00  0.00     0.021 A 
HETATM   36  C   UNL     1      -9.395   0.003 -32.683  1.00  0.00     0.031 A 
ENDBRANCH   2  30
TORSDOF 7
ENDMDL
MODEL 2
REMARK VINA RESULT:      -8.8      1.129      2.180
REMARK  7 active torsions:
REMARK  status: ('A' for Active; 'I' for Inactive)
REMARK    1  A    between atoms: C_2  and  O_3 
REMARK    2  A    between atoms: O_3  and  C_4 
REMARK    3  A    between atoms: C_5  and  N_6 
REMARK       I    between atoms: N_6  and  C_7 
REMARK    4  A    between atoms: C_7  and  C_8 
REMARK    5  A    between atoms: C_8  and  S_9 
REMARK    6  A    between atoms: S_9  and  C_10 
REMARK    7  A    between atoms: N_11  and  C_12 
ROOT
HETATM    1  C   UNL     1      -6.006   1.477 -31.616  1.00  0.00     0.177 A 
HETATM    2  N   UNL     1      -6.690   0.586 -32.473  1.00  0.00    -0.276 N 
HETATM    3  C   UNL     1      -6.007  -0.626 -32.861  1.00  0.00     0.124 A 
HETATM    4  N   UNL     1      -6.507  -1.494 -33.719  1.00  0.00    -0.384 N 
HETATM    5  H   UNL     1      -5.991  -2.319 -33.985  1.00  0.00     0.157 HD
HETATM    6  H   UNL     1      -7.411  -1.328 -34.141  1.00  0.00     0.157 HD
HETATM    7  C   UNL     1      -4.711  -0.832 -32.299  1.00  0.00     0.081 A 
HETATM    8  C   UNL     1      -4.180   0.153 -31.472  1.00  0.00     0.187 A 
HETATM    9  N   UNL     1      -2.972  -0.160 -31.024  1.00  0.00    -0.153 NA
HETATM   10  N   UNL     1      -2.739  -1.368 -31.567  1.00  0.00    -0.280 N 
HETATM   11  H   UNL     1      -1.857  -1.824 -31.351  1.00  0.00     0.189 HD
HETATM   12  C   UNL     1      -3.762  -1.826 -32.372  1.00  0.00     0.042 A 
HETATM   13  C   UNL     1      -3.676  -3.124 -33.076  1.00  0.00     0.071 C 
HETATM   14  N   UNL     1      -4.803   1.346 -31.134  1.00  0.00    -0.202 NA
ENDROOT
BRANCH   1  15
HETATM   15  S   UNL     1      -6.803   3.000 -31.129  1.00  0.00    -0.082 SA
BRANCH  15  16
HETATM   16  C   UNL     1      -5.503   3.703 -30.076  1.00  0.00     0.185 C 
BRANCH  16  17
HETATM   17  C   UNL     1      -4.650   4.686 -30.863  1.00  0.00     0.232 C 
HETATM   18  N   UNL     1      -3.307   4.333 -30.893  1.00  0.00    -0.324 N 
HETATM   19  H   UNL     1      -3.109   3.344 -30.982  1.00  0.00     0.169 HD
HETATM   20  O   UNL     1      -5.132   5.649 -31.460  1.00  0.00    -0.272 OA
BRANCH  18  21
HETATM   21  C   UNL     1      -2.290   5.227 -31.287  1.00  0.00     0.068 A 
HETATM   22  C   UNL     1      -1.707   5.193 -32.566  1.00  0.00     0.095 A 
HETATM   23  C   UNL     1      -0.718   6.119 -32.909  1.00  0.00     0.039 A 
HETATM   24  C   UNL     1      -0.299   7.071 -31.978  1.00  0.00     0.003 A 
HETATM   25  C   UNL     1      -0.897   7.128 -30.720  1.00  0.00     0.002 A 
HETATM   26  C   UNL     1      -1.905   6.221 -30.382  1.00  0.00     0.032 A 
BRANCH  22  27
HETATM   27  O   UNL     1      -2.269   4.410 -33.545  1.00  0.00    -0.349 OA
BRANCH  27  28
HETATM   28  C   UNL     1      -2.360   5.064 -34.813  1.00  0.00     0.171 C 
HETATM   29  C   UNL     1      -3.817   5.201 -35.213  1.00  0.00     0.034 C 
ENDBRANCH  27  28
ENDBRANCH  22  27
ENDBRANCH  18  21
ENDBRANCH  16  17
ENDBRANCH  15  16
ENDBRANCH   1  15
BRANCH   2  30
HETATM   30  C   UNL     1      -8.011   0.844 -32.942  1.00  0.00     0.043 A 
HETATM   31  C   UNL     1      -8.236   1.694 -34.035  1.00  0.00     0.031 A 
HETATM   32  C   UNL     1      -9.528   1.881 -34.534  1.00  0.00     0.021 A 
HETATM   33  C   UNL     1     -10.600   1.207 -33.950  1.00  0.00     0.011 A 
HETATM   34 BR   UNL     1     -12.344   1.447 -34.634  1.00  0.00    -0.051 Br
HETATM   35  C   UNL     1     -10.392   0.354 -32.868  1.00  0.00     0.021 A 
HETATM   36  C   UNL     1      -9.101   0.173 -32.365  1.00  0.00     0.031 A 
ENDBRANCH   2  30
TORSDOF 7
ENDMDL
MODEL 3
REMARK VINA RESULT:      -8.5      3.359      7.408
REMARK  7 active torsions:
REMARK  status: ('A' for Active; 'I' for Inactive)
REMARK    1  A    between atoms: C_2  and  O_3 
REMARK    2  A    between atoms: O_3  and  C_4 
REMARK    3  A    between atoms: C_5  and  N_6 
REMARK       I    between atoms: N_6  and  C_7 
REMARK    4  A    between atoms: C_7  and  C_8 
REMARK    5  A    between atoms: C_8  and  S_9 
REMARK    6  A    between atoms: S_9  and  C_10 
REMARK    7  A    between atoms: N_11  and  C_12 
ROOT
HETATM    1  C   UNL     1      -6.082   2.296 -31.696  1.00  0.00     0.177 A 
HETATM    2  N   UNL     1      -6.312   3.490 -32.416  1.00  0.00    -0.276 N 
HETATM    3  C   UNL     1      -7.642   3.716 -32.930  1.00  0.00     0.124 A 
HETATM    4  N   UNL     1      -7.959   4.750 -33.685  1.00  0.00    -0.384 N 
HETATM    5  H   UNL     1      -8.894   4.863 -34.046  1.00  0.00     0.157 HD
HETATM    6  H   UNL     1      -7.255   5.433 -33.932  1.00  0.00     0.157 HD
HETATM    7  C   UNL     1      -8.619   2.724 -32.617  1.00  0.00     0.081 A 
HETATM    8  C   UNL     1      -8.223   1.602 -31.897  1.00  0.00     0.187 A 
HETATM    9  N   UNL     1      -9.223   0.759 -31.681  1.00  0.00    -0.153 NA
HETATM   10  N   UNL     1     -10.274   1.364 -32.263  1.00  0.00    -0.280 N 
HETATM   11  H   UNL     1     -11.176   0.899 -32.216  1.00  0.00     0.189 HD
HETATM   12  C   UNL     1      -9.963   2.564 -32.869  1.00  0.00     0.042 A 
HETATM   13  C   UNL     1     -10.984   3.362 -33.582  1.00  0.00     0.071 C 
HETATM   14  N   UNL     1      -6.936   1.346 -31.444  1.00  0.00    -0.202 NA
ENDROOT
BRANCH   1  15
HETATM   15  S   UNL     1      -4.444   1.964 -31.062  1.00  0.00    -0.082 SA
BRANCH  15  16
HETATM   16  C   UNL     1      -3.743   1.072 -32.479  1.00  0.00     0.185 C 
BRANCH  16  17
HETATM   17  C   UNL     1      -4.232  -0.368 -32.500  1.00  0.00     0.232 C 
HETATM   18  N   UNL     1      -4.348  -0.881 -33.786  1.00  0.00    -0.324 N 
HETATM   19  H   UNL     1      -3.627  -0.607 -34.441  1.00  0.00     0.169 HD
HETATM   20  O   UNL     1      -4.430  -1.013 -31.471  1.00  0.00    -0.272 OA
BRANCH  18  21
HETATM   21  C   UNL     1      -5.061  -2.062 -34.075  1.00  0.00     0.068 A 
HETATM   22  C   UNL     1      -6.465  -2.127 -34.036  1.00  0.00     0.095 A 
HETATM   23  C   UNL     1      -7.120  -3.320 -34.355  1.00  0.00     0.039 A 
HETATM   24  C   UNL     1      -6.380  -4.453 -34.700  1.00  0.00     0.003 A 
HETATM   25  C   UNL     1      -4.989  -4.383 -34.771  1.00  0.00     0.002 A 
HETATM   26  C   UNL     1      -4.332  -3.186 -34.479  1.00  0.00     0.032 A 
BRANCH  22  27
HETATM   27  O   UNL     1      -7.193  -0.968 -33.915  1.00  0.00    -0.349 OA
BRANCH  27  28
HETATM   28  C   UNL     1      -7.586  -0.411 -35.172  1.00  0.00     0.171 C 
HETATM   29  C   UNL     1      -6.976   0.969 -35.332  1.00  0.00     0.034 C 
ENDBRANCH  27  28
ENDBRANCH  22  27
ENDBRANCH  18  21
ENDBRANCH  16  17
ENDBRANCH  15  16
ENDBRANCH   1  15
BRANCH   2  30
HETATM   30  C   UNL     1      -5.287   4.458 -32.632  1.00  0.00     0.043 A 
HETATM   31  C   UNL     1      -4.975   5.410 -31.649  1.00  0.00     0.031 A 
HETATM   32  C   UNL     1      -3.919   6.305 -31.839  1.00  0.00     0.021 A 
HETATM   33  C   UNL     1      -3.160   6.242 -33.007  1.00  0.00     0.011 A 
HETATM   34 BR   UNL     1      -1.722   7.441 -33.256  1.00  0.00    -0.051 Br
HETATM   35  C   UNL     1      -3.451   5.297 -33.988  1.00  0.00     0.021 A 
HETATM   36  C   UNL     1      -4.512   4.408 -33.802  1.00  0.00     0.031 A 
ENDBRANCH   2  30
TORSDOF 7
ENDMDL
MODEL 4
REMARK VINA RESULT:      -8.5      3.255      5.635
REMARK  7 active torsions:
REMARK  status: ('A' for Active; 'I' for Inactive)
REMARK    1  A    between atoms: C_2  and  O_3 
REMARK    2  A    between atoms: O_3  and  C_4 
REMARK    3  A    between atoms: C_5  and  N_6 
REMARK       I    between atoms: N_6  and  C_7 
REMARK    4  A    between atoms: C_7  and  C_8 
REMARK    5  A    between atoms: C_8  and  S_9 
REMARK    6  A    between atoms: S_9  and  C_10 
REMARK    7  A    between atoms: N_11  and  C_12 
ROOT
HETATM    1  C   UNL     1      -9.301   3.023 -33.930  1.00  0.00     0.177 A 
HETATM    2  N   UNL     1      -9.554   1.649 -33.717  1.00  0.00    -0.276 N 
HETATM    3  C   UNL     1     -10.920   1.250 -33.478  1.00  0.00     0.124 A 
HETATM    4  N   UNL     1     -11.271   0.012 -33.185  1.00  0.00    -0.384 N 
HETATM    5  H   UNL     1     -12.234  -0.226 -33.001  1.00  0.00     0.157 HD
HETATM    6  H   UNL     1     -10.569  -0.712 -33.120  1.00  0.00     0.157 HD
HETATM    7  C   UNL     1     -11.902   2.286 -33.524  1.00  0.00     0.081 A 
HETATM    8  C   UNL     1     -11.480   3.594 -33.742  1.00  0.00     0.187 A 
HETATM    9  N   UNL     1     -12.487   4.456 -33.756  1.00  0.00    -0.153 NA
HETATM   10  N   UNL     1     -13.567   3.678 -33.556  1.00  0.00    -0.280 N 
HETATM   11  H   UNL     1     -14.478   4.127 -33.537  1.00  0.00     0.189 HD
HETATM   12  C   UNL     1     -13.270   2.341 -33.390  1.00  0.00     0.042 A 
HETATM   13  C   UNL     1     -14.326   1.337 -33.133  1.00  0.00     0.071 C 
HETATM   14  N   UNL     1     -10.164   3.998 -33.921  1.00  0.00    -0.202 NA
ENDROOT
BRANCH   1  15
HETATM   15  S   UNL     1      -7.621   3.566 -34.207  1.00  0.00    -0.082 SA
BRANCH  15  16
HETATM   16  C   UNL     1      -7.622   5.084 -33.213  1.00  0.00     0.185 C 
BRANCH  16  17
HETATM   17  C   UNL     1      -6.222   5.671 -33.130  1.00  0.00     0.232 C 
HETATM   18  N   UNL     1      -5.272   4.899 -33.787  1.00  0.00    -0.324 N 
HETATM   19  H   UNL     1      -5.568   4.477 -34.658  1.00  0.00     0.169 HD
HETATM   20  O   UNL     1      -5.990   6.754 -32.592  1.00  0.00    -0.272 OA
BRANCH  18  21
HETATM   21  C   UNL     1      -3.886   5.066 -33.594  1.00  0.00     0.068 A 
HETATM   22  C   UNL     1      -3.231   4.654 -32.420  1.00  0.00     0.095 A 
HETATM   23  C   UNL     1      -1.850   4.824 -32.292  1.00  0.00     0.039 A 
HETATM   24  C   UNL     1      -1.119   5.415 -33.325  1.00  0.00     0.003 A 
HETATM   25  C   UNL     1      -1.760   5.795 -34.504  1.00  0.00     0.002 A 
HETATM   26  C   UNL     1      -3.137   5.603 -34.646  1.00  0.00     0.032 A 
BRANCH  22  27
HETATM   27  O   UNL     1      -3.904   3.879 -31.506  1.00  0.00    -0.349 OA
BRANCH  27  28
HETATM   28  C   UNL     1      -3.314   2.592 -31.308  1.00  0.00     0.171 C 
HETATM   29  C   UNL     1      -3.811   1.634 -32.374  1.00  0.00     0.034 C 
ENDBRANCH  27  28
ENDBRANCH  22  27
ENDBRANCH  18  21
ENDBRANCH  16  17
ENDBRANCH  15  16
ENDBRANCH   1  15
BRANCH   2  30
HETATM   30  C   UNL     1      -8.517   0.671 -33.746  1.00  0.00     0.043 A 
HETATM   31  C   UNL     1      -8.082   0.117 -34.960  1.00  0.00     0.031 A 
HETATM   32  C   UNL     1      -7.013  -0.784 -34.985  1.00  0.00     0.021 A 
HETATM   33  C   UNL     1      -6.366  -1.123 -33.797  1.00  0.00     0.011 A 
HETATM   34 BR   UNL     1      -4.912  -2.328 -33.833  1.00  0.00    -0.051 Br
HETATM   35  C   UNL     1      -6.781  -0.575 -32.585  1.00  0.00     0.021 A 
HETATM   36  C   UNL     1      -7.854   0.319 -32.560  1.00  0.00     0.031 A 
ENDBRANCH   2  30
TORSDOF 7
ENDMDL
MODEL 5
REMARK VINA RESULT:      -8.3      1.699      2.556
REMARK  7 active torsions:
REMARK  status: ('A' for Active; 'I' for Inactive)
REMARK    1  A    between atoms: C_2  and  O_3 
REMARK    2  A    between atoms: O_3  and  C_4 
REMARK    3  A    between atoms: C_5  and  N_6 
REMARK       I    between atoms: N_6  and  C_7 
REMARK    4  A    between atoms: C_7  and  C_8 
REMARK    5  A    between atoms: C_8  and  S_9 
REMARK    6  A    between atoms: S_9  and  C_10 
REMARK    7  A    between atoms: N_11  and  C_12 
ROOT
HETATM    1  C   UNL     1      -5.213   1.582 -31.982  1.00  0.00     0.177 A 
HETATM    2  N   UNL     1      -6.050   0.583 -32.528  1.00  0.00    -0.276 N 
HETATM    3  C   UNL     1      -5.497  -0.741 -32.685  1.00  0.00     0.124 A 
HETATM    4  N   UNL     1      -6.150  -1.735 -33.256  1.00  0.00    -0.384 N 
HETATM    5  H   UNL     1      -5.723  -2.641 -33.370  1.00  0.00     0.157 HD
HETATM    6  H   UNL     1      -7.087  -1.589 -33.610  1.00  0.00     0.157 HD
HETATM    7  C   UNL     1      -4.157  -0.927 -32.227  1.00  0.00     0.081 A 
HETATM    8  C   UNL     1      -3.470   0.169 -31.717  1.00  0.00     0.187 A 
HETATM    9  N   UNL     1      -2.238  -0.139 -31.334  1.00  0.00    -0.153 NA
HETATM   10  N   UNL     1      -2.149  -1.455 -31.596  1.00  0.00    -0.280 N 
HETATM   11  H   UNL     1      -1.277  -1.926 -31.370  1.00  0.00     0.189 HD
HETATM   12  C   UNL     1      -3.288  -1.992 -32.160  1.00  0.00     0.042 A 
HETATM   13  C   UNL     1      -3.369  -3.419 -32.539  1.00  0.00     0.071 C 
HETATM   14  N   UNL     1      -3.972   1.459 -31.609  1.00  0.00    -0.202 NA
ENDROOT
BRANCH   1  15
HETATM   15  S   UNL     1      -5.849   3.241 -31.792  1.00  0.00    -0.082 SA
BRANCH  15  16
HETATM   16  C   UNL     1      -5.350   3.946 -33.388  1.00  0.00     0.185 C 
BRANCH  16  17
HETATM   17  C   UNL     1      -4.211   4.936 -33.204  1.00  0.00     0.232 C 
HETATM   18  N   UNL     1      -3.286   4.524 -32.254  1.00  0.00    -0.324 N 
HETATM   19  H   UNL     1      -3.072   3.535 -32.241  1.00  0.00     0.169 HD
HETATM   20  O   UNL     1      -4.105   5.955 -33.886  1.00  0.00    -0.272 OA
BRANCH  18  21
HETATM   21  C   UNL     1      -2.328   5.394 -31.693  1.00  0.00     0.068 A 
HETATM   22  C   UNL     1      -2.648   6.325 -30.689  1.00  0.00     0.095 A 
HETATM   23  C   UNL     1      -1.653   7.147 -30.153  1.00  0.00     0.039 A 
HETATM   24  C   UNL     1      -0.342   7.054 -30.624  1.00  0.00     0.003 A 
HETATM   25  C   UNL     1      -0.014   6.111 -31.597  1.00  0.00     0.002 A 
HETATM   26  C   UNL     1      -1.001   5.269 -32.116  1.00  0.00     0.032 A 
BRANCH  22  27
HETATM   27  O   UNL     1      -3.876   6.263 -30.075  1.00  0.00    -0.349 OA
BRANCH  27  28
HETATM   28  C   UNL     1      -4.645   7.460 -30.219  1.00  0.00     0.171 C 
HETATM   29  C   UNL     1      -5.987   7.132 -30.847  1.00  0.00     0.034 C 
ENDBRANCH  27  28
ENDBRANCH  22  27
ENDBRANCH  18  21
ENDBRANCH  16  17
ENDBRANCH  15  16
ENDBRANCH   1  15
BRANCH   2  30
HETATM   30  C   UNL     1      -7.400   0.844 -32.905  1.00  0.00     0.043 A 
HETATM   31  C   UNL     1      -7.723   1.220 -34.218  1.00  0.00     0.031 A 
HETATM   32  C   UNL     1      -9.056   1.399 -34.597  1.00  0.00     0.021 A 
HETATM   33  C   UNL     1     -10.074   1.190 -33.667  1.00  0.00     0.011 A 
HETATM   34 BR   UNL     1     -11.877   1.416 -34.184  1.00  0.00    -0.051 Br
HETATM   35  C   UNL     1      -9.771   0.809 -32.362  1.00  0.00     0.021 A 
HETATM   36  C   UNL     1      -8.437   0.637 -31.982  1.00  0.00     0.031 A 
ENDBRANCH   2  30
TORSDOF 7
ENDMDL
MODEL 6
REMARK VINA RESULT:      -8.2      4.511      8.005
REMARK  7 active torsions:
REMARK  status: ('A' for Active; 'I' for Inactive)
REMARK    1  A    between atoms: C_2  and  O_3 
REMARK    2  A    between atoms: O_3  and  C_4 
REMARK    3  A    between atoms: C_5  and  N_6 
REMARK       I    between atoms: N_6  and  C_7 
REMARK    4  A    between atoms: C_7  and  C_8 
REMARK    5  A    between atoms: C_8  and  S_9 
REMARK    6  A    between atoms: S_9  and  C_10 
REMARK    7  A    between atoms: N_11  and  C_12 
ROOT
HETATM    1  C   UNL     1     -11.135   2.431 -33.745  1.00  0.00     0.177 A 
HETATM    2  N   UNL     1     -11.489   3.097 -32.551  1.00  0.00    -0.276 N 
HETATM    3  C   UNL     1     -12.873   3.053 -32.144  1.00  0.00     0.124 A 
HETATM    4  N   UNL     1     -13.340   3.704 -31.095  1.00  0.00    -0.384 N 
HETATM    5  H   UNL     1     -14.319   3.668 -30.855  1.00  0.00     0.157 HD
HETATM    6  H   UNL     1     -12.719   4.268 -30.530  1.00  0.00     0.157 HD
HETATM    7  C   UNL     1     -13.754   2.294 -32.973  1.00  0.00     0.081 A 
HETATM    8  C   UNL     1     -13.241   1.701 -34.122  1.00  0.00     0.187 A 
HETATM    9  N   UNL     1     -14.163   1.033 -34.802  1.00  0.00    -0.153 NA
HETATM   10  N   UNL     1     -15.275   1.196 -34.064  1.00  0.00    -0.280 N 
HETATM   11  H   UNL     1     -16.130   0.753 -34.390  1.00  0.00     0.189 HD
HETATM   12  C   UNL     1     -15.092   1.973 -32.940  1.00  0.00     0.042 A 
HETATM   13  C   UNL     1     -16.207   2.284 -32.019  1.00  0.00     0.071 C 
HETATM   14  N   UNL     1     -11.923   1.780 -34.552  1.00  0.00    -0.202 NA
ENDROOT
BRANCH   1  15
HETATM   15  S   UNL     1      -9.437   2.479 -34.299  1.00  0.00    -0.082 SA
BRANCH  15  16
HETATM   16  C   UNL     1      -9.096   0.699 -34.397  1.00  0.00     0.185 C 
BRANCH  16  17
HETATM   17  C   UNL     1      -7.605   0.431 -34.269  1.00  0.00     0.232 C 
HETATM   18  N   UNL     1      -7.312  -0.571 -33.354  1.00  0.00    -0.324 N 
HETATM   19  H   UNL     1      -7.946  -1.360 -33.340  1.00  0.00     0.169 HD
HETATM   20  O   UNL     1      -6.769   1.008 -34.965  1.00  0.00    -0.272 OA
BRANCH  18  21
HETATM   21  C   UNL     1      -6.016  -0.783 -32.841  1.00  0.00     0.068 A 
HETATM   22  C   UNL     1      -5.102  -1.670 -33.438  1.00  0.00     0.095 A 
HETATM   23  C   UNL     1      -3.822  -1.823 -32.900  1.00  0.00     0.039 A 
HETATM   24  C   UNL     1      -3.452  -1.106 -31.760  1.00  0.00     0.003 A 
HETATM   25  C   UNL     1      -4.344  -0.203 -31.184  1.00  0.00     0.002 A 
HETATM   26  C   UNL     1      -5.616  -0.026 -31.735  1.00  0.00     0.032 A 
BRANCH  22  27
HETATM   27  O   UNL     1      -5.384  -2.201 -34.674  1.00  0.00    -0.349 OA
BRANCH  27  28
HETATM   28  C   UNL     1      -5.302  -3.628 -34.711  1.00  0.00     0.171 C 
HETATM   29  C   UNL     1      -6.657  -4.208 -35.071  1.00  0.00     0.034 C 
ENDBRANCH  27  28
ENDBRANCH  22  27
ENDBRANCH  18  21
ENDBRANCH  16  17
ENDBRANCH  15  16
ENDBRANCH   1  15
BRANCH   2  30
HETATM   30  C   UNL     1     -10.529   3.785 -31.751  1.00  0.00     0.043 A 
HETATM   31  C   UNL     1     -10.425   5.184 -31.791  1.00  0.00     0.031 A 
HETATM   32  C   UNL     1      -9.534   5.853 -30.947  1.00  0.00     0.021 A 
HETATM   33  C   UNL     1      -8.754   5.126 -30.049  1.00  0.00     0.011 A 
HETATM   34 BR   UNL     1      -7.562   6.032 -28.898  1.00  0.00    -0.051 Br
HETATM   35  C   UNL     1      -8.852   3.738 -29.991  1.00  0.00     0.021 A 
HETATM   36  C   UNL     1      -9.737   3.069 -30.840  1.00  0.00     0.031 A 
ENDBRANCH   2  30
TORSDOF 7
ENDMDL
MODEL 7
REMARK VINA RESULT:      -8.1      3.282      5.448
REMARK  7 active torsions:
REMARK  status: ('A' for Active; 'I' for Inactive)
REMARK    1  A    between atoms: C_2  and  O_3 
REMARK    2  A    between atoms: O_3  and  C_4 
REMARK    3  A    between atoms: C_5  and  N_6 
REMARK       I    between atoms: N_6  and  C_7 
REMARK    4  A    between atoms: C_7  and  C_8 
REMARK    5  A    between atoms: C_8  and  S_9 
REMARK    6  A    between atoms: S_9  and  C_10 
REMARK    7  A    between atoms: N_11  and  C_12 
ROOT
HETATM    1  C   UNL     1      -8.819   3.133 -33.714  1.00  0.00     0.177 A 
HETATM    2  N   UNL     1      -9.179   1.772 -33.600  1.00  0.00    -0.276 N 
HETATM    3  C   UNL     1     -10.569   1.464 -33.365  1.00  0.00     0.124 A 
HETATM    4  N   UNL     1     -11.014   0.240 -33.159  1.00  0.00    -0.384 N 
HETATM    5  H   UNL     1     -11.991   0.065 -32.974  1.00  0.00     0.157 HD
HETATM    6  H   UNL     1     -10.371  -0.541 -33.161  1.00  0.00     0.157 HD
HETATM    7  C   UNL     1     -11.465   2.575 -33.316  1.00  0.00     0.081 A 
HETATM    8  C   UNL     1     -10.942   3.858 -33.444  1.00  0.00     0.187 A 
HETATM    9  N   UNL     1     -11.878   4.796 -33.374  1.00  0.00    -0.153 NA
HETATM   10  N   UNL     1     -13.013   4.093 -33.212  1.00  0.00    -0.280 N 
HETATM   11  H   UNL     1     -13.886   4.610 -33.143  1.00  0.00     0.189 HD
HETATM   12  C   UNL     1     -12.823   2.728 -33.151  1.00  0.00     0.042 A 
HETATM   13  C   UNL     1     -13.952   1.793 -32.951  1.00  0.00     0.071 C 
HETATM   14  N   UNL     1      -9.601   4.170 -33.617  1.00  0.00    -0.202 NA
ENDROOT
BRANCH   1  15
HETATM   15  S   UNL     1      -7.105   3.561 -33.982  1.00  0.00    -0.082 SA
BRANCH  15  16
HETATM   16  C   UNL     1      -6.725   4.321 -32.378  1.00  0.00     0.185 C 
BRANCH  16  17
HETATM   17  C   UNL     1      -5.249   4.676 -32.291  1.00  0.00     0.232 C 
HETATM   18  N   UNL     1      -4.886   5.696 -33.160  1.00  0.00    -0.324 N 
HETATM   19  H   UNL     1      -5.557   6.446 -33.271  1.00  0.00     0.169 HD
HETATM   20  O   UNL     1      -4.490   4.150 -31.477  1.00  0.00    -0.272 OA
BRANCH  18  21
HETATM   21  C   UNL     1      -3.544   5.986 -33.481  1.00  0.00     0.068 A 
HETATM   22  C   UNL     1      -2.832   7.037 -32.877  1.00  0.00     0.095 A 
HETATM   23  C   UNL     1      -1.495   7.264 -33.217  1.00  0.00     0.039 A 
HETATM   24  C   UNL     1      -0.869   6.455 -34.168  1.00  0.00     0.003 A 
HETATM   25  C   UNL     1      -1.563   5.392 -34.746  1.00  0.00     0.002 A 
HETATM   26  C   UNL     1      -2.891   5.145 -34.389  1.00  0.00     0.032 A 
BRANCH  22  27
HETATM   27  O   UNL     1      -3.372   7.684 -31.792  1.00  0.00    -0.349 OA
BRANCH  27  28
HETATM   28  C   UNL     1      -2.842   7.237 -30.542  1.00  0.00     0.171 C 
HETATM   29  C   UNL     1      -2.291   8.421 -29.769  1.00  0.00     0.034 C 
ENDBRANCH  27  28
ENDBRANCH  22  27
ENDBRANCH  18  21
ENDBRANCH  16  17
ENDBRANCH  15  16
ENDBRANCH   1  15
BRANCH   2  30
HETATM   30  C   UNL     1      -8.224   0.720 -33.721  1.00  0.00     0.043 A 
HETATM   31  C   UNL     1      -7.945   0.138 -34.967  1.00  0.00     0.031 A 
HETATM   32  C   UNL     1      -6.953  -0.839 -35.088  1.00  0.00     0.021 A 
HETATM   33  C   UNL     1      -6.225  -1.228 -33.964  1.00  0.00     0.011 A 
HETATM   34 BR   UNL     1      -4.873  -2.537 -34.130  1.00  0.00    -0.051 Br
HETATM   35  C   UNL     1      -6.484  -0.654 -32.721  1.00  0.00     0.021 A 
HETATM   36  C   UNL     1      -7.481   0.316 -32.600  1.00  0.00     0.031 A 
ENDBRANCH   2  30
TORSDOF 7
ENDMDL
MODEL 8
REMARK VINA RESULT:      -8.0      4.076      7.981
REMARK  7 active torsions:
REMARK  status: ('A' for Active; 'I' for Inactive)
REMARK    1  A    between atoms: C_2  and  O_3 
REMARK    2  A    between atoms: O_3  and  C_4 
REMARK    3  A    between atoms: C_5  and  N_6 
REMARK       I    between atoms: N_6  and  C_7 
REMARK    4  A    between atoms: C_7  and  C_8 
REMARK    5  A    between atoms: C_8  and  S_9 
REMARK    6  A    between atoms: S_9  and  C_10 
REMARK    7  A    between atoms: N_11  and  C_12 
ROOT
HETATM    1  C   UNL     1      -9.478   2.996 -33.381  1.00  0.00     0.177 A 
HETATM    2  N   UNL     1      -8.989   4.303 -33.601  1.00  0.00    -0.276 N 
HETATM    3  C   UNL     1      -9.856   5.235 -34.283  1.00  0.00     0.124 A 
HETATM    4  N   UNL     1      -9.483   6.456 -34.619  1.00  0.00    -0.384 N 
HETATM    5  H   UNL     1     -10.108   7.072 -35.116  1.00  0.00     0.157 HD
HETATM    6  H   UNL     1      -8.550   6.780 -34.399  1.00  0.00     0.157 HD
HETATM    7  C   UNL     1     -11.154   4.756 -34.631  1.00  0.00     0.081 A 
HETATM    8  C   UNL     1     -11.475   3.434 -34.344  1.00  0.00     0.187 A 
HETATM    9  N   UNL     1     -12.706   3.117 -34.724  1.00  0.00    -0.153 NA
HETATM   10  N   UNL     1     -13.175   4.262 -35.251  1.00  0.00    -0.280 N 
HETATM   11  H   UNL     1     -14.127   4.265 -35.607  1.00  0.00     0.189 HD
HETATM   12  C   UNL     1     -12.265   5.298 -35.238  1.00  0.00     0.042 A 
HETATM   13  C   UNL     1     -12.592   6.628 -35.797  1.00  0.00     0.071 C 
HETATM   14  N   UNL     1     -10.633   2.511 -33.737  1.00  0.00    -0.202 NA
ENDROOT
BRANCH   1  15
HETATM   15  S   UNL     1      -8.431   1.802 -32.562  1.00  0.00    -0.082 SA
BRANCH  15  16
HETATM   16  C   UNL     1      -7.770   0.931 -34.010  1.00  0.00     0.185 C 
BRANCH  16  17
HETATM   17  C   UNL     1      -7.020  -0.322 -33.585  1.00  0.00     0.232 C 
HETATM   18  N   UNL     1      -6.336  -0.924 -34.633  1.00  0.00    -0.324 N 
HETATM   19  H   UNL     1      -5.893  -0.298 -35.294  1.00  0.00     0.169 HD
HETATM   20  O   UNL     1      -6.981  -0.703 -32.415  1.00  0.00    -0.272 OA
BRANCH  18  21
HETATM   21  C   UNL     1      -5.833  -2.239 -34.561  1.00  0.00     0.068 A 
HETATM   22  C   UNL     1      -4.526  -2.526 -34.127  1.00  0.00     0.095 A 
HETATM   23  C   UNL     1      -4.088  -3.851 -34.054  1.00  0.00     0.039 A 
HETATM   24  C   UNL     1      -4.942  -4.892 -34.425  1.00  0.00     0.003 A 
HETATM   25  C   UNL     1      -6.248  -4.613 -34.826  1.00  0.00     0.002 A 
HETATM   26  C   UNL     1      -6.699  -3.292 -34.875  1.00  0.00     0.032 A 
BRANCH  22  27
HETATM   27  O   UNL     1      -3.770  -1.531 -33.556  1.00  0.00    -0.349 OA
BRANCH  27  28
HETATM   28  C   UNL     1      -3.592  -1.690 -32.146  1.00  0.00     0.171 C 
HETATM   29  C   UNL     1      -3.556  -0.328 -31.479  1.00  0.00     0.034 C 
ENDBRANCH  27  28
ENDBRANCH  22  27
ENDBRANCH  18  21
ENDBRANCH  16  17
ENDBRANCH  15  16
ENDBRANCH   1  15
BRANCH   2  30
HETATM   30  C   UNL     1      -7.696   4.715 -33.165  1.00  0.00     0.043 A 
HETATM   31  C   UNL     1      -7.501   5.238 -31.877  1.00  0.00     0.031 A 
HETATM   32  C   UNL     1      -6.218   5.567 -31.433  1.00  0.00     0.021 A 
HETATM   33  C   UNL     1      -5.122   5.362 -32.269  1.00  0.00     0.011 A 
HETATM   34 BR   UNL     1      -3.386   5.792 -31.662  1.00  0.00    -0.051 Br
HETATM   35  C   UNL     1      -5.297   4.837 -33.547  1.00  0.00     0.021 A 
HETATM   36  C   UNL     1      -6.581   4.515 -33.994  1.00  0.00     0.031 A 
ENDBRANCH   2  30
TORSDOF 7
ENDMDL
MODEL 9
REMARK VINA RESULT:      -8.0      2.874      7.549
REMARK  7 active torsions:
REMARK  status: ('A' for Active; 'I' for Inactive)
REMARK    1  A    between atoms: C_2  and  O_3 
REMARK    2  A    between atoms: O_3  and  C_4 
REMARK    3  A    between atoms: C_5  and  N_6 
REMARK       I    between atoms: N_6  and  C_7 
REMARK    4  A    between atoms: C_7  and  C_8 
REMARK    5  A    between atoms: C_8  and  S_9 
REMARK    6  A    between atoms: S_9  and  C_10 
REMARK    7  A    between atoms: N_11  and  C_12 
ROOT
HETATM    1  C   UNL     1      -2.899   4.313 -31.618  1.00  0.00     0.177 A 
HETATM    2  N   UNL     1      -3.786   5.127 -30.879  1.00  0.00    -0.276 N 
HETATM    3  C   UNL     1      -3.226   6.252 -30.168  1.00  0.00     0.124 A 
HETATM    4  N   UNL     1      -3.938   7.035 -29.380  1.00  0.00    -0.384 N 
HETATM    5  H   UNL     1      -3.507   7.799 -28.880  1.00  0.00     0.157 HD
HETATM    6  H   UNL     1      -4.925   6.862 -29.250  1.00  0.00     0.157 HD
HETATM    7  C   UNL     1      -1.822   6.463 -30.319  1.00  0.00     0.081 A 
HETATM    8  C   UNL     1      -1.091   5.559 -31.083  1.00  0.00     0.187 A 
HETATM    9  N   UNL     1       0.198   5.866 -31.136  1.00  0.00    -0.153 NA
HETATM   10  N   UNL     1       0.282   6.990 -30.402  1.00  0.00    -0.280 N 
HETATM   11  H   UNL     1       1.194   7.427 -30.305  1.00  0.00     0.189 HD
HETATM   12  C   UNL     1      -0.920   7.396 -29.861  1.00  0.00     0.042 A 
HETATM   13  C   UNL     1      -1.021   8.598 -29.003  1.00  0.00     0.071 C 
HETATM   14  N   UNL     1      -1.608   4.443 -31.728  1.00  0.00    -0.202 NA
ENDROOT
BRANCH   1  15
HETATM   15  S   UNL     1      -3.544   2.895 -32.495  1.00  0.00    -0.082 SA
BRANCH  15  16
HETATM   16  C   UNL     1      -3.327   1.622 -31.220  1.00  0.00     0.185 C 
BRANCH  16  17
HETATM   17  C   UNL     1      -3.720   0.255 -31.757  1.00  0.00     0.232 C 
HETATM   18  N   UNL     1      -4.389   0.323 -32.972  1.00  0.00    -0.324 N 
HETATM   19  H   UNL     1      -4.055   1.019 -33.626  1.00  0.00     0.169 HD
HETATM   20  O   UNL     1      -3.405  -0.792 -31.191  1.00  0.00    -0.272 OA
BRANCH  18  21
HETATM   21  C   UNL     1      -5.113  -0.763 -33.507  1.00  0.00     0.068 A 
HETATM   22  C   UNL     1      -6.518  -0.780 -33.564  1.00  0.00     0.095 A 
HETATM   23  C   UNL     1      -7.182  -1.873 -34.126  1.00  0.00     0.039 A 
HETATM   24  C   UNL     1      -6.452  -2.956 -34.621  1.00  0.00     0.003 A 
HETATM   25  C   UNL     1      -5.058  -2.929 -34.595  1.00  0.00     0.002 A 
HETATM   26  C   UNL     1      -4.390  -1.826 -34.058  1.00  0.00     0.032 A 
BRANCH  22  27
HETATM   27  O   UNL     1      -7.221   0.367 -33.285  1.00  0.00    -0.349 OA
BRANCH  27  28
HETATM   28  C   UNL     1      -7.994   0.282 -32.085  1.00  0.00     0.171 C 
HETATM   29  C   UNL     1      -9.472   0.319 -32.426  1.00  0.00     0.034 C 
ENDBRANCH  27  28
ENDBRANCH  22  27
ENDBRANCH  18  21
ENDBRANCH  16  17
ENDBRANCH  15  16
ENDBRANCH   1  15
BRANCH   2  30
HETATM   30  C   UNL     1      -5.189   4.877 -30.832  1.00  0.00     0.043 A 
HETATM   31  C   UNL     1      -6.045   5.376 -31.825  1.00  0.00     0.031 A 
HETATM   32  C   UNL     1      -7.407   5.061 -31.812  1.00  0.00     0.021 A 
HETATM   33  C   UNL     1      -7.915   4.233 -30.812  1.00  0.00     0.011 A 
HETATM   34 BR   UNL     1      -9.752   3.794 -30.803  1.00  0.00    -0.051 Br
HETATM   35  C   UNL     1      -7.077   3.722 -29.824  1.00  0.00     0.021 A 
HETATM   36  C   UNL     1      -5.717   4.044 -29.833  1.00  0.00     0.031 A 
ENDBRANCH   2  30
TORSDOF 7
ENDMDL
MODEL 10
REMARK VINA RESULT:      -8.0      3.005      5.492
REMARK  7 active torsions:
REMARK  status: ('A' for Active; 'I' for Inactive)
REMARK    1  A    between atoms: C_2  and  O_3 
REMARK    2  A    between atoms: O_3  and  C_4 
REMARK    3  A    between atoms: C_5  and  N_6 
REMARK       I    between atoms: N_6  and  C_7 
REMARK    4  A    between atoms: C_7  and  C_8 
REMARK    5  A    between atoms: C_8  and  S_9 
REMARK    6  A    between atoms: S_9  and  C_10 
REMARK    7  A    between atoms: N_11  and  C_12 
ROOT
HETATM    1  C   UNL     1      -8.398   2.835 -33.759  1.00  0.00     0.177 A 
HETATM    2  N   UNL     1      -8.579   1.489 -33.370  1.00  0.00    -0.276 N 
HETATM    3  C   UNL     1      -9.933   0.998 -33.268  1.00  0.00     0.124 A 
HETATM    4  N   UNL     1     -10.232  -0.213 -32.836  1.00  0.00    -0.384 N 
HETATM    5  H   UNL     1     -11.191  -0.514 -32.756  1.00  0.00     0.157 HD
HETATM    6  H   UNL     1      -9.496  -0.848 -32.558  1.00  0.00     0.157 HD
HETATM    7  C   UNL     1     -10.969   1.916 -33.617  1.00  0.00     0.081 A 
HETATM    8  C   UNL     1     -10.616   3.212 -33.977  1.00  0.00     0.187 A 
HETATM    9  N   UNL     1     -11.670   3.961 -34.271  1.00  0.00    -0.153 NA
HETATM   10  N   UNL     1     -12.707   3.120 -34.106  1.00  0.00    -0.280 N 
HETATM   11  H   UNL     1     -13.641   3.476 -34.289  1.00  0.00     0.189 HD
HETATM   12  C   UNL     1     -12.342   1.857 -33.690  1.00  0.00     0.042 A 
HETATM   13  C   UNL     1     -13.347   0.802 -33.431  1.00  0.00     0.071 C 
HETATM   14  N   UNL     1      -9.322   3.713 -34.028  1.00  0.00    -0.202 NA
ENDROOT
BRANCH   1  15
HETATM   15  S   UNL     1      -6.741   3.492 -33.876  1.00  0.00    -0.082 SA
BRANCH  15  16
HETATM   16  C   UNL     1      -6.661   4.404 -32.309  1.00  0.00     0.185 C 
BRANCH  16  17
HETATM   17  C   UNL     1      -5.437   5.304 -32.274  1.00  0.00     0.232 C 
HETATM   18  N   UNL     1      -4.326   4.685 -31.716  1.00  0.00    -0.324 N 
HETATM   19  H   UNL     1      -4.199   3.707 -31.946  1.00  0.00     0.169 HD
HETATM   20  O   UNL     1      -5.435   6.436 -32.759  1.00  0.00    -0.272 OA
BRANCH  18  21
HETATM   21  C   UNL     1      -3.184   5.397 -31.298  1.00  0.00     0.068 A 
HETATM   22  C   UNL     1      -1.928   5.240 -31.911  1.00  0.00     0.095 A 
HETATM   23  C   UNL     1      -0.834   5.989 -31.469  1.00  0.00     0.039 A 
HETATM   24  C   UNL     1      -0.984   6.886 -30.409  1.00  0.00     0.003 A 
HETATM   25  C   UNL     1      -2.234   7.068 -29.820  1.00  0.00     0.002 A 
HETATM   26  C   UNL     1      -3.336   6.340 -30.276  1.00  0.00     0.032 A 
BRANCH  22  27
HETATM   27  O   UNL     1      -1.832   4.531 -33.084  1.00  0.00    -0.349 OA
BRANCH  27  28
HETATM   28  C   UNL     1      -1.714   5.363 -34.242  1.00  0.00     0.171 C 
HETATM   29  C   UNL     1      -2.993   5.290 -35.055  1.00  0.00     0.034 C 
ENDBRANCH  27  28
ENDBRANCH  22  27
ENDBRANCH  18  21
ENDBRANCH  16  17
ENDBRANCH  15  16
ENDBRANCH   1  15
BRANCH   2  30
HETATM   30  C   UNL     1      -7.480   0.622 -33.096  1.00  0.00     0.043 A 
HETATM   31  C   UNL     1      -6.845  -0.087 -34.127  1.00  0.00     0.031 A 
HETATM   32  C   UNL     1      -5.722  -0.874 -33.859  1.00  0.00     0.021 A 
HETATM   33  C   UNL     1      -5.220  -0.943 -32.560  1.00  0.00     0.011 A 
HETATM   34 BR   UNL     1      -3.692  -1.994 -32.201  1.00  0.00    -0.051 Br
HETATM   35  C   UNL     1      -5.834  -0.239 -31.527  1.00  0.00     0.021 A 
HETATM   36  C   UNL     1      -6.962   0.541 -31.794  1.00  0.00     0.031 A 
ENDBRANCH   2  30
TORSDOF 7
ENDMDL
