MODEL 1
REMARK VINA RESULT:      -8.2      0.000      0.000
REMARK  4 active torsions:
REMARK  status: ('A' for Active; 'I' for Inactive)
REMARK    1  A    between atoms: C_5  and  N_6 
REMARK    2  A    between atoms: N_9  and  C_11 
REMARK    3  A    between atoms: C_11  and  C_12 
REMARK    4  A    between atoms: C_13  and  O_14 
ROOT
HETATM    1  N   UNL     1      -7.659   2.103 -32.474  1.00  0.00    -0.363 N 
HETATM    2  C   UNL     1      -6.603   2.169 -33.494  1.00  0.00     0.152 C 
HETATM    3  C   UNL     1      -5.979   0.799 -33.825  1.00  0.00     0.255 C 
HETATM    4  N   UNL     1      -5.087   0.341 -32.674  1.00  0.00    -0.066 N 
HETATM    5  H   UNL     1      -4.702   1.198 -32.239  1.00  0.00     0.280 HD
HETATM    6  C   UNL     1      -5.768  -0.440 -31.591  1.00  0.00     0.237 C 
HETATM    7  C   UNL     1      -7.143   0.064 -31.171  1.00  0.00     0.047 C 
HETATM    8  C   UNL     1      -7.317   1.580 -31.149  1.00  0.00     0.126 C 
ENDROOT
BRANCH   4   9
HETATM    9  C   UNL     1      -3.834  -0.361 -33.157  1.00  0.00     0.276 C 
BRANCH   9  10
HETATM   10  C   UNL     1      -3.972  -1.858 -33.273  1.00  0.00     0.002 A 
HETATM   11  C   UNL     1      -3.262  -2.735 -32.439  1.00  0.00     0.073 A 
HETATM   12  C   UNL     1      -3.417  -4.117 -32.537  1.00  0.00     0.038 A 
HETATM   13  C   UNL     1      -4.305  -4.645 -33.474  1.00  0.00     0.022 A 
HETATM   14  C   UNL     1      -5.031  -3.788 -34.298  1.00  0.00     0.011 A 
HETATM   15 BR   UNL     1      -6.243  -4.502 -35.560  1.00  0.00    -0.051 Br
HETATM   16  C   UNL     1      -4.874  -2.404 -34.199  1.00  0.00     0.030 A 
BRANCH  11  17
HETATM   17  O   UNL     1      -2.384  -2.203 -31.530  1.00  0.00    -0.360 OA
HETATM   18  H   UNL     1      -1.705  -2.885 -31.342  1.00  0.00     0.217 HD
ENDBRANCH  11  17
ENDBRANCH   9  10
ENDBRANCH   4   9
BRANCH   1  19
HETATM   19  C   UNL     1      -8.927   1.787 -32.991  1.00  0.00     0.147 A 
HETATM   20  N   UNL     1      -9.552   2.667 -33.805  1.00  0.00    -0.132 NA
HETATM   21  N   UNL     1     -10.803   2.415 -34.318  1.00  0.00    -0.153 NA
HETATM   22  C   UNL     1     -11.442   1.274 -33.999  1.00  0.00     0.053 A 
HETATM   23  C   UNL     1     -12.813   1.058 -34.555  1.00  0.00     0.072 C 
HETATM   24  C   UNL     1     -10.841   0.333 -33.183  1.00  0.00     0.032 A 
HETATM   25  C   UNL     1      -9.568   0.597 -32.674  1.00  0.00     0.054 A 
ENDBRANCH   1  19
TORSDOF 4
ENDMDL
MODEL 2
REMARK VINA RESULT:      -7.9      4.951      7.344
REMARK  4 active torsions:
REMARK  status: ('A' for Active; 'I' for Inactive)
REMARK    1  A    between atoms: C_5  and  N_6 
REMARK    2  A    between atoms: N_9  and  C_11 
REMARK    3  A    between atoms: C_11  and  C_12 
REMARK    4  A    between atoms: C_13  and  O_14 
ROOT
HETATM    1  N   UNL     1      -5.639   0.609 -31.707  1.00  0.00    -0.363 N 
HETATM    2  C   UNL     1      -6.554   1.720 -32.006  1.00  0.00     0.152 C 
HETATM    3  C   UNL     1      -6.003   2.708 -33.053  1.00  0.00     0.255 C 
HETATM    4  N   UNL     1      -4.891   3.552 -32.438  1.00  0.00    -0.066 N 
HETATM    5  H   UNL     1      -5.117   3.654 -31.433  1.00  0.00     0.280 HD
HETATM    6  C   UNL     1      -3.509   2.979 -32.527  1.00  0.00     0.237 C 
HETATM    7  C   UNL     1      -3.392   1.482 -32.265  1.00  0.00     0.047 C 
HETATM    8  C   UNL     1      -4.309   0.924 -31.181  1.00  0.00     0.126 C 
ENDROOT
BRANCH   4   9
HETATM    9  C   UNL     1      -4.924   4.990 -32.917  1.00  0.00     0.276 C 
BRANCH   9  10
HETATM   10  C   UNL     1      -3.570   5.653 -32.971  1.00  0.00     0.002 A 
HETATM   11  C   UNL     1      -2.956   5.985 -34.187  1.00  0.00     0.073 A 
HETATM   12  C   UNL     1      -1.716   6.620 -34.226  1.00  0.00     0.038 A 
HETATM   13  C   UNL     1      -1.073   6.947 -33.031  1.00  0.00     0.022 A 
HETATM   14  C   UNL     1      -1.677   6.640 -31.815  1.00  0.00     0.011 A 
HETATM   15 BR   UNL     1      -0.811   7.092 -30.197  1.00  0.00    -0.051 Br
HETATM   16  C   UNL     1      -2.918   6.002 -31.778  1.00  0.00     0.030 A 
BRANCH  11  17
HETATM   17  O   UNL     1      -3.593   5.649 -35.354  1.00  0.00    -0.360 OA
HETATM   18  H   UNL     1      -4.172   4.880 -35.163  1.00  0.00     0.217 HD
ENDBRANCH  11  17
ENDBRANCH   9  10
ENDBRANCH   4   9
BRANCH   1  19
HETATM   19  C   UNL     1      -5.746  -0.470 -32.601  1.00  0.00     0.147 A 
HETATM   20  N   UNL     1      -4.684  -1.282 -32.796  1.00  0.00    -0.132 NA
HETATM   21  N   UNL     1      -4.731  -2.337 -33.676  1.00  0.00    -0.153 NA
HETATM   22  C   UNL     1      -5.853  -2.573 -34.382  1.00  0.00     0.053 A 
HETATM   23  C   UNL     1      -5.848  -3.712 -35.351  1.00  0.00     0.072 C 
HETATM   24  C   UNL     1      -6.974  -1.781 -34.209  1.00  0.00     0.032 A 
HETATM   25  C   UNL     1      -6.916  -0.717 -33.308  1.00  0.00     0.054 A 
ENDBRANCH   1  19
TORSDOF 4
ENDMDL
MODEL 3
REMARK VINA RESULT:      -7.9      5.126      7.077
REMARK  4 active torsions:
REMARK  status: ('A' for Active; 'I' for Inactive)
REMARK    1  A    between atoms: C_5  and  N_6 
REMARK    2  A    between atoms: N_9  and  C_11 
REMARK    3  A    between atoms: C_11  and  C_12 
REMARK    4  A    between atoms: C_13  and  O_14 
ROOT
HETATM    1  N   UNL     1      -3.469   5.558 -33.498  1.00  0.00    -0.363 N 
HETATM    2  C   UNL     1      -4.885   5.179 -33.614  1.00  0.00     0.152 C 
HETATM    3  C   UNL     1      -5.401   4.350 -32.422  1.00  0.00     0.255 C 
HETATM    4  N   UNL     1      -4.831   2.935 -32.486  1.00  0.00    -0.066 N 
HETATM    5  H   UNL     1      -4.703   2.713 -33.489  1.00  0.00     0.280 HD
HETATM    6  C   UNL     1      -3.508   2.733 -31.813  1.00  0.00     0.237 C 
HETATM    7  C   UNL     1      -2.482   3.843 -32.013  1.00  0.00     0.047 C 
HETATM    8  C   UNL     1      -2.469   4.493 -33.393  1.00  0.00     0.126 C 
ENDROOT
BRANCH   4   9
HETATM    9  C   UNL     1      -5.837   1.886 -32.054  1.00  0.00     0.276 C 
BRANCH   9  10
HETATM   10  C   UNL     1      -6.217   0.913 -33.142  1.00  0.00     0.002 A 
HETATM   11  C   UNL     1      -7.198   1.216 -34.098  1.00  0.00     0.073 A 
HETATM   12  C   UNL     1      -7.523   0.320 -35.114  1.00  0.00     0.038 A 
HETATM   13  C   UNL     1      -6.854  -0.901 -35.196  1.00  0.00     0.022 A 
HETATM   14  C   UNL     1      -5.865  -1.210 -34.265  1.00  0.00     0.011 A 
HETATM   15 BR   UNL     1      -4.950  -2.860 -34.381  1.00  0.00    -0.051 Br
HETATM   16  C   UNL     1      -5.541  -0.312 -33.246  1.00  0.00     0.030 A 
BRANCH  11  17
HETATM   17  O   UNL     1      -7.855   2.415 -34.000  1.00  0.00    -0.360 OA
HETATM   18  H   UNL     1      -7.928   2.636 -33.047  1.00  0.00     0.217 HD
ENDBRANCH  11  17
ENDBRANCH   9  10
ENDBRANCH   4   9
BRANCH   1  19
HETATM   19  C   UNL     1      -3.255   6.728 -32.749  1.00  0.00     0.147 A 
HETATM   20  N   UNL     1      -2.176   7.498 -33.011  1.00  0.00    -0.132 NA
HETATM   21  N   UNL     1      -1.911   8.640 -32.293  1.00  0.00    -0.153 NA
HETATM   22  C   UNL     1      -2.729   9.007 -31.288  1.00  0.00     0.053 A 
HETATM   23  C   UNL     1      -2.382  10.238 -30.514  1.00  0.00     0.072 C 
HETATM   24  C   UNL     1      -3.855   8.263 -30.989  1.00  0.00     0.032 A 
HETATM   25  C   UNL     1      -4.118   7.110 -31.730  1.00  0.00     0.054 A 
ENDBRANCH   1  19
TORSDOF 4
ENDMDL
MODEL 4
REMARK VINA RESULT:      -7.8      5.447      7.745
REMARK  4 active torsions:
REMARK  status: ('A' for Active; 'I' for Inactive)
REMARK    1  A    between atoms: C_5  and  N_6 
REMARK    2  A    between atoms: N_9  and  C_11 
REMARK    3  A    between atoms: C_11  and  C_12 
REMARK    4  A    between atoms: C_13  and  O_14 
ROOT
HETATM    1  N   UNL     1      -3.466   5.941 -31.955  1.00  0.00    -0.363 N 
HETATM    2  C   UNL     1      -4.615   5.445 -31.185  1.00  0.00     0.152 C 
HETATM    3  C   UNL     1      -4.491   3.963 -30.778  1.00  0.00     0.255 C 
HETATM    4  N   UNL     1      -4.695   3.070 -31.998  1.00  0.00    -0.066 N 
HETATM    5  H   UNL     1      -5.349   3.570 -32.626  1.00  0.00     0.280 HD
HETATM    6  C   UNL     1      -3.464   2.760 -32.795  1.00  0.00     0.237 C 
HETATM    7  C   UNL     1      -2.500   3.921 -33.009  1.00  0.00     0.047 C 
HETATM    8  C   UNL     1      -3.144   5.287 -33.226  1.00  0.00     0.126 C 
ENDROOT
BRANCH   4   9
HETATM    9  C   UNL     1      -5.472   1.810 -31.670  1.00  0.00     0.276 C 
BRANCH   9  10
HETATM   10  C   UNL     1      -6.000   1.079 -32.879  1.00  0.00     0.002 A 
HETATM   11  C   UNL     1      -6.850   1.699 -33.806  1.00  0.00     0.073 A 
HETATM   12  C   UNL     1      -7.312   1.022 -34.934  1.00  0.00     0.038 A 
HETATM   13  C   UNL     1      -6.913  -0.295 -35.158  1.00  0.00     0.022 A 
HETATM   14  C   UNL     1      -6.055  -0.920 -34.256  1.00  0.00     0.011 A 
HETATM   15 BR   UNL     1      -5.505  -2.702 -34.564  1.00  0.00    -0.051 Br
HETATM   16  C   UNL     1      -5.594  -0.242 -33.126  1.00  0.00     0.030 A 
BRANCH  11  17
HETATM   17  O   UNL     1      -7.243   2.991 -33.569  1.00  0.00    -0.360 OA
HETATM   18  H   UNL     1      -7.320   3.102 -32.598  1.00  0.00     0.217 HD
ENDBRANCH  11  17
ENDBRANCH   9  10
ENDBRANCH   4   9
BRANCH   1  19
HETATM   19  C   UNL     1      -2.394   6.376 -31.158  1.00  0.00     0.147 A 
HETATM   20  N   UNL     1      -2.613   6.692 -29.862  1.00  0.00    -0.132 NA
HETATM   21  N   UNL     1      -1.602   7.144 -29.047  1.00  0.00    -0.153 NA
HETATM   22  C   UNL     1      -0.359   7.296 -29.540  1.00  0.00     0.053 A 
HETATM   23  C   UNL     1       0.701   7.821 -28.625  1.00  0.00     0.072 C 
HETATM   24  C   UNL     1      -0.078   6.972 -30.855  1.00  0.00     0.032 A 
HETATM   25  C   UNL     1      -1.110   6.508 -31.670  1.00  0.00     0.054 A 
ENDBRANCH   1  19
TORSDOF 4
ENDMDL
MODEL 5
REMARK VINA RESULT:      -7.8      1.933      3.397
REMARK  4 active torsions:
REMARK  status: ('A' for Active; 'I' for Inactive)
REMARK    1  A    between atoms: C_5  and  N_6 
REMARK    2  A    between atoms: N_9  and  C_11 
REMARK    3  A    between atoms: C_11  and  C_12 
REMARK    4  A    between atoms: C_13  and  O_14 
ROOT
HETATM    1  N   UNL     1     -10.471   2.189 -33.722  1.00  0.00    -0.363 N 
HETATM    2  C   UNL     1      -9.810   0.877 -33.754  1.00  0.00     0.152 C 
HETATM    3  C   UNL     1      -9.374   0.373 -32.364  1.00  0.00     0.255 C 
HETATM    4  N   UNL     1      -8.168   1.170 -31.875  1.00  0.00    -0.066 N 
HETATM    5  H   UNL     1      -7.633   1.444 -32.718  1.00  0.00     0.280 HD
HETATM    6  C   UNL     1      -8.477   2.424 -31.116  1.00  0.00     0.237 C 
HETATM    7  C   UNL     1      -9.620   3.270 -31.666  1.00  0.00     0.047 C 
HETATM    8  C   UNL     1      -9.728   3.332 -33.187  1.00  0.00     0.126 C 
ENDROOT
BRANCH   4   9
HETATM    9  C   UNL     1      -7.167   0.307 -31.132  1.00  0.00     0.276 C 
BRANCH   9  10
HETATM   10  C   UNL     1      -6.013  -0.166 -31.979  1.00  0.00     0.002 A 
HETATM   11  C   UNL     1      -4.713   0.334 -31.806  1.00  0.00     0.073 A 
HETATM   12  C   UNL     1      -3.648  -0.130 -32.577  1.00  0.00     0.038 A 
HETATM   13  C   UNL     1      -3.871  -1.121 -33.533  1.00  0.00     0.022 A 
HETATM   14  C   UNL     1      -5.152  -1.640 -33.705  1.00  0.00     0.011 A 
HETATM   15 BR   UNL     1      -5.451  -2.991 -34.993  1.00  0.00    -0.051 Br
HETATM   16  C   UNL     1      -6.218  -1.174 -32.933  1.00  0.00     0.030 A 
BRANCH  11  17
HETATM   17  O   UNL     1      -4.511   1.315 -30.870  1.00  0.00    -0.360 OA
HETATM   18  H   UNL     1      -5.337   1.401 -30.350  1.00  0.00     0.217 HD
ENDBRANCH  11  17
ENDBRANCH   9  10
ENDBRANCH   4   9
BRANCH   1  19
HETATM   19  C   UNL     1     -11.848   2.124 -33.451  1.00  0.00     0.147 A 
HETATM   20  N   UNL     1     -12.470   3.190 -32.901  1.00  0.00    -0.132 NA
HETATM   21  N   UNL     1     -13.810   3.168 -32.595  1.00  0.00    -0.153 NA
HETATM   22  C   UNL     1     -14.534   2.057 -32.830  1.00  0.00     0.053 A 
HETATM   23  C   UNL     1     -15.981   2.068 -32.452  1.00  0.00     0.072 C 
HETATM   24  C   UNL     1     -13.950   0.944 -33.406  1.00  0.00     0.032 A 
HETATM   25  C   UNL     1     -12.591   0.981 -33.718  1.00  0.00     0.054 A 
ENDBRANCH   1  19
TORSDOF 4
ENDMDL
MODEL 6
REMARK VINA RESULT:      -7.8      3.923      6.843
REMARK  4 active torsions:
REMARK  status: ('A' for Active; 'I' for Inactive)
REMARK    1  A    between atoms: C_5  and  N_6 
REMARK    2  A    between atoms: N_9  and  C_11 
REMARK    3  A    between atoms: C_11  and  C_12 
REMARK    4  A    between atoms: C_13  and  O_14 
ROOT
HETATM    1  N   UNL     1      -7.073  -0.047 -33.929  1.00  0.00    -0.363 N 
HETATM    2  C   UNL     1      -6.364   1.173 -34.341  1.00  0.00     0.152 C 
HETATM    3  C   UNL     1      -5.568   1.838 -33.200  1.00  0.00     0.255 C 
HETATM    4  N   UNL     1      -6.526   2.509 -32.220  1.00  0.00    -0.066 N 
HETATM    5  H   UNL     1      -7.346   2.817 -32.771  1.00  0.00     0.280 HD
HETATM    6  C   UNL     1      -7.035   1.644 -31.108  1.00  0.00     0.237 C 
HETATM    7  C   UNL     1      -7.413   0.218 -31.493  1.00  0.00     0.047 C 
HETATM    8  C   UNL     1      -8.069   0.052 -32.861  1.00  0.00     0.126 C 
ENDROOT
BRANCH   4   9
HETATM    9  C   UNL     1      -5.986   3.825 -31.693  1.00  0.00     0.276 C 
BRANCH   9  10
HETATM   10  C   UNL     1      -4.876   4.413 -32.527  1.00  0.00     0.002 A 
HETATM   11  C   UNL     1      -5.104   4.917 -33.816  1.00  0.00     0.073 A 
HETATM   12  C   UNL     1      -4.075   5.483 -34.567  1.00  0.00     0.038 A 
HETATM   13  C   UNL     1      -2.792   5.563 -34.027  1.00  0.00     0.022 A 
HETATM   14  C   UNL     1      -2.552   5.083 -32.742  1.00  0.00     0.011 A 
HETATM   15 BR   UNL     1      -0.816   5.201 -32.005  1.00  0.00    -0.051 Br
HETATM   16  C   UNL     1      -3.583   4.515 -31.990  1.00  0.00     0.030 A 
BRANCH  11  17
HETATM   17  O   UNL     1      -6.367   4.823 -34.339  1.00  0.00    -0.360 OA
HETATM   18  H   UNL     1      -6.636   5.721 -34.625  1.00  0.00     0.217 HD
ENDBRANCH  11  17
ENDBRANCH   9  10
ENDBRANCH   4   9
BRANCH   1  19
HETATM   19  C   UNL     1      -6.279  -1.206 -33.973  1.00  0.00     0.147 A 
HETATM   20  N   UNL     1      -5.052  -1.195 -33.405  1.00  0.00    -0.132 NA
HETATM   21  N   UNL     1      -4.229  -2.295 -33.441  1.00  0.00    -0.153 NA
HETATM   22  C   UNL     1      -4.633  -3.417 -34.066  1.00  0.00     0.053 A 
HETATM   23  C   UNL     1      -3.691  -4.577 -34.108  1.00  0.00     0.072 C 
HETATM   24  C   UNL     1      -5.885  -3.486 -34.650  1.00  0.00     0.032 A 
HETATM   25  C   UNL     1      -6.714  -2.365 -34.602  1.00  0.00     0.054 A 
ENDBRANCH   1  19
TORSDOF 4
ENDMDL
MODEL 7
REMARK VINA RESULT:      -7.6      3.711      4.822
REMARK  4 active torsions:
REMARK  status: ('A' for Active; 'I' for Inactive)
REMARK    1  A    between atoms: C_5  and  N_6 
REMARK    2  A    between atoms: N_9  and  C_11 
REMARK    3  A    between atoms: C_11  and  C_12 
REMARK    4  A    between atoms: C_13  and  O_14 
ROOT
HETATM    1  N   UNL     1      -9.946   2.081 -34.273  1.00  0.00    -0.363 N 
HETATM    2  C   UNL     1      -9.059   1.181 -33.523  1.00  0.00     0.152 C 
HETATM    3  C   UNL     1      -9.051   1.447 -32.004  1.00  0.00     0.255 C 
HETATM    4  N   UNL     1      -8.291   2.737 -31.706  1.00  0.00    -0.066 N 
HETATM    5  H   UNL     1      -7.562   2.826 -32.435  1.00  0.00     0.280 HD
HETATM    6  C   UNL     1      -9.105   3.995 -31.733  1.00  0.00     0.237 C 
HETATM    7  C   UNL     1     -10.127   4.103 -32.859  1.00  0.00     0.047 C 
HETATM    8  C   UNL     1      -9.697   3.523 -34.203  1.00  0.00     0.126 C 
ENDROOT
BRANCH   4   9
HETATM    9  C   UNL     1      -7.464   2.641 -30.439  1.00  0.00     0.276 C 
BRANCH   9  10
HETATM   10  C   UNL     1      -6.040   2.201 -30.666  1.00  0.00     0.002 A 
HETATM   11  C   UNL     1      -5.636   0.871 -30.479  1.00  0.00     0.073 A 
HETATM   12  C   UNL     1      -4.323   0.469 -30.717  1.00  0.00     0.038 A 
HETATM   13  C   UNL     1      -3.388   1.403 -31.162  1.00  0.00     0.022 A 
HETATM   14  C   UNL     1      -3.775   2.725 -31.369  1.00  0.00     0.011 A 
HETATM   15 BR   UNL     1      -2.511   3.989 -31.982  1.00  0.00    -0.051 Br
HETATM   16  C   UNL     1      -5.091   3.126 -31.129  1.00  0.00     0.030 A 
BRANCH  11  17
HETATM   17  O   UNL     1      -6.563  -0.035 -30.032  1.00  0.00    -0.360 OA
HETATM   18  H   UNL     1      -6.917   0.300 -29.182  1.00  0.00     0.217 HD
ENDBRANCH  11  17
ENDBRANCH   9  10
ENDBRANCH   4   9
BRANCH   1  19
HETATM   19  C   UNL     1     -11.284   1.653 -34.315  1.00  0.00     0.147 A 
HETATM   20  N   UNL     1     -12.170   2.311 -35.095  1.00  0.00    -0.132 NA
HETATM   21  N   UNL     1     -13.494   1.945 -35.154  1.00  0.00    -0.153 NA
HETATM   22  C   UNL     1     -13.940   0.916 -34.410  1.00  0.00     0.053 A 
HETATM   23  C   UNL     1     -15.394   0.574 -34.481  1.00  0.00     0.072 C 
HETATM   24  C   UNL     1     -13.072   0.198 -33.607  1.00  0.00     0.032 A 
HETATM   25  C   UNL     1     -11.729   0.575 -33.561  1.00  0.00     0.054 A 
ENDBRANCH   1  19
TORSDOF 4
ENDMDL
MODEL 8
REMARK VINA RESULT:      -7.5      3.666      7.719
REMARK  4 active torsions:
REMARK  status: ('A' for Active; 'I' for Inactive)
REMARK    1  A    between atoms: C_5  and  N_6 
REMARK    2  A    between atoms: N_9  and  C_11 
REMARK    3  A    between atoms: C_11  and  C_12 
REMARK    4  A    between atoms: C_13  and  O_14 
ROOT
HETATM    1  N   UNL     1      -7.344   0.624 -32.071  1.00  0.00    -0.363 N 
HETATM    2  C   UNL     1      -8.797   0.536 -32.273  1.00  0.00     0.152 C 
HETATM    3  C   UNL     1      -9.282   1.217 -33.568  1.00  0.00     0.255 C 
HETATM    4  N   UNL     1      -9.214   2.734 -33.416  1.00  0.00    -0.066 N 
HETATM    5  H   UNL     1      -9.379   2.939 -32.415  1.00  0.00     0.280 HD
HETATM    6  C   UNL     1      -7.911   3.370 -33.791  1.00  0.00     0.237 C 
HETATM    7  C   UNL     1      -6.655   2.628 -33.348  1.00  0.00     0.047 C 
HETATM    8  C   UNL     1      -6.732   1.952 -31.982  1.00  0.00     0.126 C 
ENDROOT
BRANCH   4   9
HETATM    9  C   UNL     1     -10.383   3.435 -34.080  1.00  0.00     0.276 C 
BRANCH   9  10
HETATM   10  C   UNL     1     -11.713   3.177 -33.419  1.00  0.00     0.002 A 
HETATM   11  C   UNL     1     -12.112   3.863 -32.262  1.00  0.00     0.073 A 
HETATM   12  C   UNL     1     -13.354   3.635 -31.674  1.00  0.00     0.038 A 
HETATM   13  C   UNL     1     -14.230   2.715 -32.250  1.00  0.00     0.022 A 
HETATM   14  C   UNL     1     -13.857   2.037 -33.408  1.00  0.00     0.011 A 
HETATM   15 BR   UNL     1     -15.048   0.798 -34.195  1.00  0.00    -0.051 Br
HETATM   16  C   UNL     1     -12.611   2.265 -33.996  1.00  0.00     0.030 A 
BRANCH  11  17
HETATM   17  O   UNL     1     -11.237   4.757 -31.700  1.00  0.00    -0.360 OA
HETATM   18  H   UNL     1     -11.474   4.846 -30.753  1.00  0.00     0.217 HD
ENDBRANCH  11  17
ENDBRANCH   9  10
ENDBRANCH   4   9
BRANCH   1  19
HETATM   19  C   UNL     1      -6.619  -0.384 -32.727  1.00  0.00     0.147 A 
HETATM   20  N   UNL     1      -5.348  -0.644 -32.349  1.00  0.00    -0.132 NA
HETATM   21  N   UNL     1      -4.589  -1.606 -32.974  1.00  0.00    -0.153 NA
HETATM   22  C   UNL     1      -5.105  -2.306 -34.001  1.00  0.00     0.053 A 
HETATM   23  C   UNL     1      -4.232  -3.318 -34.671  1.00  0.00     0.072 C 
HETATM   24  C   UNL     1      -6.406  -2.090 -34.417  1.00  0.00     0.032 A 
HETATM   25  C   UNL     1      -7.169  -1.117 -33.771  1.00  0.00     0.054 A 
ENDBRANCH   1  19
TORSDOF 4
ENDMDL
MODEL 9
REMARK VINA RESULT:      -7.5     13.960     15.453
REMARK  4 active torsions:
REMARK  status: ('A' for Active; 'I' for Inactive)
REMARK    1  A    between atoms: C_5  and  N_6 
REMARK    2  A    between atoms: N_9  and  C_11 
REMARK    3  A    between atoms: C_11  and  C_12 
REMARK    4  A    between atoms: C_13  and  O_14 
ROOT
HETATM    1  N   UNL     1      -8.211 -13.174 -40.058  1.00  0.00    -0.363 N 
HETATM    2  C   UNL     1      -6.861 -13.631 -40.416  1.00  0.00     0.152 C 
HETATM    3  C   UNL     1      -6.323 -14.744 -39.495  1.00  0.00     0.255 C 
HETATM    4  N   UNL     1      -5.958 -14.161 -38.133  1.00  0.00    -0.066 N 
HETATM    5  H   UNL     1      -5.657 -13.185 -38.299  1.00  0.00     0.280 HD
HETATM    6  C   UNL     1      -7.065 -14.119 -37.123  1.00  0.00     0.237 C 
HETATM    7  C   UNL     1      -8.432 -13.700 -37.651  1.00  0.00     0.047 C 
HETATM    8  C   UNL     1      -8.426 -12.614 -38.722  1.00  0.00     0.126 C 
ENDROOT
BRANCH   4   9
HETATM    9  C   UNL     1      -4.704 -14.786 -37.553  1.00  0.00     0.276 C 
BRANCH   9  10
HETATM   10  C   UNL     1      -3.423 -14.144 -38.022  1.00  0.00     0.002 A 
HETATM   11  C   UNL     1      -3.144 -12.789 -37.790  1.00  0.00     0.073 A 
HETATM   12  C   UNL     1      -1.945 -12.212 -38.206  1.00  0.00     0.038 A 
HETATM   13  C   UNL     1      -0.993 -12.997 -38.855  1.00  0.00     0.022 A 
HETATM   14  C   UNL     1      -1.246 -14.349 -39.078  1.00  0.00     0.011 A 
HETATM   15 BR   UNL     1       0.049 -15.415 -39.949  1.00  0.00    -0.051 Br
HETATM   16  C   UNL     1      -2.448 -14.925 -38.663  1.00  0.00     0.030 A 
BRANCH  11  17
HETATM   17  O   UNL     1      -4.093 -12.027 -37.160  1.00  0.00    -0.360 OA
HETATM   18  H   UNL     1      -4.858 -11.946 -37.768  1.00  0.00     0.217 HD
ENDBRANCH  11  17
ENDBRANCH   9  10
ENDBRANCH   4   9
BRANCH   1  19
HETATM   19  C   UNL     1      -9.240 -13.958 -40.608  1.00  0.00     0.147 A 
HETATM   20  N   UNL     1     -10.524 -13.558 -40.476  1.00  0.00    -0.132 NA
HETATM   21  N   UNL     1     -11.568 -14.301 -40.976  1.00  0.00    -0.153 NA
HETATM   22  C   UNL     1     -11.322 -15.466 -41.604  1.00  0.00     0.053 A 
HETATM   23  C   UNL     1     -12.490 -16.255 -42.103  1.00  0.00     0.072 C 
HETATM   24  C   UNL     1     -10.025 -15.912 -41.780  1.00  0.00     0.032 A 
HETATM   25  C   UNL     1      -8.974 -15.147 -41.274  1.00  0.00     0.054 A 
ENDBRANCH   1  19
TORSDOF 4
ENDMDL
MODEL 10
REMARK VINA RESULT:      -7.5      5.077      7.715
REMARK  4 active torsions:
REMARK  status: ('A' for Active; 'I' for Inactive)
REMARK    1  A    between atoms: C_5  and  N_6 
REMARK    2  A    between atoms: N_9  and  C_11 
REMARK    3  A    between atoms: C_11  and  C_12 
REMARK    4  A    between atoms: C_13  and  O_14 
ROOT
HETATM    1  N   UNL     1      -3.269   4.742 -32.265  1.00  0.00    -0.363 N 
HETATM    2  C   UNL     1      -4.645   5.086 -31.880  1.00  0.00     0.152 C 
HETATM    3  C   UNL     1      -5.193   4.227 -30.723  1.00  0.00     0.255 C 
HETATM    4  N   UNL     1      -5.494   2.816 -31.219  1.00  0.00    -0.066 N 
HETATM    5  H   UNL     1      -5.765   2.903 -32.214  1.00  0.00     0.280 HD
HETATM    6  C   UNL     1      -4.355   1.844 -31.152  1.00  0.00     0.237 C 
HETATM    7  C   UNL     1      -2.991   2.387 -31.562  1.00  0.00     0.047 C 
HETATM    8  C   UNL     1      -2.992   3.378 -32.721  1.00  0.00     0.126 C 
ENDROOT
BRANCH   4   9
HETATM    9  C   UNL     1      -6.750   2.239 -30.597  1.00  0.00     0.276 C 
BRANCH   9  10
HETATM   10  C   UNL     1      -7.559   1.375 -31.532  1.00  0.00     0.002 A 
HETATM   11  C   UNL     1      -8.962   1.402 -31.538  1.00  0.00     0.073 A 
HETATM   12  C   UNL     1      -9.700   0.619 -32.424  1.00  0.00     0.038 A 
HETATM   13  C   UNL     1      -9.035  -0.202 -33.335  1.00  0.00     0.022 A 
HETATM   14  C   UNL     1      -7.642  -0.227 -33.354  1.00  0.00     0.011 A 
HETATM   15 BR   UNL     1      -6.741  -1.330 -34.596  1.00  0.00    -0.051 Br
HETATM   16  C   UNL     1      -6.904   0.557 -32.465  1.00  0.00     0.030 A 
BRANCH  11  17
HETATM   17  O   UNL     1      -9.603   2.205 -30.630  1.00  0.00    -0.360 OA
HETATM   18  H   UNL     1      -9.089   3.036 -30.556  1.00  0.00     0.217 HD
ENDBRANCH  11  17
ENDBRANCH   9  10
ENDBRANCH   4   9
BRANCH   1  19
HETATM   19  C   UNL     1      -2.286   5.380 -31.489  1.00  0.00     0.147 A 
HETATM   20  N   UNL     1      -2.662   6.198 -30.480  1.00  0.00    -0.132 NA
HETATM   21  N   UNL     1      -1.740   6.862 -29.706  1.00  0.00    -0.153 NA
HETATM   22  C   UNL     1      -0.425   6.717 -29.955  1.00  0.00     0.053 A 
HETATM   23  C   UNL     1       0.540   7.485 -29.109  1.00  0.00     0.072 C 
HETATM   24  C   UNL     1       0.013   5.880 -30.965  1.00  0.00     0.032 A 
HETATM   25  C   UNL     1      -0.932   5.206 -31.739  1.00  0.00     0.054 A 
ENDBRANCH   1  19
TORSDOF 4
ENDMDL
