MODEL 1
REMARK VINA RESULT:     -10.0      0.000      0.000
REMARK  7 active torsions:
REMARK  status: ('A' for Active; 'I' for Inactive)
REMARK    1  A    between atoms: N_2  and  C_4 
REMARK    2  A    between atoms: N_2  and  C_27 
REMARK    3  A    between atoms: C_4  and  C_5 
REMARK       I    between atoms: C_5  and  N_6 
REMARK    4  A    between atoms: N_6  and  N_7 
REMARK    5  A    between atoms: C_11  and  C_12 
REMARK    6  A    between atoms: C_11  and  C_18 
REMARK    7  A    between atoms: C_27  and  C_28 
ROOT
HETATM    1  N   UNL     1      -8.716   0.537 -34.346  1.00  0.00    -0.167 N 
HETATM    2  C   UNL     1      -9.063  -0.031 -33.154  1.00  0.00     0.346 C 
HETATM    3  O   UNL     1     -10.133   0.077 -32.581  1.00  0.00    -0.245 OA
HETATM    4  N   UNL     1      -7.978  -0.703 -32.661  1.00  0.00    -0.315 N 
HETATM    5  C   UNL     1      -6.748  -0.494 -33.424  1.00  0.00     0.173 C 
HETATM    6  C   UNL     1      -7.358   0.441 -34.538  1.00  0.00     0.285 C 
HETATM    7  O   UNL     1      -6.768   0.998 -35.461  1.00  0.00    -0.267 OA
HETATM    8  H   UNL     1      -8.030  -1.152 -31.757  1.00  0.00     0.166 HD
ENDROOT
BRANCH   1   9
HETATM    9  N   UNL     1      -9.486   1.563 -34.889  1.00  0.00    -0.255 N 
HETATM   10  C   UNL     1      -9.632   2.804 -34.338  1.00  0.00     0.262 C 
HETATM   11  O   UNL     1     -10.190   3.692 -34.988  1.00  0.00    -0.270 OA
HETATM   12  H   UNL     1      -9.750   1.449 -35.867  1.00  0.00     0.191 HD
BRANCH  10  13
HETATM   13  C   UNL     1      -9.107   3.075 -32.923  1.00  0.00     0.338 C 
BRANCH  13  14
HETATM   14  N   UNL     1      -7.660   3.588 -32.854  1.00  0.00    -0.061 N 
HETATM   15  C   UNL     1      -7.071   3.511 -31.481  1.00  0.00     0.270 C 
HETATM   16  H   UNL     1      -7.130   2.945 -33.463  1.00  0.00     0.280 HD
BRANCH  14  17
HETATM   17  C   UNL     1      -7.457   4.948 -33.513  1.00  0.00     0.301 C 
BRANCH  17  18
HETATM   18  C   UNL     1      -6.001   5.313 -33.550  1.00  0.00     0.102 A 
HETATM   19  S   UNL     1      -5.337   6.407 -32.420  1.00  0.00    -0.071 SA
HETATM   20  C   UNL     1      -3.794   6.233 -33.166  1.00  0.00     0.035 A 
HETATM   21  C   UNL     1      -3.901   5.336 -34.234  1.00  0.00     0.074 A 
HETATM   22  C   UNL     1      -2.575   6.845 -32.831  1.00  0.00     0.021 A 
HETATM   23  N   UNL     1      -5.173   4.816 -34.446  1.00  0.00    -0.243 NA
HETATM   24  C   UNL     1      -2.751   5.043 -34.992  1.00  0.00     0.033 A 
HETATM   25  C   UNL     1      -1.533   5.647 -34.666  1.00  0.00     0.002 A 
HETATM   26  C   UNL     1      -1.449   6.537 -33.599  1.00  0.00     0.002 A 
ENDBRANCH  17  18
ENDBRANCH  14  17
ENDBRANCH  13  14
ENDBRANCH  10  13
ENDBRANCH   1   9
BRANCH   5  27
HETATM   27  C   UNL     1      -6.238  -1.829 -33.984  1.00  0.00    -0.016 A 
HETATM   28  C   UNL     1      -4.867  -2.142 -34.020  1.00  0.00     0.010 A 
HETATM   29  C   UNL     1      -4.418  -3.373 -34.509  1.00  0.00     0.001 A 
HETATM   30  C   UNL     1      -5.329  -4.323 -34.958  1.00  0.00     0.000 A 
HETATM   31  C   UNL     1      -6.691  -4.049 -34.909  1.00  0.00     0.001 A 
HETATM   32  C   UNL     1      -7.142  -2.820 -34.420  1.00  0.00     0.010 A 
ENDBRANCH   5  27
BRANCH   5  33
HETATM   33  C   UNL     1      -5.678   0.242 -32.604  1.00  0.00    -0.016 A 
HETATM   34  C   UNL     1      -4.861   1.242 -33.165  1.00  0.00     0.010 A 
HETATM   35  C   UNL     1      -3.898   1.906 -32.398  1.00  0.00     0.001 A 
HETATM   36  C   UNL     1      -3.737   1.595 -31.053  1.00  0.00     0.000 A 
HETATM   37  C   UNL     1      -4.546   0.629 -30.468  1.00  0.00     0.001 A 
HETATM   38  C   UNL     1      -5.510  -0.033 -31.232  1.00  0.00     0.010 A 
ENDBRANCH   5  33
TORSDOF 7
ENDMDL
MODEL 2
REMARK VINA RESULT:      -9.8      3.498      5.451
REMARK  7 active torsions:
REMARK  status: ('A' for Active; 'I' for Inactive)
REMARK    1  A    between atoms: N_2  and  C_4 
REMARK    2  A    between atoms: N_2  and  C_27 
REMARK    3  A    between atoms: C_4  and  C_5 
REMARK       I    between atoms: C_5  and  N_6 
REMARK    4  A    between atoms: N_6  and  N_7 
REMARK    5  A    between atoms: C_11  and  C_12 
REMARK    6  A    between atoms: C_11  and  C_18 
REMARK    7  A    between atoms: C_27  and  C_28 
ROOT
HETATM    1  N   UNL     1      -5.826   3.167 -32.552  1.00  0.00    -0.167 N 
HETATM    2  C   UNL     1      -5.993   3.408 -33.885  1.00  0.00     0.346 C 
HETATM    3  O   UNL     1      -5.773   4.456 -34.467  1.00  0.00    -0.245 OA
HETATM    4  N   UNL     1      -6.515   2.286 -34.467  1.00  0.00    -0.315 N 
HETATM    5  C   UNL     1      -6.898   1.242 -33.518  1.00  0.00     0.173 C 
HETATM    6  C   UNL     1      -6.439   1.985 -32.205  1.00  0.00     0.285 C 
HETATM    7  O   UNL     1      -6.562   1.607 -31.042  1.00  0.00    -0.267 OA
HETATM    8  H   UNL     1      -6.752   2.291 -35.450  1.00  0.00     0.166 HD
ENDROOT
BRANCH   1   9
HETATM    9  N   UNL     1      -5.659   4.222 -31.659  1.00  0.00    -0.255 N 
HETATM   10  C   UNL     1      -4.460   4.797 -31.345  1.00  0.00     0.262 C 
HETATM   11  O   UNL     1      -4.444   5.837 -30.682  1.00  0.00    -0.270 OA
HETATM   12  H   UNL     1      -6.504   4.741 -31.422  1.00  0.00     0.191 HD
BRANCH  10  13
HETATM   13  C   UNL     1      -3.156   4.142 -31.816  1.00  0.00     0.338 C 
BRANCH  13  14
HETATM   14  N   UNL     1      -2.203   5.070 -32.585  1.00  0.00    -0.061 N 
HETATM   15  C   UNL     1      -2.319   4.936 -34.070  1.00  0.00     0.270 C 
HETATM   16  H   UNL     1      -2.508   6.022 -32.328  1.00  0.00     0.280 HD
BRANCH  14  17
HETATM   17  C   UNL     1      -0.760   5.014 -32.093  1.00  0.00     0.301 C 
BRANCH  17  18
HETATM   18  C   UNL     1      -0.568   5.908 -30.902  1.00  0.00     0.102 A 
HETATM   19  S   UNL     1      -1.324   7.435 -30.814  1.00  0.00    -0.071 SA
HETATM   20  C   UNL     1      -0.596   7.702 -29.275  1.00  0.00     0.035 A 
HETATM   21  C   UNL     1       0.177   6.587 -28.937  1.00  0.00     0.074 A 
HETATM   22  C   UNL     1      -0.702   8.817 -28.428  1.00  0.00     0.021 A 
HETATM   23  N   UNL     1       0.188   5.564 -29.878  1.00  0.00    -0.243 NA
HETATM   24  C   UNL     1       0.868   6.588 -27.710  1.00  0.00     0.033 A 
HETATM   25  C   UNL     1       0.770   7.694 -26.859  1.00  0.00     0.002 A 
HETATM   26  C   UNL     1      -0.006   8.793 -27.217  1.00  0.00     0.002 A 
ENDBRANCH  17  18
ENDBRANCH  14  17
ENDBRANCH  13  14
ENDBRANCH  10  13
ENDBRANCH   1   9
BRANCH   5  27
HETATM   27  C   UNL     1      -6.096  -0.038 -33.786  1.00  0.00    -0.016 A 
HETATM   28  C   UNL     1      -4.870  -0.293 -33.144  1.00  0.00     0.010 A 
HETATM   29  C   UNL     1      -4.162  -1.476 -33.377  1.00  0.00     0.001 A 
HETATM   30  C   UNL     1      -4.669  -2.436 -34.246  1.00  0.00     0.000 A 
HETATM   31  C   UNL     1      -5.891  -2.221 -34.874  1.00  0.00     0.001 A 
HETATM   32  C   UNL     1      -6.601  -1.040 -34.641  1.00  0.00     0.010 A 
ENDBRANCH   5  27
BRANCH   5  33
HETATM   33  C   UNL     1      -8.413   0.992 -33.515  1.00  0.00    -0.016 A 
HETATM   34  C   UNL     1      -9.004  -0.016 -32.728  1.00  0.00     0.010 A 
HETATM   35  C   UNL     1     -10.388  -0.221 -32.734  1.00  0.00     0.001 A 
HETATM   36  C   UNL     1     -11.213   0.582 -33.513  1.00  0.00     0.000 A 
HETATM   37  C   UNL     1     -10.659   1.599 -34.280  1.00  0.00     0.001 A 
HETATM   38  C   UNL     1      -9.277   1.806 -34.274  1.00  0.00     0.010 A 
ENDBRANCH   5  33
TORSDOF 7
ENDMDL
MODEL 3
REMARK VINA RESULT:      -9.4      2.531      5.747
REMARK  7 active torsions:
REMARK  status: ('A' for Active; 'I' for Inactive)
REMARK    1  A    between atoms: N_2  and  C_4 
REMARK    2  A    between atoms: N_2  and  C_27 
REMARK    3  A    between atoms: C_4  and  C_5 
REMARK       I    between atoms: C_5  and  N_6 
REMARK    4  A    between atoms: N_6  and  N_7 
REMARK    5  A    between atoms: C_11  and  C_12 
REMARK    6  A    between atoms: C_11  and  C_18 
REMARK    7  A    between atoms: C_27  and  C_28 
ROOT
HETATM    1  N   UNL     1      -5.649   1.732 -31.622  1.00  0.00    -0.167 N 
HETATM    2  C   UNL     1      -6.032   0.815 -30.687  1.00  0.00     0.346 C 
HETATM    3  O   UNL     1      -5.679   0.775 -29.520  1.00  0.00    -0.245 OA
HETATM    4  N   UNL     1      -6.840  -0.110 -31.290  1.00  0.00    -0.315 N 
HETATM    5  C   UNL     1      -6.929   0.031 -32.742  1.00  0.00     0.173 C 
HETATM    6  C   UNL     1      -6.007   1.303 -32.879  1.00  0.00     0.285 C 
HETATM    7  O   UNL     1      -5.654   1.872 -33.909  1.00  0.00    -0.267 OA
HETATM    8  H   UNL     1      -7.186  -0.898 -30.761  1.00  0.00     0.166 HD
ENDROOT
BRANCH   1   9
HETATM    9  N   UNL     1      -4.556   2.563 -31.389  1.00  0.00    -0.255 N 
HETATM   10  C   UNL     1      -4.632   3.909 -31.167  1.00  0.00     0.262 C 
HETATM   11  O   UNL     1      -3.625   4.518 -30.796  1.00  0.00    -0.270 OA
HETATM   12  H   UNL     1      -3.688   2.094 -31.134  1.00  0.00     0.191 HD
BRANCH  10  13
HETATM   13  C   UNL     1      -5.962   4.641 -31.382  1.00  0.00     0.338 C 
BRANCH  13  14
HETATM   14  N   UNL     1      -6.262   5.029 -32.839  1.00  0.00    -0.061 N 
HETATM   15  C   UNL     1      -5.031   5.218 -33.665  1.00  0.00     0.270 C 
HETATM   16  H   UNL     1      -6.777   4.219 -33.219  1.00  0.00     0.280 HD
BRANCH  14  17
HETATM   17  C   UNL     1      -7.256   6.177 -32.978  1.00  0.00     0.301 C 
BRANCH  17  18
HETATM   18  C   UNL     1      -8.631   5.660 -33.283  1.00  0.00     0.102 A 
HETATM   19  S   UNL     1      -9.721   5.260 -32.031  1.00  0.00    -0.071 SA
HETATM   20  C   UNL     1     -10.896   4.803 -33.206  1.00  0.00     0.035 A 
HETATM   21  C   UNL     1     -10.363   4.997 -34.484  1.00  0.00     0.074 A 
HETATM   22  C   UNL     1     -12.195   4.309 -33.011  1.00  0.00     0.021 A 
HETATM   23  N   UNL     1      -9.062   5.487 -34.517  1.00  0.00    -0.243 NA
HETATM   24  C   UNL     1     -11.157   4.685 -35.605  1.00  0.00     0.033 A 
HETATM   25  C   UNL     1     -12.452   4.192 -35.421  1.00  0.00     0.002 A 
HETATM   26  C   UNL     1     -12.962   4.007 -34.139  1.00  0.00     0.002 A 
ENDBRANCH  17  18
ENDBRANCH  14  17
ENDBRANCH  13  14
ENDBRANCH  10  13
ENDBRANCH   1   9
BRANCH   5  27
HETATM   27  C   UNL     1      -8.381   0.303 -33.160  1.00  0.00    -0.016 A 
HETATM   28  C   UNL     1      -9.469  -0.246 -32.457  1.00  0.00     0.010 A 
HETATM   29  C   UNL     1     -10.788   0.031 -32.833  1.00  0.00     0.001 A 
HETATM   30  C   UNL     1     -11.047   0.873 -33.909  1.00  0.00     0.000 A 
HETATM   31  C   UNL     1      -9.990   1.449 -34.604  1.00  0.00     0.001 A 
HETATM   32  C   UNL     1      -8.672   1.174 -34.230  1.00  0.00     0.010 A 
ENDBRANCH   5  27
BRANCH   5  33
HETATM   33  C   UNL     1      -6.326  -1.175 -33.478  1.00  0.00    -0.016 A 
HETATM   34  C   UNL     1      -4.945  -1.448 -33.463  1.00  0.00     0.010 A 
HETATM   35  C   UNL     1      -4.419  -2.557 -34.133  1.00  0.00     0.001 A 
HETATM   36  C   UNL     1      -5.259  -3.425 -34.821  1.00  0.00     0.000 A 
HETATM   37  C   UNL     1      -6.629  -3.193 -34.832  1.00  0.00     0.001 A 
HETATM   38  C   UNL     1      -7.156  -2.086 -34.161  1.00  0.00     0.010 A 
ENDBRANCH   5  33
TORSDOF 7
ENDMDL
MODEL 4
REMARK VINA RESULT:      -9.4      3.059      6.092
REMARK  7 active torsions:
REMARK  status: ('A' for Active; 'I' for Inactive)
REMARK    1  A    between atoms: N_2  and  C_4 
REMARK    2  A    between atoms: N_2  and  C_27 
REMARK    3  A    between atoms: C_4  and  C_5 
REMARK       I    between atoms: C_5  and  N_6 
REMARK    4  A    between atoms: N_6  and  N_7 
REMARK    5  A    between atoms: C_11  and  C_12 
REMARK    6  A    between atoms: C_11  and  C_18 
REMARK    7  A    between atoms: C_27  and  C_28 
ROOT
HETATM    1  N   UNL     1      -6.171   5.760 -30.694  1.00  0.00    -0.167 N 
HETATM    2  C   UNL     1      -5.105   5.719 -29.843  1.00  0.00     0.346 C 
HETATM    3  O   UNL     1      -4.936   6.412 -28.855  1.00  0.00    -0.245 OA
HETATM    4  N   UNL     1      -4.205   4.803 -30.317  1.00  0.00    -0.315 N 
HETATM    5  C   UNL     1      -4.535   4.269 -31.637  1.00  0.00     0.173 C 
HETATM    6  C   UNL     1      -5.889   5.053 -31.840  1.00  0.00     0.285 C 
HETATM    7  O   UNL     1      -6.621   5.051 -32.827  1.00  0.00    -0.267 OA
HETATM    8  H   UNL     1      -3.325   4.667 -29.840  1.00  0.00     0.166 HD
ENDROOT
BRANCH   1   9
HETATM    9  N   UNL     1      -7.053   6.837 -30.669  1.00  0.00    -0.255 N 
HETATM   10  C   UNL     1      -8.325   6.792 -30.171  1.00  0.00     0.262 C 
HETATM   11  O   UNL     1      -8.957   7.842 -30.034  1.00  0.00    -0.270 OA
HETATM   12  H   UNL     1      -6.635   7.756 -30.806  1.00  0.00     0.191 HD
BRANCH  10  13
HETATM   13  C   UNL     1      -8.947   5.442 -29.795  1.00  0.00     0.338 C 
BRANCH  13  14
HETATM   14  N   UNL     1      -9.363   4.563 -30.985  1.00  0.00    -0.061 N 
HETATM   15  C   UNL     1     -10.472   5.154 -31.795  1.00  0.00     0.270 C 
HETATM   16  H   UNL     1      -8.522   4.523 -31.581  1.00  0.00     0.280 HD
BRANCH  14  17
HETATM   17  C   UNL     1      -9.607   3.104 -30.616  1.00  0.00     0.301 C 
BRANCH  17  18
HETATM   18  C   UNL     1      -9.010   2.187 -31.644  1.00  0.00     0.102 A 
HETATM   19  S   UNL     1      -9.188   0.493 -31.524  1.00  0.00    -0.071 SA
HETATM   20  C   UNL     1      -8.273   0.299 -32.971  1.00  0.00     0.035 A 
HETATM   21  C   UNL     1      -7.898   1.559 -33.447  1.00  0.00     0.074 A 
HETATM   22  C   UNL     1      -7.911  -0.883 -33.637  1.00  0.00     0.021 A 
HETATM   23  N   UNL     1      -8.325   2.635 -32.677  1.00  0.00    -0.243 NA
HETATM   24  C   UNL     1      -7.137   1.640 -34.629  1.00  0.00     0.033 A 
HETATM   25  C   UNL     1      -6.772   0.468 -35.300  1.00  0.00     0.002 A 
HETATM   26  C   UNL     1      -7.155  -0.776 -34.807  1.00  0.00     0.002 A 
ENDBRANCH  17  18
ENDBRANCH  14  17
ENDBRANCH  13  14
ENDBRANCH  10  13
ENDBRANCH   1   9
BRANCH   5  27
HETATM   27  C   UNL     1      -4.735   2.750 -31.559  1.00  0.00    -0.016 A 
HETATM   28  C   UNL     1      -4.160   1.877 -32.502  1.00  0.00     0.010 A 
HETATM   29  C   UNL     1      -4.329   0.492 -32.404  1.00  0.00     0.001 A 
HETATM   30  C   UNL     1      -5.064  -0.052 -31.356  1.00  0.00     0.000 A 
HETATM   31  C   UNL     1      -5.621   0.787 -30.397  1.00  0.00     0.001 A 
HETATM   32  C   UNL     1      -5.453   2.171 -30.492  1.00  0.00     0.010 A 
ENDBRANCH   5  27
BRANCH   5  33
HETATM   33  C   UNL     1      -3.497   4.667 -32.697  1.00  0.00    -0.016 A 
HETATM   34  C   UNL     1      -3.859   4.964 -34.026  1.00  0.00     0.010 A 
HETATM   35  C   UNL     1      -2.898   5.333 -34.973  1.00  0.00     0.001 A 
HETATM   36  C   UNL     1      -1.558   5.426 -34.614  1.00  0.00     0.000 A 
HETATM   37  C   UNL     1      -1.177   5.161 -33.304  1.00  0.00     0.001 A 
HETATM   38  C   UNL     1      -2.136   4.795 -32.356  1.00  0.00     0.010 A 
ENDBRANCH   5  33
TORSDOF 7
ENDMDL
MODEL 5
REMARK VINA RESULT:      -9.2      2.265      4.236
REMARK  7 active torsions:
REMARK  status: ('A' for Active; 'I' for Inactive)
REMARK    1  A    between atoms: N_2  and  C_4 
REMARK    2  A    between atoms: N_2  and  C_27 
REMARK    3  A    between atoms: C_4  and  C_5 
REMARK       I    between atoms: C_5  and  N_6 
REMARK    4  A    between atoms: N_6  and  N_7 
REMARK    5  A    between atoms: C_11  and  C_12 
REMARK    6  A    between atoms: C_11  and  C_18 
REMARK    7  A    between atoms: C_27  and  C_28 
ROOT
HETATM    1  N   UNL     1      -6.064   1.891 -31.306  1.00  0.00    -0.167 N 
HETATM    2  C   UNL     1      -6.414   0.885 -30.453  1.00  0.00     0.346 C 
HETATM    3  O   UNL     1      -6.112   0.792 -29.275  1.00  0.00    -0.245 OA
HETATM    4  N   UNL     1      -7.118  -0.055 -31.155  1.00  0.00    -0.315 N 
HETATM    5  C   UNL     1      -7.153   0.178 -32.598  1.00  0.00     0.173 C 
HETATM    6  C   UNL     1      -6.330   1.524 -32.605  1.00  0.00     0.285 C 
HETATM    7  O   UNL     1      -5.977   2.187 -33.577  1.00  0.00    -0.267 OA
HETATM    8  H   UNL     1      -7.424  -0.902 -30.697  1.00  0.00     0.166 HD
ENDROOT
BRANCH   1   9
HETATM    9  N   UNL     1      -5.052   2.785 -30.966  1.00  0.00    -0.255 N 
HETATM   10  C   UNL     1      -5.254   4.032 -30.447  1.00  0.00     0.262 C 
HETATM   11  O   UNL     1      -4.291   4.671 -30.016  1.00  0.00    -0.270 OA
HETATM   12  H   UNL     1      -4.118   2.385 -30.876  1.00  0.00     0.191 HD
BRANCH  10  13
HETATM   13  C   UNL     1      -6.670   4.620 -30.410  1.00  0.00     0.338 C 
BRANCH  13  14
HETATM   14  N   UNL     1      -6.818   6.000 -31.072  1.00  0.00    -0.061 N 
HETATM   15  C   UNL     1      -7.981   6.782 -30.550  1.00  0.00     0.270 C 
HETATM   16  H   UNL     1      -5.955   6.503 -30.812  1.00  0.00     0.280 HD
BRANCH  14  17
HETATM   17  C   UNL     1      -6.761   5.961 -32.595  1.00  0.00     0.301 C 
BRANCH  17  18
HETATM   18  C   UNL     1      -5.340   5.952 -33.076  1.00  0.00     0.102 A 
HETATM   19  S   UNL     1      -4.849   4.940 -34.360  1.00  0.00    -0.071 SA
HETATM   20  C   UNL     1      -3.241   5.541 -34.215  1.00  0.00     0.035 A 
HETATM   21  C   UNL     1      -3.199   6.487 -33.186  1.00  0.00     0.074 A 
HETATM   22  C   UNL     1      -2.099   5.202 -34.957  1.00  0.00     0.021 A 
HETATM   23  N   UNL     1      -4.408   6.714 -32.538  1.00  0.00    -0.243 NA
HETATM   24  C   UNL     1      -1.973   7.113 -32.890  1.00  0.00     0.033 A 
HETATM   25  C   UNL     1      -0.830   6.782 -33.624  1.00  0.00     0.002 A 
HETATM   26  C   UNL     1      -0.895   5.837 -34.644  1.00  0.00     0.002 A 
ENDBRANCH  17  18
ENDBRANCH  14  17
ENDBRANCH  13  14
ENDBRANCH  10  13
ENDBRANCH   1   9
BRANCH   5  27
HETATM   27  C   UNL     1      -8.601   0.367 -33.069  1.00  0.00    -0.016 A 
HETATM   28  C   UNL     1      -9.664  -0.365 -32.508  1.00  0.00     0.010 A 
HETATM   29  C   UNL     1     -10.983  -0.164 -32.929  1.00  0.00     0.001 A 
HETATM   30  C   UNL     1     -11.270   0.782 -33.908  1.00  0.00     0.000 A 
HETATM   31  C   UNL     1     -10.241   1.536 -34.460  1.00  0.00     0.001 A 
HETATM   32  C   UNL     1      -8.923   1.338 -34.040  1.00  0.00     0.010 A 
ENDBRANCH   5  27
BRANCH   5  33
HETATM   33  C   UNL     1      -6.424  -0.924 -33.379  1.00  0.00    -0.016 A 
HETATM   34  C   UNL     1      -5.041  -1.152 -33.241  1.00  0.00     0.010 A 
HETATM   35  C   UNL     1      -4.400  -2.169 -33.956  1.00  0.00     0.001 A 
HETATM   36  C   UNL     1      -5.124  -2.987 -34.815  1.00  0.00     0.000 A 
HETATM   37  C   UNL     1      -6.494  -2.800 -34.952  1.00  0.00     0.001 A 
HETATM   38  C   UNL     1      -7.137  -1.787 -34.236  1.00  0.00     0.010 A 
ENDBRANCH   5  33
TORSDOF 7
ENDMDL
MODEL 6
REMARK VINA RESULT:      -9.2      3.513      5.432
REMARK  7 active torsions:
REMARK  status: ('A' for Active; 'I' for Inactive)
REMARK    1  A    between atoms: N_2  and  C_4 
REMARK    2  A    between atoms: N_2  and  C_27 
REMARK    3  A    between atoms: C_4  and  C_5 
REMARK       I    between atoms: C_5  and  N_6 
REMARK    4  A    between atoms: N_6  and  N_7 
REMARK    5  A    between atoms: C_11  and  C_12 
REMARK    6  A    between atoms: C_11  and  C_18 
REMARK    7  A    between atoms: C_27  and  C_28 
ROOT
HETATM    1  N   UNL     1      -4.730   1.218 -31.868  1.00  0.00    -0.167 N 
HETATM    2  C   UNL     1      -5.141   0.364 -30.886  1.00  0.00     0.346 C 
HETATM    3  O   UNL     1      -4.666   0.258 -29.768  1.00  0.00    -0.245 OA
HETATM    4  N   UNL     1      -6.150  -0.415 -31.382  1.00  0.00    -0.315 N 
HETATM    5  C   UNL     1      -6.385  -0.249 -32.816  1.00  0.00     0.173 C 
HETATM    6  C   UNL     1      -5.295   0.863 -33.071  1.00  0.00     0.285 C 
HETATM    7  O   UNL     1      -4.980   1.378 -34.141  1.00  0.00    -0.267 OA
HETATM    8  H   UNL     1      -6.553  -1.144 -30.810  1.00  0.00     0.166 HD
ENDROOT
BRANCH   1   9
HETATM    9  N   UNL     1      -3.500   1.863 -31.772  1.00  0.00    -0.255 N 
HETATM   10  C   UNL     1      -3.329   3.167 -31.400  1.00  0.00     0.262 C 
HETATM   11  O   UNL     1      -2.191   3.587 -31.176  1.00  0.00    -0.270 OA
HETATM   12  H   UNL     1      -2.681   1.257 -31.745  1.00  0.00     0.191 HD
BRANCH  10  13
HETATM   13  C   UNL     1      -4.549   4.086 -31.268  1.00  0.00     0.338 C 
BRANCH  13  14
HETATM   14  N   UNL     1      -4.456   5.135 -30.149  1.00  0.00    -0.061 N 
HETATM   15  C   UNL     1      -5.610   5.089 -29.199  1.00  0.00     0.270 C 
HETATM   16  H   UNL     1      -3.604   4.877 -29.626  1.00  0.00     0.280 HD
BRANCH  14  17
HETATM   17  C   UNL     1      -4.151   6.543 -30.649  1.00  0.00     0.301 C 
BRANCH  17  18
HETATM   18  C   UNL     1      -3.008   7.146 -29.886  1.00  0.00     0.102 A 
HETATM   19  S   UNL     1      -3.261   8.417 -28.776  1.00  0.00    -0.071 SA
HETATM   20  C   UNL     1      -1.572   8.453 -28.439  1.00  0.00     0.035 A 
HETATM   21  C   UNL     1      -0.932   7.475 -29.207  1.00  0.00     0.074 A 
HETATM   22  C   UNL     1      -0.863   9.286 -27.559  1.00  0.00     0.021 A 
HETATM   23  N   UNL     1      -1.765   6.732 -30.035  1.00  0.00    -0.243 NA
HETATM   24  C   UNL     1       0.464   7.326 -29.090  1.00  0.00     0.033 A 
HETATM   25  C   UNL     1       1.179   8.151 -28.216  1.00  0.00     0.002 A 
HETATM   26  C   UNL     1       0.521   9.119 -27.462  1.00  0.00     0.002 A 
ENDBRANCH  17  18
ENDBRANCH  14  17
ENDBRANCH  13  14
ENDBRANCH  10  13
ENDBRANCH   1   9
BRANCH   5  27
HETATM   27  C   UNL     1      -7.814   0.254 -33.064  1.00  0.00    -0.016 A 
HETATM   28  C   UNL     1      -8.224   0.727 -34.324  1.00  0.00     0.010 A 
HETATM   29  C   UNL     1      -9.537   1.157 -34.544  1.00  0.00     0.001 A 
HETATM   30  C   UNL     1     -10.471   1.111 -33.515  1.00  0.00     0.000 A 
HETATM   31  C   UNL     1     -10.098   0.624 -32.267  1.00  0.00     0.001 A 
HETATM   32  C   UNL     1      -8.787   0.192 -32.045  1.00  0.00     0.010 A 
ENDBRANCH   5  27
BRANCH   5  33
HETATM   33  C   UNL     1      -6.071  -1.527 -33.605  1.00  0.00    -0.016 A 
HETATM   34  C   UNL     1      -4.751  -1.970 -33.820  1.00  0.00     0.010 A 
HETATM   35  C   UNL     1      -4.488  -3.143 -34.535  1.00  0.00     0.001 A 
HETATM   36  C   UNL     1      -5.535  -3.907 -35.040  1.00  0.00     0.000 A 
HETATM   37  C   UNL     1      -6.847  -3.506 -34.822  1.00  0.00     0.001 A 
HETATM   38  C   UNL     1      -7.111  -2.336 -34.106  1.00  0.00     0.010 A 
ENDBRANCH   5  33
TORSDOF 7
ENDMDL
MODEL 7
REMARK VINA RESULT:      -9.1      2.557      5.000
REMARK  7 active torsions:
REMARK  status: ('A' for Active; 'I' for Inactive)
REMARK    1  A    between atoms: N_2  and  C_4 
REMARK    2  A    between atoms: N_2  and  C_27 
REMARK    3  A    between atoms: C_4  and  C_5 
REMARK       I    between atoms: C_5  and  N_6 
REMARK    4  A    between atoms: N_6  and  N_7 
REMARK    5  A    between atoms: C_11  and  C_12 
REMARK    6  A    between atoms: C_11  and  C_18 
REMARK    7  A    between atoms: C_27  and  C_28 
ROOT
HETATM    1  N   UNL     1      -8.953   4.015 -32.670  1.00  0.00    -0.167 N 
HETATM    2  C   UNL     1      -8.949   4.198 -34.023  1.00  0.00     0.346 C 
HETATM    3  O   UNL     1      -8.834   5.259 -34.613  1.00  0.00    -0.245 OA
HETATM    4  N   UNL     1      -9.161   2.988 -34.625  1.00  0.00    -0.315 N 
HETATM    5  C   UNL     1      -9.492   1.908 -33.698  1.00  0.00     0.173 C 
HETATM    6  C   UNL     1      -9.387   2.746 -32.366  1.00  0.00     0.285 C 
HETATM    7  O   UNL     1      -9.621   2.372 -31.219  1.00  0.00    -0.267 OA
HETATM    8  H   UNL     1      -9.237   2.933 -35.632  1.00  0.00     0.166 HD
ENDROOT
BRANCH   1   9
HETATM    9  N   UNL     1      -9.123   5.098 -31.812  1.00  0.00    -0.255 N 
HETATM   10  C   UNL     1      -8.135   5.650 -31.046  1.00  0.00     0.262 C 
HETATM   11  O   UNL     1      -8.349   6.714 -30.459  1.00  0.00    -0.270 OA
HETATM   12  H   UNL     1      -9.969   5.649 -31.955  1.00  0.00     0.191 HD
BRANCH  10  13
HETATM   13  C   UNL     1      -6.781   4.941 -30.924  1.00  0.00     0.338 C 
BRANCH  13  14
HETATM   14  N   UNL     1      -5.868   5.068 -32.154  1.00  0.00    -0.061 N 
HETATM   15  C   UNL     1      -4.814   4.010 -32.218  1.00  0.00     0.270 C 
HETATM   16  H   UNL     1      -6.500   4.934 -32.959  1.00  0.00     0.280 HD
BRANCH  14  17
HETATM   17  C   UNL     1      -5.315   6.473 -32.367  1.00  0.00     0.301 C 
BRANCH  17  18
HETATM   18  C   UNL     1      -3.947   6.606 -31.764  1.00  0.00     0.102 A 
HETATM   19  S   UNL     1      -3.739   6.796 -30.080  1.00  0.00    -0.071 SA
HETATM   20  C   UNL     1      -2.033   6.867 -30.302  1.00  0.00     0.035 A 
HETATM   21  C   UNL     1      -1.744   6.734 -31.664  1.00  0.00     0.074 A 
HETATM   22  C   UNL     1      -1.021   7.028 -29.342  1.00  0.00     0.021 A 
HETATM   23  N   UNL     1      -2.850   6.586 -32.494  1.00  0.00    -0.243 NA
HETATM   24  C   UNL     1      -0.398   6.764 -32.079  1.00  0.00     0.033 A 
HETATM   25  C   UNL     1       0.616   6.924 -31.130  1.00  0.00     0.002 A 
HETATM   26  C   UNL     1       0.306   7.055 -29.779  1.00  0.00     0.002 A 
ENDBRANCH  17  18
ENDBRANCH  14  17
ENDBRANCH  13  14
ENDBRANCH  10  13
ENDBRANCH   1   9
BRANCH   5  27
HETATM   27  C   UNL     1      -8.439   0.795 -33.782  1.00  0.00    -0.016 A 
HETATM   28  C   UNL     1      -8.093   0.194 -35.007  1.00  0.00     0.010 A 
HETATM   29  C   UNL     1      -7.112  -0.801 -35.073  1.00  0.00     0.001 A 
HETATM   30  C   UNL     1      -6.446  -1.206 -33.922  1.00  0.00     0.000 A 
HETATM   31  C   UNL     1      -6.750  -0.610 -32.704  1.00  0.00     0.001 A 
HETATM   32  C   UNL     1      -7.729   0.385 -32.635  1.00  0.00     0.010 A 
ENDBRANCH   5  27
BRANCH   5  33
HETATM   33  C   UNL     1     -10.918   1.379 -33.912  1.00  0.00    -0.016 A 
HETATM   34  C   UNL     1     -11.380   0.200 -33.297  1.00  0.00     0.010 A 
HETATM   35  C   UNL     1     -12.686  -0.259 -33.500  1.00  0.00     0.001 A 
HETATM   36  C   UNL     1     -13.562   0.454 -34.309  1.00  0.00     0.000 A 
HETATM   37  C   UNL     1     -13.140   1.634 -34.909  1.00  0.00     0.001 A 
HETATM   38  C   UNL     1     -11.837   2.095 -34.706  1.00  0.00     0.010 A 
ENDBRANCH   5  33
TORSDOF 7
ENDMDL
MODEL 8
REMARK VINA RESULT:      -8.9      2.582      5.596
REMARK  7 active torsions:
REMARK  status: ('A' for Active; 'I' for Inactive)
REMARK    1  A    between atoms: N_2  and  C_4 
REMARK    2  A    between atoms: N_2  and  C_27 
REMARK    3  A    between atoms: C_4  and  C_5 
REMARK       I    between atoms: C_5  and  N_6 
REMARK    4  A    between atoms: N_6  and  N_7 
REMARK    5  A    between atoms: C_11  and  C_12 
REMARK    6  A    between atoms: C_11  and  C_18 
REMARK    7  A    between atoms: C_27  and  C_28 
ROOT
HETATM    1  N   UNL     1      -9.282   4.092 -32.926  1.00  0.00    -0.167 N 
HETATM    2  C   UNL     1      -9.391   4.276 -34.273  1.00  0.00     0.346 C 
HETATM    3  O   UNL     1      -9.332   5.337 -34.870  1.00  0.00    -0.245 OA
HETATM    4  N   UNL     1      -9.644   3.065 -34.858  1.00  0.00    -0.315 N 
HETATM    5  C   UNL     1      -9.891   1.982 -33.907  1.00  0.00     0.173 C 
HETATM    6  C   UNL     1      -9.682   2.820 -32.588  1.00  0.00     0.285 C 
HETATM    7  O   UNL     1      -9.818   2.444 -31.426  1.00  0.00    -0.267 OA
HETATM    8  H   UNL     1      -9.802   3.009 -35.854  1.00  0.00     0.166 HD
ENDROOT
BRANCH   1   9
HETATM    9  N   UNL     1      -9.387   5.174 -32.055  1.00  0.00    -0.255 N 
HETATM   10  C   UNL     1      -8.329   5.863 -31.534  1.00  0.00     0.262 C 
HETATM   11  O   UNL     1      -8.535   6.912 -30.918  1.00  0.00    -0.270 OA
HETATM   12  H   UNL     1     -10.305   5.616 -32.006  1.00  0.00     0.191 HD
BRANCH  10  13
HETATM   13  C   UNL     1      -6.905   5.324 -31.719  1.00  0.00     0.338 C 
BRANCH  13  14
HETATM   14  N   UNL     1      -5.807   6.132 -31.011  1.00  0.00    -0.061 N 
HETATM   15  C   UNL     1      -4.953   6.919 -31.953  1.00  0.00     0.270 C 
HETATM   16  H   UNL     1      -6.322   6.800 -30.416  1.00  0.00     0.280 HD
BRANCH  14  17
HETATM   17  C   UNL     1      -4.995   5.319 -30.008  1.00  0.00     0.301 C 
BRANCH  17  18
HETATM   18  C   UNL     1      -4.745   3.931 -30.523  1.00  0.00     0.102 A 
HETATM   19  S   UNL     1      -3.535   3.627 -31.688  1.00  0.00    -0.071 SA
HETATM   20  C   UNL     1      -3.947   1.954 -31.672  1.00  0.00     0.035 A 
HETATM   21  C   UNL     1      -4.989   1.749 -30.763  1.00  0.00     0.074 A 
HETATM   22  C   UNL     1      -3.389   0.898 -32.411  1.00  0.00     0.021 A 
HETATM   23  N   UNL     1      -5.441   2.890 -30.110  1.00  0.00    -0.243 NA
HETATM   24  C   UNL     1      -5.489   0.444 -30.587  1.00  0.00     0.033 A 
HETATM   25  C   UNL     1      -4.940  -0.614 -31.318  1.00  0.00     0.002 A 
HETATM   26  C   UNL     1      -3.903  -0.386 -32.218  1.00  0.00     0.002 A 
ENDBRANCH  17  18
ENDBRANCH  14  17
ENDBRANCH  13  14
ENDBRANCH  10  13
ENDBRANCH   1   9
BRANCH   5  27
HETATM   27  C   UNL     1      -8.840   0.876 -34.079  1.00  0.00    -0.016 A 
HETATM   28  C   UNL     1      -7.912   0.894 -35.137  1.00  0.00     0.010 A 
HETATM   29  C   UNL     1      -6.944  -0.107 -35.267  1.00  0.00     0.001 A 
HETATM   30  C   UNL     1      -6.872  -1.137 -34.337  1.00  0.00     0.000 A 
HETATM   31  C   UNL     1      -7.760  -1.165 -33.268  1.00  0.00     0.001 A 
HETATM   32  C   UNL     1      -8.728  -0.166 -33.135  1.00  0.00     0.010 A 
ENDBRANCH   5  27
BRANCH   5  33
HETATM   33  C   UNL     1     -11.326   1.444 -34.004  1.00  0.00    -0.016 A 
HETATM   34  C   UNL     1     -12.345   2.144 -34.677  1.00  0.00     0.010 A 
HETATM   35  C   UNL     1     -13.644   1.631 -34.760  1.00  0.00     0.001 A 
HETATM   36  C   UNL     1     -13.951   0.403 -34.185  1.00  0.00     0.000 A 
HETATM   37  C   UNL     1     -12.958  -0.320 -33.536  1.00  0.00     0.001 A 
HETATM   38  C   UNL     1     -11.660   0.190 -33.454  1.00  0.00     0.010 A 
ENDBRANCH   5  33
TORSDOF 7
ENDMDL
MODEL 9
REMARK VINA RESULT:      -8.8      2.755      7.280
REMARK  7 active torsions:
REMARK  status: ('A' for Active; 'I' for Inactive)
REMARK    1  A    between atoms: N_2  and  C_4 
REMARK    2  A    between atoms: N_2  and  C_27 
REMARK    3  A    between atoms: C_4  and  C_5 
REMARK       I    between atoms: C_5  and  N_6 
REMARK    4  A    between atoms: N_6  and  N_7 
REMARK    5  A    between atoms: C_11  and  C_12 
REMARK    6  A    between atoms: C_11  and  C_18 
REMARK    7  A    between atoms: C_27  and  C_28 
ROOT
HETATM    1  N   UNL     1      -6.251   5.105 -31.149  1.00  0.00    -0.167 N 
HETATM    2  C   UNL     1      -5.409   4.362 -30.375  1.00  0.00     0.346 C 
HETATM    3  O   UNL     1      -5.726   3.481 -29.593  1.00  0.00    -0.245 OA
HETATM    4  N   UNL     1      -4.131   4.809 -30.568  1.00  0.00    -0.315 N 
HETATM    5  C   UNL     1      -4.039   6.021 -31.382  1.00  0.00     0.173 C 
HETATM    6  C   UNL     1      -5.580   6.183 -31.678  1.00  0.00     0.285 C 
HETATM    7  O   UNL     1      -6.138   7.088 -32.294  1.00  0.00    -0.267 OA
HETATM    8  H   UNL     1      -3.370   4.406 -30.040  1.00  0.00     0.166 HD
ENDROOT
BRANCH   1   9
HETATM    9  N   UNL     1      -7.619   5.121 -30.890  1.00  0.00    -0.255 N 
HETATM   10  C   UNL     1      -8.576   4.592 -31.709  1.00  0.00     0.262 C 
HETATM   11  O   UNL     1      -9.737   4.501 -31.303  1.00  0.00    -0.270 OA
HETATM   12  H   UNL     1      -7.886   5.322 -29.926  1.00  0.00     0.191 HD
BRANCH  10  13
HETATM   13  C   UNL     1      -8.194   4.123 -33.119  1.00  0.00     0.338 C 
BRANCH  13  14
HETATM   14  N   UNL     1      -8.520   2.653 -33.426  1.00  0.00    -0.061 N 
HETATM   15  C   UNL     1      -9.915   2.449 -33.922  1.00  0.00     0.270 C 
HETATM   16  H   UNL     1      -7.872   2.401 -34.189  1.00  0.00     0.280 HD
BRANCH  14  17
HETATM   17  C   UNL     1      -8.139   1.692 -32.305  1.00  0.00     0.301 C 
BRANCH  17  18
HETATM   18  C   UNL     1      -7.278   0.578 -32.826  1.00  0.00     0.102 A 
HETATM   19  S   UNL     1      -5.577   0.641 -32.689  1.00  0.00    -0.071 SA
HETATM   20  C   UNL     1      -5.462  -0.887 -33.478  1.00  0.00     0.035 A 
HETATM   21  C   UNL     1      -6.749  -1.339 -33.787  1.00  0.00     0.074 A 
HETATM   22  C   UNL     1      -4.317  -1.631 -33.801  1.00  0.00     0.021 A 
HETATM   23  N   UNL     1      -7.783  -0.490 -33.410  1.00  0.00    -0.243 NA
HETATM   24  C   UNL     1      -6.894  -2.577 -34.441  1.00  0.00     0.033 A 
HETATM   25  C   UNL     1      -5.759  -3.327 -34.767  1.00  0.00     0.002 A 
HETATM   26  C   UNL     1      -4.488  -2.857 -34.450  1.00  0.00     0.002 A 
ENDBRANCH  17  18
ENDBRANCH  14  17
ENDBRANCH  13  14
ENDBRANCH  10  13
ENDBRANCH   1   9
BRANCH   5  27
HETATM   27  C   UNL     1      -3.217   5.747 -32.649  1.00  0.00    -0.016 A 
HETATM   28  C   UNL     1      -1.817   5.612 -32.608  1.00  0.00     0.010 A 
HETATM   29  C   UNL     1      -1.082   5.337 -33.767  1.00  0.00     0.001 A 
HETATM   30  C   UNL     1      -1.731   5.177 -34.986  1.00  0.00     0.000 A 
HETATM   31  C   UNL     1      -3.116   5.280 -35.049  1.00  0.00     0.001 A 
HETATM   32  C   UNL     1      -3.852   5.554 -33.893  1.00  0.00     0.010 A 
ENDBRANCH   5  27
BRANCH   5  33
HETATM   33  C   UNL     1      -3.498   7.214 -30.582  1.00  0.00    -0.016 A 
HETATM   34  C   UNL     1      -3.072   7.090 -29.245  1.00  0.00     0.010 A 
HETATM   35  C   UNL     1      -2.574   8.189 -28.538  1.00  0.00     0.001 A 
HETATM   36  C   UNL     1      -2.478   9.433 -29.151  1.00  0.00     0.000 A 
HETATM   37  C   UNL     1      -2.868   9.579 -30.476  1.00  0.00     0.001 A 
HETATM   38  C   UNL     1      -3.363   8.481 -31.185  1.00  0.00     0.010 A 
ENDBRANCH   5  33
TORSDOF 7
ENDMDL
MODEL 10
REMARK VINA RESULT:      -8.8      3.710      7.705
REMARK  7 active torsions:
REMARK  status: ('A' for Active; 'I' for Inactive)
REMARK    1  A    between atoms: N_2  and  C_4 
REMARK    2  A    between atoms: N_2  and  C_27 
REMARK    3  A    between atoms: C_4  and  C_5 
REMARK       I    between atoms: C_5  and  N_6 
REMARK    4  A    between atoms: N_6  and  N_7 
REMARK    5  A    between atoms: C_11  and  C_12 
REMARK    6  A    between atoms: C_11  and  C_18 
REMARK    7  A    between atoms: C_27  and  C_28 
ROOT
HETATM    1  N   UNL     1      -6.952   4.275 -32.070  1.00  0.00    -0.167 N 
HETATM    2  C   UNL     1      -6.918   4.239 -33.434  1.00  0.00     0.346 C 
HETATM    3  O   UNL     1      -7.815   4.568 -34.192  1.00  0.00    -0.245 OA
HETATM    4  N   UNL     1      -5.720   3.708 -33.826  1.00  0.00    -0.315 N 
HETATM    5  C   UNL     1      -4.910   3.185 -32.727  1.00  0.00     0.173 C 
HETATM    6  C   UNL     1      -5.891   3.568 -31.553  1.00  0.00     0.285 C 
HETATM    7  O   UNL     1      -5.766   3.322 -30.355  1.00  0.00    -0.267 OA
HETATM    8  H   UNL     1      -5.531   3.559 -34.807  1.00  0.00     0.166 HD
ENDROOT
BRANCH   1   9
HETATM    9  N   UNL     1      -8.162   4.421 -31.397  1.00  0.00    -0.255 N 
HETATM   10  C   UNL     1      -9.041   3.407 -31.141  1.00  0.00     0.262 C 
HETATM   11  O   UNL     1      -9.995   3.610 -30.386  1.00  0.00    -0.270 OA
HETATM   12  H   UNL     1      -8.272   5.283 -30.863  1.00  0.00     0.191 HD
BRANCH  10  13
HETATM   13  C   UNL     1      -8.832   2.036 -31.796  1.00  0.00     0.338 C 
BRANCH  13  14
HETATM   14  N   UNL     1     -10.104   1.383 -32.359  1.00  0.00    -0.061 N 
HETATM   15  C   UNL     1      -9.912  -0.049 -32.742  1.00  0.00     0.270 C 
HETATM   16  H   UNL     1     -10.777   1.415 -31.577  1.00  0.00     0.280 HD
BRANCH  14  17
HETATM   17  C   UNL     1     -10.787   2.205 -33.447  1.00  0.00     0.301 C 
BRANCH  17  18
HETATM   18  C   UNL     1     -12.242   2.401 -33.135  1.00  0.00     0.102 A 
HETATM   19  S   UNL     1     -13.394   1.198 -33.509  1.00  0.00    -0.071 SA
HETATM   20  C   UNL     1     -14.641   2.200 -32.870  1.00  0.00     0.035 A 
HETATM   21  C   UNL     1     -14.076   3.393 -32.407  1.00  0.00     0.074 A 
HETATM   22  C   UNL     1     -16.020   1.950 -32.783  1.00  0.00     0.021 A 
HETATM   23  N   UNL     1     -12.699   3.498 -32.566  1.00  0.00    -0.243 NA
HETATM   24  C   UNL     1     -14.920   4.367 -31.839  1.00  0.00     0.033 A 
HETATM   25  C   UNL     1     -16.294   4.127 -31.748  1.00  0.00     0.002 A 
HETATM   26  C   UNL     1     -16.835   2.932 -32.215  1.00  0.00     0.002 A 
ENDBRANCH  17  18
ENDBRANCH  14  17
ENDBRANCH  13  14
ENDBRANCH  10  13
ENDBRANCH   1   9
BRANCH   5  27
HETATM   27  C   UNL     1      -3.573   3.934 -32.651  1.00  0.00    -0.016 A 
HETATM   28  C   UNL     1      -2.888   4.104 -31.434  1.00  0.00     0.010 A 
HETATM   29  C   UNL     1      -1.657   4.767 -31.383  1.00  0.00     0.001 A 
HETATM   30  C   UNL     1      -1.078   5.260 -32.547  1.00  0.00     0.000 A 
HETATM   31  C   UNL     1      -1.722   5.083 -33.766  1.00  0.00     0.001 A 
HETATM   32  C   UNL     1      -2.951   4.420 -33.820  1.00  0.00     0.010 A 
ENDBRANCH   5  27
BRANCH   5  33
HETATM   33  C   UNL     1      -4.722   1.664 -32.821  1.00  0.00    -0.016 A 
HETATM   34  C   UNL     1      -5.665   0.829 -33.451  1.00  0.00     0.010 A 
HETATM   35  C   UNL     1      -5.469  -0.553 -33.533  1.00  0.00     0.001 A 
HETATM   36  C   UNL     1      -4.323  -1.132 -32.999  1.00  0.00     0.000 A 
HETATM   37  C   UNL     1      -3.365  -0.330 -32.394  1.00  0.00     0.001 A 
HETATM   38  C   UNL     1      -3.558   1.052 -32.313  1.00  0.00     0.010 A 
ENDBRANCH   5  33
TORSDOF 7
ENDMDL
