MODEL 1
REMARK VINA RESULT:      -7.9      0.000      0.000
REMARK  10 active torsions:
REMARK  status: ('A' for Active; 'I' for Inactive)
REMARK    1  A    between atoms: C_3  and  C_4 
REMARK    2  A    between atoms: C_4  and  C_5 
REMARK       I    between atoms: C_5  and  N_6 
REMARK    3  A    between atoms: N_6  and  C_7 
REMARK    4  A    between atoms: C_7  and  C_8 
REMARK    5  A    between atoms: C_8  and  O_9 
REMARK    6  A    between atoms: C_15  and  N_16 
REMARK       I    between atoms: N_16  and  C_17 
REMARK    7  A    between atoms: C_17  and  C_18 
REMARK    8  A    between atoms: C_26  and  C_27 
REMARK    9  A    between atoms: C_27  and  O_28 
REMARK   10  A    between atoms: C_30  and  O_31 
ROOT
HETATM    1  C   UNL     1      -6.948   1.009 -35.441  1.00  0.00     0.016 C 
HETATM    2  C   UNL     1      -7.307   1.005 -33.920  1.00  0.00    -0.030 C 
HETATM    3  C   UNL     1      -5.996   1.298 -33.074  1.00  0.00     0.056 C 
HETATM    4  C   UNL     1      -5.647   2.767 -33.115  1.00  0.00     0.056 A 
HETATM    5  C   UNL     1      -6.550   3.752 -33.461  1.00  0.00     0.012 A 
HETATM    6  S   UNL     1      -5.863   5.292 -33.241  1.00  0.00    -0.055 SA
HETATM    7  C   UNL     1      -4.387   4.537 -32.829  1.00  0.00     0.173 A 
HETATM    8  N   UNL     1      -4.379   3.228 -32.792  1.00  0.00    -0.227 NA
HETATM    9  C   UNL     1      -7.925   3.546 -33.977  1.00  0.00     0.055 C 
HETATM   10  C   UNL     1      -8.433   2.108 -33.693  1.00  0.00     0.012 C 
HETATM   11  C   UNL     1      -9.343   1.992 -32.393  1.00  0.00     0.008 C 
HETATM   12  C   UNL     1     -10.769   2.474 -32.810  1.00  0.00     0.020 C 
HETATM   13  C   UNL     1      -9.480   0.511 -31.928  1.00  0.00     0.128 C 
HETATM   14  C   UNL     1      -9.277  -0.469 -33.078  1.00  0.00     0.033 C 
HETATM   15  C   UNL     1      -7.840  -0.425 -33.590  1.00  0.00     0.013 C 
ENDROOT
BRANCH   3  16
HETATM   16  C   UNL     1      -4.799   0.413 -33.471  1.00  0.00     0.114 C 
BRANCH  16  17
HETATM   17  C   UNL     1      -4.545  -0.656 -32.431  1.00  0.00     0.218 C 
HETATM   18  N   UNL     1      -3.642  -1.620 -32.802  1.00  0.00    -0.359 N 
HETATM   19  H   UNL     1      -2.971  -1.364 -33.533  1.00  0.00     0.162 HD
HETATM   20  O   UNL     1      -5.127  -0.638 -31.347  1.00  0.00    -0.274 OA
BRANCH  18  21
HETATM   21  C   UNL     1      -3.289  -2.691 -31.888  1.00  0.00     0.148 C 
BRANCH  21  22
HETATM   22  C   UNL     1      -3.261  -4.080 -32.532  1.00  0.00     0.186 C 
BRANCH  22  23
HETATM   23  O   UNL     1      -3.674  -4.054 -33.902  1.00  0.00    -0.394 OA
HETATM   24  C   UNL     1      -4.670  -5.026 -34.193  1.00  0.00     0.201 C 
ENDBRANCH  22  23
ENDBRANCH  21  22
ENDBRANCH  18  21
ENDBRANCH  16  17
ENDBRANCH   3  16
BRANCH  11  25
HETATM   25  C   UNL     1      -8.945   2.907 -31.202  1.00  0.00     0.176 C 
BRANCH  25  26
HETATM   26  O   UNL     1      -9.801   2.781 -30.083  1.00  0.00    -0.400 OA
HETATM   27  H   UNL     1     -10.651   2.448 -30.447  1.00  0.00     0.209 HD
ENDBRANCH  25  26
ENDBRANCH  11  25
BRANCH   7  28
HETATM   28  N   UNL     1      -3.380   5.434 -32.619  1.00  0.00    -0.305 N 
HETATM   29  C   UNL     1      -2.204   5.094 -31.992  1.00  0.00     0.231 C 
HETATM   30  O   UNL     1      -1.962   3.994 -31.501  1.00  0.00    -0.272 OA
HETATM   31  H   UNL     1      -3.483   6.316 -33.092  1.00  0.00     0.171 HD
BRANCH  29  32
HETATM   32  C   UNL     1      -1.175   6.249 -31.938  1.00  0.00     0.030 C 
HETATM   33  C   UNL     1      -0.972   6.812 -33.352  1.00  0.00     0.025 C 
HETATM   34  C   UNL     1      -1.709   7.369 -31.025  1.00  0.00     0.025 C 
HETATM   35  C   UNL     1       0.171   5.768 -31.368  1.00  0.00     0.025 C 
ENDBRANCH  29  32
ENDBRANCH   7  28
BRANCH  13  36
HETATM   36  O   UNL     1      -8.542   0.210 -30.891  1.00  0.00    -0.395 OA
HETATM   37  H   UNL     1      -7.681   0.590 -31.146  1.00  0.00     0.210 HD
ENDBRANCH  13  36
TORSDOF 10
ENDMDL
MODEL 2
REMARK VINA RESULT:      -7.7      2.627      7.223
REMARK  10 active torsions:
REMARK  status: ('A' for Active; 'I' for Inactive)
REMARK    1  A    between atoms: C_3  and  C_4 
REMARK    2  A    between atoms: C_4  and  C_5 
REMARK       I    between atoms: C_5  and  N_6 
REMARK    3  A    between atoms: N_6  and  C_7 
REMARK    4  A    between atoms: C_7  and  C_8 
REMARK    5  A    between atoms: C_8  and  O_9 
REMARK    6  A    between atoms: C_15  and  N_16 
REMARK       I    between atoms: N_16  and  C_17 
REMARK    7  A    between atoms: C_17  and  C_18 
REMARK    8  A    between atoms: C_26  and  C_27 
REMARK    9  A    between atoms: C_27  and  O_28 
REMARK   10  A    between atoms: C_30  and  O_31 
ROOT
HETATM    1  C   UNL     1      -5.762   3.306 -29.550  1.00  0.00     0.016 C 
HETATM    2  C   UNL     1      -5.851   4.061 -30.915  1.00  0.00    -0.030 C 
HETATM    3  C   UNL     1      -4.998   3.277 -32.001  1.00  0.00     0.056 C 
HETATM    4  C   UNL     1      -5.740   2.055 -32.487  1.00  0.00     0.056 A 
HETATM    5  C   UNL     1      -7.102   1.886 -32.341  1.00  0.00     0.012 A 
HETATM    6  S   UNL     1      -7.616   0.479 -33.146  1.00  0.00    -0.055 SA
HETATM    7  C   UNL     1      -5.984   0.135 -33.516  1.00  0.00     0.173 A 
HETATM    8  N   UNL     1      -5.091   1.012 -33.131  1.00  0.00    -0.227 NA
HETATM    9  C   UNL     1      -8.024   2.765 -31.581  1.00  0.00     0.055 C 
HETATM   10  C   UNL     1      -7.392   4.155 -31.308  1.00  0.00     0.012 C 
HETATM   11  C   UNL     1      -7.832   5.278 -32.346  1.00  0.00     0.008 C 
HETATM   12  C   UNL     1      -9.243   5.768 -31.891  1.00  0.00     0.020 C 
HETATM   13  C   UNL     1      -6.880   6.510 -32.285  1.00  0.00     0.128 C 
HETATM   14  C   UNL     1      -6.198   6.638 -30.928  1.00  0.00     0.033 C 
HETATM   15  C   UNL     1      -5.238   5.478 -30.683  1.00  0.00     0.013 C 
ENDROOT
BRANCH   3  16
HETATM   16  C   UNL     1      -3.573   2.933 -31.530  1.00  0.00     0.114 C 
BRANCH  16  17
HETATM   17  C   UNL     1      -2.555   3.862 -32.156  1.00  0.00     0.218 C 
HETATM   18  N   UNL     1      -2.826   4.230 -33.449  1.00  0.00    -0.359 N 
HETATM   19  H   UNL     1      -3.804   4.172 -33.748  1.00  0.00     0.162 HD
HETATM   20  O   UNL     1      -1.565   4.235 -31.527  1.00  0.00    -0.274 OA
BRANCH  18  21
HETATM   21  C   UNL     1      -1.943   5.138 -34.158  1.00  0.00     0.148 C 
BRANCH  21  22
HETATM   22  C   UNL     1      -2.466   6.574 -34.250  1.00  0.00     0.186 C 
BRANCH  22  23
HETATM   23  O   UNL     1      -1.468   7.540 -33.905  1.00  0.00    -0.394 OA
HETATM   24  C   UNL     1      -1.274   7.650 -32.501  1.00  0.00     0.201 C 
ENDBRANCH  22  23
ENDBRANCH  21  22
ENDBRANCH  18  21
ENDBRANCH  16  17
ENDBRANCH   3  16
BRANCH  11  25
HETATM   25  C   UNL     1      -8.026   4.806 -33.814  1.00  0.00     0.176 C 
BRANCH  25  26
HETATM   26  O   UNL     1      -8.521   5.817 -34.671  1.00  0.00    -0.400 OA
HETATM   27  H   UNL     1      -8.408   6.655 -34.170  1.00  0.00     0.209 HD
ENDBRANCH  25  26
ENDBRANCH  11  25
BRANCH   7  28
HETATM   28  N   UNL     1      -5.831  -1.062 -34.153  1.00  0.00    -0.305 N 
HETATM   29  C   UNL     1      -5.044  -2.073 -33.653  1.00  0.00     0.231 C 
HETATM   30  O   UNL     1      -4.354  -1.990 -32.640  1.00  0.00    -0.272 OA
HETATM   31  H   UNL     1      -6.453  -1.219 -34.929  1.00  0.00     0.171 HD
BRANCH  29  32
HETATM   32  C   UNL     1      -5.084  -3.366 -34.503  1.00  0.00     0.030 C 
HETATM   33  C   UNL     1      -4.646  -3.042 -35.939  1.00  0.00     0.025 C 
HETATM   34  C   UNL     1      -4.114  -4.403 -33.906  1.00  0.00     0.025 C 
HETATM   35  C   UNL     1      -6.495  -3.981 -34.512  1.00  0.00     0.025 C 
ENDBRANCH  29  32
ENDBRANCH   7  28
BRANCH  13  36
HETATM   36  O   UNL     1      -5.877   6.435 -33.302  1.00  0.00    -0.395 OA
HETATM   37  H   UNL     1      -6.020   5.611 -33.803  1.00  0.00     0.210 HD
ENDBRANCH  13  36
TORSDOF 10
ENDMDL
MODEL 3
REMARK VINA RESULT:      -7.4      2.537      6.899
REMARK  10 active torsions:
REMARK  status: ('A' for Active; 'I' for Inactive)
REMARK    1  A    between atoms: C_3  and  C_4 
REMARK    2  A    between atoms: C_4  and  C_5 
REMARK       I    between atoms: C_5  and  N_6 
REMARK    3  A    between atoms: N_6  and  C_7 
REMARK    4  A    between atoms: C_7  and  C_8 
REMARK    5  A    between atoms: C_8  and  O_9 
REMARK    6  A    between atoms: C_15  and  N_16 
REMARK       I    between atoms: N_16  and  C_17 
REMARK    7  A    between atoms: C_17  and  C_18 
REMARK    8  A    between atoms: C_26  and  C_27 
REMARK    9  A    between atoms: C_27  and  O_28 
REMARK   10  A    between atoms: C_30  and  O_31 
ROOT
HETATM    1  C   UNL     1      -5.472   3.271 -29.967  1.00  0.00     0.016 C 
HETATM    2  C   UNL     1      -4.766   3.427 -31.352  1.00  0.00    -0.030 C 
HETATM    3  C   UNL     1      -5.535   2.553 -32.432  1.00  0.00     0.056 C 
HETATM    4  C   UNL     1      -6.811   3.235 -32.866  1.00  0.00     0.056 A 
HETATM    5  C   UNL     1      -7.050   4.583 -32.687  1.00  0.00     0.012 A 
HETATM    6  S   UNL     1      -8.507   5.034 -33.438  1.00  0.00    -0.055 SA
HETATM    7  C   UNL     1      -8.772   3.393 -33.831  1.00  0.00     0.173 A 
HETATM    8  N   UNL     1      -7.836   2.542 -33.492  1.00  0.00    -0.227 NA
HETATM    9  C   UNL     1      -6.199   5.537 -31.935  1.00  0.00     0.055 C 
HETATM   10  C   UNL     1      -4.768   4.978 -31.716  1.00  0.00     0.012 C 
HETATM   11  C   UNL     1      -3.704   5.499 -32.778  1.00  0.00     0.008 C 
HETATM   12  C   UNL     1      -3.278   6.927 -32.309  1.00  0.00     0.020 C 
HETATM   13  C   UNL     1      -2.421   4.616 -32.773  1.00  0.00     0.128 C 
HETATM   14  C   UNL     1      -2.213   3.917 -31.435  1.00  0.00     0.033 C 
HETATM   15  C   UNL     1      -3.311   2.889 -31.176  1.00  0.00     0.013 C 
ENDROOT
BRANCH   3  16
HETATM   16  C   UNL     1      -5.786   1.102 -31.981  1.00  0.00     0.114 C 
BRANCH  16  17
HETATM   17  C   UNL     1      -5.537   0.130 -33.113  1.00  0.00     0.218 C 
HETATM   18  N   UNL     1      -6.661  -0.264 -33.794  1.00  0.00    -0.359 N 
HETATM   19  H   UNL     1      -7.469   0.364 -33.749  1.00  0.00     0.162 HD
HETATM   20  O   UNL     1      -4.401  -0.265 -33.373  1.00  0.00    -0.274 OA
BRANCH  18  21
HETATM   21  C   UNL     1      -6.560  -1.175 -34.920  1.00  0.00     0.148 C 
BRANCH  21  22
HETATM   22  C   UNL     1      -6.722  -2.651 -34.546  1.00  0.00     0.186 C 
BRANCH  22  23
HETATM   23  O   UNL     1      -5.530  -3.406 -34.780  1.00  0.00    -0.394 OA
HETATM   24  C   UNL     1      -5.782  -4.798 -34.924  1.00  0.00     0.201 C 
ENDBRANCH  22  23
ENDBRANCH  21  22
ENDBRANCH  18  21
ENDBRANCH  16  17
ENDBRANCH   3  16
BRANCH  11  25
HETATM   25  C   UNL     1      -4.231   5.694 -34.227  1.00  0.00     0.176 C 
BRANCH  25  26
HETATM   26  O   UNL     1      -3.227   6.081 -35.145  1.00  0.00    -0.400 OA
HETATM   27  H   UNL     1      -3.714   6.401 -35.937  1.00  0.00     0.209 HD
ENDBRANCH  25  26
ENDBRANCH  11  25
BRANCH   7  28
HETATM   28  N   UNL     1      -9.978   3.185 -34.436  1.00  0.00    -0.305 N 
HETATM   29  C   UNL     1     -11.117   2.875 -33.730  1.00  0.00     0.231 C 
HETATM   30  O   UNL     1     -11.162   2.685 -32.517  1.00  0.00    -0.272 OA
HETATM   31  H   UNL     1     -10.018   3.430 -35.412  1.00  0.00     0.171 HD
BRANCH  29  32
HETATM   32  C   UNL     1     -12.382   2.764 -34.616  1.00  0.00     0.030 C 
HETATM   33  C   UNL     1     -13.581   3.358 -33.861  1.00  0.00     0.025 C 
HETATM   34  C   UNL     1     -12.168   3.557 -35.918  1.00  0.00     0.025 C 
HETATM   35  C   UNL     1     -12.672   1.300 -34.989  1.00  0.00     0.025 C 
ENDBRANCH  29  32
ENDBRANCH   7  28
BRANCH  13  36
HETATM   36  O   UNL     1      -2.472   3.629 -33.808  1.00  0.00    -0.395 OA
HETATM   37  H   UNL     1      -2.696   4.083 -34.642  1.00  0.00     0.210 HD
ENDBRANCH  13  36
TORSDOF 10
ENDMDL
MODEL 4
REMARK VINA RESULT:      -7.3      2.713      5.234
REMARK  10 active torsions:
REMARK  status: ('A' for Active; 'I' for Inactive)
REMARK    1  A    between atoms: C_3  and  C_4 
REMARK    2  A    between atoms: C_4  and  C_5 
REMARK       I    between atoms: C_5  and  N_6 
REMARK    3  A    between atoms: N_6  and  C_7 
REMARK    4  A    between atoms: C_7  and  C_8 
REMARK    5  A    between atoms: C_8  and  O_9 
REMARK    6  A    between atoms: C_15  and  N_16 
REMARK       I    between atoms: N_16  and  C_17 
REMARK    7  A    between atoms: C_17  and  C_18 
REMARK    8  A    between atoms: C_26  and  C_27 
REMARK    9  A    between atoms: C_27  and  O_28 
REMARK   10  A    between atoms: C_30  and  O_31 
ROOT
HETATM    1  C   UNL     1      -7.118  -0.038 -29.869  1.00  0.00     0.016 C 
HETATM    2  C   UNL     1      -7.469   0.593 -31.255  1.00  0.00    -0.030 C 
HETATM    3  C   UNL     1      -7.056   2.126 -31.250  1.00  0.00     0.056 C 
HETATM    4  C   UNL     1      -5.563   2.282 -31.418  1.00  0.00     0.056 A 
HETATM    5  C   UNL     1      -4.749   1.290 -31.927  1.00  0.00     0.012 A 
HETATM    6  S   UNL     1      -3.162   1.867 -32.126  1.00  0.00    -0.055 SA
HETATM    7  C   UNL     1      -3.644   3.339 -31.406  1.00  0.00     0.173 A 
HETATM    8  N   UNL     1      -4.906   3.454 -31.076  1.00  0.00    -0.227 NA
HETATM    9  C   UNL     1      -5.150  -0.102 -32.249  1.00  0.00     0.055 C 
HETATM   10  C   UNL     1      -6.691  -0.239 -32.369  1.00  0.00     0.012 C 
HETATM   11  C   UNL     1      -7.229  -0.172 -33.865  1.00  0.00     0.008 C 
HETATM   12  C   UNL     1      -6.998  -1.590 -34.478  1.00  0.00     0.020 C 
HETATM   13  C   UNL     1      -8.763   0.096 -33.903  1.00  0.00     0.128 C 
HETATM   14  C   UNL     1      -9.457  -0.369 -32.628  1.00  0.00     0.033 C 
HETATM   15  C   UNL     1      -9.015   0.462 -31.427  1.00  0.00     0.013 C 
ENDROOT
BRANCH   3  16
HETATM   16  C   UNL     1      -7.579   2.898 -30.024  1.00  0.00     0.114 C 
BRANCH  16  17
HETATM   17  C   UNL     1      -8.585   3.952 -30.433  1.00  0.00     0.218 C 
HETATM   18  N   UNL     1      -9.149   3.763 -31.669  1.00  0.00    -0.359 N 
HETATM   19  H   UNL     1      -9.145   2.806 -32.035  1.00  0.00     0.162 HD
HETATM   20  O   UNL     1      -8.849   4.899 -29.692  1.00  0.00    -0.274 OA
BRANCH  18  21
HETATM   21  C   UNL     1     -10.148   4.688 -32.172  1.00  0.00     0.148 C 
BRANCH  21  22
HETATM   22  C   UNL     1     -11.502   4.040 -32.479  1.00  0.00     0.186 C 
BRANCH  22  23
HETATM   23  O   UNL     1     -11.437   3.142 -33.590  1.00  0.00    -0.394 OA
HETATM   24  C   UNL     1     -12.351   2.059 -33.474  1.00  0.00     0.201 C 
ENDBRANCH  22  23
ENDBRANCH  21  22
ENDBRANCH  18  21
ENDBRANCH  16  17
ENDBRANCH   3  16
BRANCH  11  25
HETATM   25  C   UNL     1      -6.477   0.801 -34.813  1.00  0.00     0.176 C 
BRANCH  25  26
HETATM   26  O   UNL     1      -7.058   0.898 -36.099  1.00  0.00    -0.400 OA
HETATM   27  H   UNL     1      -7.798   0.251 -36.095  1.00  0.00     0.209 HD
ENDBRANCH  25  26
ENDBRANCH  11  25
BRANCH   7  28
HETATM   28  N   UNL     1      -2.604   4.207 -31.241  1.00  0.00    -0.305 N 
HETATM   29  C   UNL     1      -2.316   5.201 -32.148  1.00  0.00     0.231 C 
HETATM   30  O   UNL     1      -2.903   5.370 -33.214  1.00  0.00    -0.272 OA
HETATM   31  H   UNL     1      -2.159   4.179 -30.338  1.00  0.00     0.171 HD
BRANCH  29  32
HETATM   32  C   UNL     1      -1.144   6.114 -31.714  1.00  0.00     0.030 C 
HETATM   33  C   UNL     1      -0.804   7.078 -32.860  1.00  0.00     0.025 C 
HETATM   34  C   UNL     1      -1.562   6.933 -30.479  1.00  0.00     0.025 C 
HETATM   35  C   UNL     1       0.097   5.285 -31.341  1.00  0.00     0.025 C 
ENDBRANCH  29  32
ENDBRANCH   7  28
BRANCH  13  36
HETATM   36  O   UNL     1      -9.036   1.487 -34.098  1.00  0.00    -0.395 OA
HETATM   37  H   UNL     1      -8.642   1.752 -34.949  1.00  0.00     0.210 HD
ENDBRANCH  13  36
TORSDOF 10
ENDMDL
MODEL 5
REMARK VINA RESULT:      -7.3      2.895      5.596
REMARK  10 active torsions:
REMARK  status: ('A' for Active; 'I' for Inactive)
REMARK    1  A    between atoms: C_3  and  C_4 
REMARK    2  A    between atoms: C_4  and  C_5 
REMARK       I    between atoms: C_5  and  N_6 
REMARK    3  A    between atoms: N_6  and  C_7 
REMARK    4  A    between atoms: C_7  and  C_8 
REMARK    5  A    between atoms: C_8  and  O_9 
REMARK    6  A    between atoms: C_15  and  N_16 
REMARK       I    between atoms: N_16  and  C_17 
REMARK    7  A    between atoms: C_17  and  C_18 
REMARK    8  A    between atoms: C_26  and  C_27 
REMARK    9  A    between atoms: C_27  and  O_28 
REMARK   10  A    between atoms: C_30  and  O_31 
ROOT
HETATM    1  C   UNL     1      -8.022   2.542 -30.275  1.00  0.00     0.016 C 
HETATM    2  C   UNL     1      -8.152   2.407 -31.826  1.00  0.00    -0.030 C 
HETATM    3  C   UNL     1      -7.634   3.744 -32.510  1.00  0.00     0.056 C 
HETATM    4  C   UNL     1      -6.125   3.795 -32.516  1.00  0.00     0.056 A 
HETATM    5  C   UNL     1      -5.327   2.680 -32.353  1.00  0.00     0.012 A 
HETATM    6  S   UNL     1      -3.690   3.083 -32.577  1.00  0.00    -0.055 SA
HETATM    7  C   UNL     1      -4.151   4.719 -32.745  1.00  0.00     0.173 A 
HETATM    8  N   UNL     1      -5.433   4.983 -32.698  1.00  0.00    -0.227 NA
HETATM    9  C   UNL     1      -5.783   1.311 -32.010  1.00  0.00     0.055 C 
HETATM   10  C   UNL     1      -7.303   1.134 -32.268  1.00  0.00     0.012 C 
HETATM   11  C   UNL     1      -7.643   0.456 -33.666  1.00  0.00     0.008 C 
HETATM   12  C   UNL     1      -7.440  -1.081 -33.469  1.00  0.00     0.020 C 
HETATM   13  C   UNL     1      -9.138   0.672 -34.051  1.00  0.00     0.128 C 
HETATM   14  C   UNL     1     -10.017   0.896 -32.826  1.00  0.00     0.033 C 
HETATM   15  C   UNL     1      -9.670   2.211 -32.133  1.00  0.00     0.013 C 
ENDROOT
BRANCH   3  16
HETATM   16  C   UNL     1      -8.249   5.020 -31.906  1.00  0.00     0.114 C 
BRANCH  16  17
HETATM   17  C   UNL     1      -9.095   5.751 -32.925  1.00  0.00     0.218 C 
HETATM   18  N   UNL     1      -9.310   5.068 -34.094  1.00  0.00    -0.359 N 
HETATM   19  H   UNL     1      -9.221   4.048 -34.054  1.00  0.00     0.162 HD
HETATM   20  O   UNL     1      -9.536   6.877 -32.694  1.00  0.00    -0.274 OA
BRANCH  18  21
HETATM   21  C   UNL     1     -10.127   5.645 -35.147  1.00  0.00     0.148 C 
BRANCH  21  22
HETATM   22  C   UNL     1     -11.475   4.947 -35.346  1.00  0.00     0.186 C 
BRANCH  22  23
HETATM   23  O   UNL     1     -11.410   3.545 -35.064  1.00  0.00    -0.394 OA
HETATM   24  C   UNL     1     -12.692   2.969 -34.850  1.00  0.00     0.201 C 
ENDBRANCH  22  23
ENDBRANCH  21  22
ENDBRANCH  18  21
ENDBRANCH  16  17
ENDBRANCH   3  16
BRANCH  11  25
HETATM   25  C   UNL     1      -6.711   0.834 -34.849  1.00  0.00     0.176 C 
BRANCH  25  26
HETATM   26  O   UNL     1      -7.148   0.330 -36.096  1.00  0.00    -0.400 OA
HETATM   27  H   UNL     1      -7.487   1.113 -36.584  1.00  0.00     0.209 HD
ENDBRANCH  25  26
ENDBRANCH  11  25
BRANCH   7  28
HETATM   28  N   UNL     1      -3.080   5.555 -32.876  1.00  0.00    -0.305 N 
HETATM   29  C   UNL     1      -2.426   6.097 -31.794  1.00  0.00     0.231 C 
HETATM   30  O   UNL     1      -2.765   5.950 -30.622  1.00  0.00    -0.272 OA
HETATM   31  H   UNL     1      -2.699   5.625 -33.805  1.00  0.00     0.171 HD
BRANCH  29  32
HETATM   32  C   UNL     1      -1.193   6.950 -32.180  1.00  0.00     0.030 C 
HETATM   33  C   UNL     1      -1.520   8.436 -31.971  1.00  0.00     0.025 C 
HETATM   34  C   UNL     1      -0.003   6.568 -31.281  1.00  0.00     0.025 C 
HETATM   35  C   UNL     1      -0.785   6.705 -33.644  1.00  0.00     0.025 C 
ENDBRANCH  29  32
ENDBRANCH   7  28
BRANCH  13  36
HETATM   36  O   UNL     1      -9.283   1.787 -34.936  1.00  0.00    -0.395 OA
HETATM   37  H   UNL     1      -9.150   2.601 -34.415  1.00  0.00     0.210 HD
ENDBRANCH  13  36
TORSDOF 10
ENDMDL
MODEL 6
REMARK VINA RESULT:      -7.2      3.278      9.221
REMARK  10 active torsions:
REMARK  status: ('A' for Active; 'I' for Inactive)
REMARK    1  A    between atoms: C_3  and  C_4 
REMARK    2  A    between atoms: C_4  and  C_5 
REMARK       I    between atoms: C_5  and  N_6 
REMARK    3  A    between atoms: N_6  and  C_7 
REMARK    4  A    between atoms: C_7  and  C_8 
REMARK    5  A    between atoms: C_8  and  O_9 
REMARK    6  A    between atoms: C_15  and  N_16 
REMARK       I    between atoms: N_16  and  C_17 
REMARK    7  A    between atoms: C_17  and  C_18 
REMARK    8  A    between atoms: C_26  and  C_27 
REMARK    9  A    between atoms: C_27  and  O_28 
REMARK   10  A    between atoms: C_30  and  O_31 
ROOT
HETATM    1  C   UNL     1      -3.674   8.040 -31.859  1.00  0.00     0.016 C 
HETATM    2  C   UNL     1      -2.899   7.251 -30.755  1.00  0.00    -0.030 C 
HETATM    3  C   UNL     1      -3.801   6.049 -30.242  1.00  0.00     0.056 C 
HETATM    4  C   UNL     1      -3.795   4.911 -31.235  1.00  0.00     0.056 A 
HETATM    5  C   UNL     1      -2.829   4.758 -32.209  1.00  0.00     0.012 A 
HETATM    6  S   UNL     1      -3.045   3.287 -33.035  1.00  0.00    -0.055 SA
HETATM    7  C   UNL     1      -4.470   3.027 -32.129  1.00  0.00     0.173 A 
HETATM    8  N   UNL     1      -4.771   3.924 -31.224  1.00  0.00    -0.227 NA
HETATM    9  C   UNL     1      -1.751   5.722 -32.541  1.00  0.00     0.055 C 
HETATM   10  C   UNL     1      -1.531   6.749 -31.399  1.00  0.00     0.012 C 
HETATM   11  C   UNL     1      -0.335   6.375 -30.419  1.00  0.00     0.008 C 
HETATM   12  C   UNL     1       0.978   6.813 -31.142  1.00  0.00     0.020 C 
HETATM   13  C   UNL     1      -0.417   7.187 -29.092  1.00  0.00     0.128 C 
HETATM   14  C   UNL     1      -1.168   8.501 -29.270  1.00  0.00     0.033 C 
HETATM   15  C   UNL     1      -2.640   8.253 -29.586  1.00  0.00     0.013 C 
ENDROOT
BRANCH   3  16
HETATM   16  C   UNL     1      -5.233   6.474 -29.865  1.00  0.00     0.114 C 
BRANCH  16  17
HETATM   17  C   UNL     1      -5.369   6.658 -28.370  1.00  0.00     0.218 C 
HETATM   18  N   UNL     1      -4.255   6.324 -27.642  1.00  0.00    -0.359 N 
HETATM   19  H   UNL     1      -3.359   6.341 -28.139  1.00  0.00     0.162 HD
HETATM   20  O   UNL     1      -6.417   7.072 -27.874  1.00  0.00    -0.274 OA
BRANCH  18  21
HETATM   21  C   UNL     1      -4.243   6.478 -26.199  1.00  0.00     0.148 C 
BRANCH  21  22
HETATM   22  C   UNL     1      -3.619   7.789 -25.714  1.00  0.00     0.186 C 
BRANCH  22  23
HETATM   23  O   UNL     1      -2.206   7.834 -25.934  1.00  0.00    -0.394 OA
HETATM   24  C   UNL     1      -1.596   8.975 -25.343  1.00  0.00     0.201 C 
ENDBRANCH  22  23
ENDBRANCH  21  22
ENDBRANCH  18  21
ENDBRANCH  16  17
ENDBRANCH   3  16
BRANCH  11  25
HETATM   25  C   UNL     1      -0.145   4.861 -30.126  1.00  0.00     0.176 C 
BRANCH  25  26
HETATM   26  O   UNL     1       0.978   4.580 -29.313  1.00  0.00    -0.400 OA
HETATM   27  H   UNL     1       1.138   3.616 -29.423  1.00  0.00     0.209 HD
ENDBRANCH  25  26
ENDBRANCH  11  25
BRANCH   7  28
HETATM   28  N   UNL     1      -5.135   1.899 -32.511  1.00  0.00    -0.305 N 
HETATM   29  C   UNL     1      -6.063   1.893 -33.526  1.00  0.00     0.231 C 
HETATM   30  O   UNL     1      -6.437   2.888 -34.142  1.00  0.00    -0.272 OA
HETATM   31  H   UNL     1      -4.792   1.040 -32.111  1.00  0.00     0.171 HD
BRANCH  29  32
HETATM   32  C   UNL     1      -6.630   0.486 -33.838  1.00  0.00     0.030 C 
HETATM   33  C   UNL     1      -7.256   0.493 -35.241  1.00  0.00     0.025 C 
HETATM   34  C   UNL     1      -5.489  -0.547 -33.804  1.00  0.00     0.025 C 
HETATM   35  C   UNL     1      -7.684   0.070 -32.797  1.00  0.00     0.025 C 
ENDBRANCH  29  32
ENDBRANCH   7  28
BRANCH  13  36
HETATM   36  O   UNL     1      -1.055   6.425 -28.062  1.00  0.00    -0.395 OA
HETATM   37  H   UNL     1      -1.941   6.174 -28.382  1.00  0.00     0.210 HD
ENDBRANCH  13  36
TORSDOF 10
ENDMDL
MODEL 7
REMARK VINA RESULT:      -7.1      2.390      3.803
REMARK  10 active torsions:
REMARK  status: ('A' for Active; 'I' for Inactive)
REMARK    1  A    between atoms: C_3  and  C_4 
REMARK    2  A    between atoms: C_4  and  C_5 
REMARK       I    between atoms: C_5  and  N_6 
REMARK    3  A    between atoms: N_6  and  C_7 
REMARK    4  A    between atoms: C_7  and  C_8 
REMARK    5  A    between atoms: C_8  and  O_9 
REMARK    6  A    between atoms: C_15  and  N_16 
REMARK       I    between atoms: N_16  and  C_17 
REMARK    7  A    between atoms: C_17  and  C_18 
REMARK    8  A    between atoms: C_26  and  C_27 
REMARK    9  A    between atoms: C_27  and  O_28 
REMARK   10  A    between atoms: C_30  and  O_31 
ROOT
HETATM    1  C   UNL     1     -10.085   4.657 -34.722  1.00  0.00     0.016 C 
HETATM    2  C   UNL     1     -10.054   4.334 -33.194  1.00  0.00    -0.030 C 
HETATM    3  C   UNL     1      -8.681   3.619 -32.840  1.00  0.00     0.056 C 
HETATM    4  C   UNL     1      -7.553   4.622 -32.777  1.00  0.00     0.056 A 
HETATM    5  C   UNL     1      -7.752   5.979 -32.622  1.00  0.00     0.012 A 
HETATM    6  S   UNL     1      -6.264   6.779 -32.429  1.00  0.00    -0.055 SA
HETATM    7  C   UNL     1      -5.468   5.291 -32.694  1.00  0.00     0.173 A 
HETATM    8  N   UNL     1      -6.224   4.235 -32.864  1.00  0.00    -0.227 NA
HETATM    9  C   UNL     1      -9.055   6.687 -32.636  1.00  0.00     0.055 C 
HETATM   10  C   UNL     1     -10.239   5.710 -32.412  1.00  0.00     0.012 C 
HETATM   11  C   UNL     1     -10.750   5.652 -30.907  1.00  0.00     0.008 C 
HETATM   12  C   UNL     1     -11.669   6.899 -30.706  1.00  0.00     0.020 C 
HETATM   13  C   UNL     1     -11.632   4.392 -30.657  1.00  0.00     0.128 C 
HETATM   14  C   UNL     1     -12.287   3.889 -31.938  1.00  0.00     0.033 C 
HETATM   15  C   UNL     1     -11.243   3.361 -32.918  1.00  0.00     0.013 C 
ENDROOT
BRANCH   3  16
HETATM   16  C   UNL     1      -8.347   2.437 -33.770  1.00  0.00     0.114 C 
BRANCH  16  17
HETATM   17  C   UNL     1      -7.986   1.203 -32.972  1.00  0.00     0.218 C 
HETATM   18  N   UNL     1      -6.666   1.116 -32.609  1.00  0.00    -0.359 N 
HETATM   19  H   UNL     1      -6.141   1.995 -32.567  1.00  0.00     0.162 HD
HETATM   20  O   UNL     1      -8.834   0.357 -32.693  1.00  0.00    -0.274 OA
BRANCH  18  21
HETATM   21  C   UNL     1      -6.191  -0.005 -31.819  1.00  0.00     0.148 C 
BRANCH  21  22
HETATM   22  C   UNL     1      -5.244  -0.944 -32.572  1.00  0.00     0.186 C 
BRANCH  22  23
HETATM   23  O   UNL     1      -4.088  -1.287 -31.801  1.00  0.00    -0.394 OA
HETATM   24  C   UNL     1      -3.520  -0.165 -31.139  1.00  0.00     0.201 C 
ENDBRANCH  22  23
ENDBRANCH  21  22
ENDBRANCH  18  21
ENDBRANCH  16  17
ENDBRANCH   3  16
BRANCH  11  25
HETATM   25  C   UNL     1      -9.655   5.782 -29.813  1.00  0.00     0.176 C 
BRANCH  25  26
HETATM   26  O   UNL     1      -9.854   6.879 -28.943  1.00  0.00    -0.400 OA
HETATM   27  H   UNL     1      -9.722   6.516 -28.039  1.00  0.00     0.209 HD
ENDBRANCH  25  26
ENDBRANCH  11  25
BRANCH   7  28
HETATM   28  N   UNL     1      -4.110   5.420 -32.725  1.00  0.00    -0.305 N 
HETATM   29  C   UNL     1      -3.411   5.621 -33.893  1.00  0.00     0.231 C 
HETATM   30  O   UNL     1      -3.909   5.637 -35.016  1.00  0.00    -0.272 OA
HETATM   31  H   UNL     1      -3.666   5.519 -31.827  1.00  0.00     0.171 HD
BRANCH  29  32
HETATM   32  C   UNL     1      -1.891   5.819 -33.678  1.00  0.00     0.030 C 
HETATM   33  C   UNL     1      -1.436   4.977 -32.476  1.00  0.00     0.025 C 
HETATM   34  C   UNL     1      -1.130   5.353 -34.932  1.00  0.00     0.025 C 
HETATM   35  C   UNL     1      -1.553   7.301 -33.436  1.00  0.00     0.025 C 
ENDBRANCH  29  32
ENDBRANCH   7  28
BRANCH  13  36
HETATM   36  O   UNL     1     -10.861   3.331 -30.083  1.00  0.00    -0.395 OA
HETATM   37  H   UNL     1     -10.861   3.452 -29.116  1.00  0.00     0.210 HD
ENDBRANCH  13  36
TORSDOF 10
ENDMDL
MODEL 8
REMARK VINA RESULT:      -6.8      2.863      7.231
REMARK  10 active torsions:
REMARK  status: ('A' for Active; 'I' for Inactive)
REMARK    1  A    between atoms: C_3  and  C_4 
REMARK    2  A    between atoms: C_4  and  C_5 
REMARK       I    between atoms: C_5  and  N_6 
REMARK    3  A    between atoms: N_6  and  C_7 
REMARK    4  A    between atoms: C_7  and  C_8 
REMARK    5  A    between atoms: C_8  and  O_9 
REMARK    6  A    between atoms: C_15  and  N_16 
REMARK       I    between atoms: N_16  and  C_17 
REMARK    7  A    between atoms: C_17  and  C_18 
REMARK    8  A    between atoms: C_26  and  C_27 
REMARK    9  A    between atoms: C_27  and  O_28 
REMARK   10  A    between atoms: C_30  and  O_31 
ROOT
HETATM    1  C   UNL     1      -7.223   4.270 -29.986  1.00  0.00     0.016 C 
HETATM    2  C   UNL     1      -7.649   4.530 -31.467  1.00  0.00    -0.030 C 
HETATM    3  C   UNL     1      -6.703   3.699 -32.435  1.00  0.00     0.056 C 
HETATM    4  C   UNL     1      -7.094   2.240 -32.447  1.00  0.00     0.056 A 
HETATM    5  C   UNL     1      -8.329   1.782 -32.033  1.00  0.00     0.012 A 
HETATM    6  S   UNL     1      -8.478   0.116 -32.338  1.00  0.00    -0.055 SA
HETATM    7  C   UNL     1      -6.856   0.104 -32.874  1.00  0.00     0.173 A 
HETATM    8  N   UNL     1      -6.228   1.253 -32.892  1.00  0.00    -0.227 NA
HETATM    9  C   UNL     1      -9.397   2.585 -31.389  1.00  0.00     0.055 C 
HETATM   10  C   UNL     1      -9.178   4.105 -31.605  1.00  0.00     0.012 C 
HETATM   11  C   UNL     1     -10.017   4.712 -32.813  1.00  0.00     0.008 C 
HETATM   12  C   UNL     1     -11.464   4.940 -32.272  1.00  0.00     0.020 C 
HETATM   13  C   UNL     1      -9.465   6.104 -33.242  1.00  0.00     0.128 C 
HETATM   14  C   UNL     1      -8.735   6.805 -32.102  1.00  0.00     0.033 C 
HETATM   15  C   UNL     1      -7.459   6.057 -31.726  1.00  0.00     0.013 C 
ENDROOT
BRANCH   3  16
HETATM   16  C   UNL     1      -5.203   3.887 -32.138  1.00  0.00     0.114 C 
BRANCH  16  17
HETATM   17  C   UNL     1      -4.486   4.494 -33.324  1.00  0.00     0.218 C 
HETATM   18  N   UNL     1      -3.125   4.600 -33.184  1.00  0.00    -0.359 N 
HETATM   19  H   UNL     1      -2.681   3.967 -32.513  1.00  0.00     0.162 HD
HETATM   20  O   UNL     1      -5.107   4.860 -34.321  1.00  0.00    -0.274 OA
BRANCH  18  21
HETATM   21  C   UNL     1      -2.314   5.141 -34.259  1.00  0.00     0.148 C 
BRANCH  21  22
HETATM   22  C   UNL     1      -2.178   6.666 -34.233  1.00  0.00     0.186 C 
BRANCH  22  23
HETATM   23  O   UNL     1      -0.863   7.091 -33.865  1.00  0.00    -0.394 OA
HETATM   24  C   UNL     1      -0.673   7.129 -32.457  1.00  0.00     0.201 C 
ENDBRANCH  22  23
ENDBRANCH  21  22
ENDBRANCH  18  21
ENDBRANCH  16  17
ENDBRANCH   3  16
BRANCH  11  25
HETATM   25  C   UNL     1     -10.192   3.787 -34.048  1.00  0.00     0.176 C 
BRANCH  25  26
HETATM   26  O   UNL     1     -10.746   4.444 -35.172  1.00  0.00    -0.400 OA
HETATM   27  H   UNL     1     -10.142   5.198 -35.351  1.00  0.00     0.209 HD
ENDBRANCH  25  26
ENDBRANCH  11  25
BRANCH   7  28
HETATM   28  N   UNL     1      -6.416  -1.149 -33.189  1.00  0.00    -0.305 N 
HETATM   29  C   UNL     1      -6.488  -1.662 -34.463  1.00  0.00     0.231 C 
HETATM   30  O   UNL     1      -7.005  -1.093 -35.421  1.00  0.00    -0.272 OA
HETATM   31  H   UNL     1      -5.891  -1.615 -32.467  1.00  0.00     0.171 HD
BRANCH  29  32
HETATM   32  C   UNL     1      -5.856  -3.069 -34.600  1.00  0.00     0.030 C 
HETATM   33  C   UNL     1      -6.918  -4.133 -34.285  1.00  0.00     0.025 C 
HETATM   34  C   UNL     1      -5.360  -3.270 -36.044  1.00  0.00     0.025 C 
HETATM   35  C   UNL     1      -4.654  -3.232 -33.654  1.00  0.00     0.025 C 
ENDBRANCH  29  32
ENDBRANCH   7  28
BRANCH  13  36
HETATM   36  O   UNL     1      -8.578   5.984 -34.357  1.00  0.00    -0.395 OA
HETATM   37  H   UNL     1      -9.112   5.758 -35.141  1.00  0.00     0.210 HD
ENDBRANCH  13  36
TORSDOF 10
ENDMDL
MODEL 9
REMARK VINA RESULT:      -6.8      3.033      5.643
REMARK  10 active torsions:
REMARK  status: ('A' for Active; 'I' for Inactive)
REMARK    1  A    between atoms: C_3  and  C_4 
REMARK    2  A    between atoms: C_4  and  C_5 
REMARK       I    between atoms: C_5  and  N_6 
REMARK    3  A    between atoms: N_6  and  C_7 
REMARK    4  A    between atoms: C_7  and  C_8 
REMARK    5  A    between atoms: C_8  and  O_9 
REMARK    6  A    between atoms: C_15  and  N_16 
REMARK       I    between atoms: N_16  and  C_17 
REMARK    7  A    between atoms: C_17  and  C_18 
REMARK    8  A    between atoms: C_26  and  C_27 
REMARK    9  A    between atoms: C_27  and  O_28 
REMARK   10  A    between atoms: C_30  and  O_31 
ROOT
HETATM    1  C   UNL     1      -6.644   0.008 -30.344  1.00  0.00     0.016 C 
HETATM    2  C   UNL     1      -7.239   0.917 -31.467  1.00  0.00    -0.030 C 
HETATM    3  C   UNL     1      -6.985   2.440 -31.093  1.00  0.00     0.056 C 
HETATM    4  C   UNL     1      -5.552   2.829 -31.366  1.00  0.00     0.056 A 
HETATM    5  C   UNL     1      -4.718   2.115 -32.204  1.00  0.00     0.012 A 
HETATM    6  S   UNL     1      -3.238   2.928 -32.404  1.00  0.00    -0.055 SA
HETATM    7  C   UNL     1      -3.764   4.092 -31.270  1.00  0.00     0.173 A 
HETATM    8  N   UNL     1      -4.975   3.952 -30.792  1.00  0.00    -0.227 NA
HETATM    9  C   UNL     1      -5.017   0.810 -32.844  1.00  0.00     0.055 C 
HETATM   10  C   UNL     1      -6.539   0.506 -32.837  1.00  0.00     0.012 C 
HETATM   11  C   UNL     1      -7.276   0.879 -34.196  1.00  0.00     0.008 C 
HETATM   12  C   UNL     1      -6.989  -0.294 -35.187  1.00  0.00     0.020 C 
HETATM   13  C   UNL     1      -8.821   0.943 -34.002  1.00  0.00     0.128 C 
HETATM   14  C   UNL     1      -9.287   0.082 -32.834  1.00  0.00     0.033 C 
HETATM   15  C   UNL     1      -8.774   0.632 -31.507  1.00  0.00     0.013 C 
ENDROOT
BRANCH   3  16
HETATM   16  C   UNL     1      -7.413   2.799 -29.658  1.00  0.00     0.114 C 
BRANCH  16  17
HETATM   17  C   UNL     1      -7.567   4.295 -29.494  1.00  0.00     0.218 C 
HETATM   18  N   UNL     1      -6.823   4.846 -28.482  1.00  0.00    -0.359 N 
HETATM   19  H   UNL     1      -5.994   4.323 -28.184  1.00  0.00     0.162 HD
HETATM   20  O   UNL     1      -8.318   4.940 -30.226  1.00  0.00    -0.274 OA
BRANCH  18  21
HETATM   21  C   UNL     1      -6.859   6.276 -28.234  1.00  0.00     0.148 C 
BRANCH  21  22
HETATM   22  C   UNL     1      -5.715   7.054 -28.891  1.00  0.00     0.186 C 
BRANCH  22  23
HETATM   23  O   UNL     1      -6.179   8.203 -29.606  1.00  0.00    -0.394 OA
HETATM   24  C   UNL     1      -7.593   8.341 -29.564  1.00  0.00     0.201 C 
ENDBRANCH  22  23
ENDBRANCH  21  22
ENDBRANCH  18  21
ENDBRANCH  16  17
ENDBRANCH   3  16
BRANCH  11  25
HETATM   25  C   UNL     1      -6.760   2.151 -34.921  1.00  0.00     0.176 C 
BRANCH  25  26
HETATM   26  O   UNL     1      -7.038   3.351 -34.225  1.00  0.00    -0.400 OA
HETATM   27  H   UNL     1      -7.835   3.154 -33.684  1.00  0.00     0.209 HD
ENDBRANCH  25  26
ENDBRANCH  11  25
BRANCH   7  28
HETATM   28  N   UNL     1      -2.804   5.019 -30.986  1.00  0.00    -0.305 N 
HETATM   29  C   UNL     1      -2.876   6.320 -31.426  1.00  0.00     0.231 C 
HETATM   30  O   UNL     1      -3.754   6.765 -32.163  1.00  0.00    -0.272 OA
HETATM   31  H   UNL     1      -2.120   4.736 -30.303  1.00  0.00     0.171 HD
BRANCH  29  32
HETATM   32  C   UNL     1      -1.718   7.212 -30.916  1.00  0.00     0.030 C 
HETATM   33  C   UNL     1      -0.390   6.687 -31.480  1.00  0.00     0.025 C 
HETATM   34  C   UNL     1      -1.931   8.658 -31.401  1.00  0.00     0.025 C 
HETATM   35  C   UNL     1      -1.664   7.226 -29.378  1.00  0.00     0.025 C 
ENDBRANCH  29  32
ENDBRANCH   7  28
BRANCH  13  36
HETATM   36  O   UNL     1      -9.256   2.289 -33.788  1.00  0.00    -0.395 OA
HETATM   37  H   UNL     1      -9.915   2.503 -34.473  1.00  0.00     0.210 HD
ENDBRANCH  13  36
TORSDOF 10
ENDMDL
MODEL 10
REMARK VINA RESULT:      -6.8      2.314      2.776
REMARK  10 active torsions:
REMARK  status: ('A' for Active; 'I' for Inactive)
REMARK    1  A    between atoms: C_3  and  C_4 
REMARK    2  A    between atoms: C_4  and  C_5 
REMARK       I    between atoms: C_5  and  N_6 
REMARK    3  A    between atoms: N_6  and  C_7 
REMARK    4  A    between atoms: C_7  and  C_8 
REMARK    5  A    between atoms: C_8  and  O_9 
REMARK    6  A    between atoms: C_15  and  N_16 
REMARK       I    between atoms: N_16  and  C_17 
REMARK    7  A    between atoms: C_17  and  C_18 
REMARK    8  A    between atoms: C_26  and  C_27 
REMARK    9  A    between atoms: C_27  and  O_28 
REMARK   10  A    between atoms: C_30  and  O_31 
ROOT
HETATM    1  C   UNL     1      -6.104   3.434 -34.188  1.00  0.00     0.016 C 
HETATM    2  C   UNL     1      -6.824   2.713 -33.002  1.00  0.00    -0.030 C 
HETATM    3  C   UNL     1      -5.864   2.705 -31.737  1.00  0.00     0.056 C 
HETATM    4  C   UNL     1      -5.845   4.058 -31.067  1.00  0.00     0.056 A 
HETATM    5  C   UNL     1      -6.825   5.012 -31.256  1.00  0.00     0.012 A 
HETATM    6  S   UNL     1      -6.569   6.339 -30.225  1.00  0.00    -0.055 SA
HETATM    7  C   UNL     1      -5.116   5.609 -29.702  1.00  0.00     0.173 A 
HETATM    8  N   UNL     1      -4.832   4.430 -30.197  1.00  0.00    -0.227 NA
HETATM    9  C   UNL     1      -7.947   4.944 -32.224  1.00  0.00     0.055 C 
HETATM   10  C   UNL     1      -8.184   3.494 -32.724  1.00  0.00     0.012 C 
HETATM   11  C   UNL     1      -9.343   2.727 -31.950  1.00  0.00     0.008 C 
HETATM   12  C   UNL     1     -10.688   3.221 -32.572  1.00  0.00     0.020 C 
HETATM   13  C   UNL     1      -9.265   1.190 -32.195  1.00  0.00     0.128 C 
HETATM   14  C   UNL     1      -8.571   0.855 -33.510  1.00  0.00     0.033 C 
HETATM   15  C   UNL     1      -7.097   1.248 -33.468  1.00  0.00     0.013 C 
ENDROOT
BRANCH   3  16
HETATM   16  C   UNL     1      -4.442   2.200 -32.049  1.00  0.00     0.114 C 
BRANCH  16  17
HETATM   17  C   UNL     1      -4.268   0.762 -31.614  1.00  0.00     0.218 C 
HETATM   18  N   UNL     1      -3.584  -0.032 -32.500  1.00  0.00    -0.359 N 
HETATM   19  H   UNL     1      -2.957   0.445 -33.155  1.00  0.00     0.162 HD
HETATM   20  O   UNL     1      -4.724   0.363 -30.543  1.00  0.00    -0.274 OA
BRANCH  18  21
HETATM   21  C   UNL     1      -3.325  -1.427 -32.193  1.00  0.00     0.148 C 
BRANCH  21  22
HETATM   22  C   UNL     1      -4.009  -2.413 -33.143  1.00  0.00     0.186 C 
BRANCH  22  23
HETATM   23  O   UNL     1      -4.791  -1.754 -34.143  1.00  0.00    -0.394 OA
HETATM   24  C   UNL     1      -5.929  -2.511 -34.537  1.00  0.00     0.201 C 
ENDBRANCH  22  23
ENDBRANCH  21  22
ENDBRANCH  18  21
ENDBRANCH  16  17
ENDBRANCH   3  16
BRANCH  11  25
HETATM   25  C   UNL     1      -9.466   3.037 -30.433  1.00  0.00     0.176 C 
BRANCH  25  26
HETATM   26  O   UNL     1     -10.774   3.401 -30.036  1.00  0.00    -0.400 OA
HETATM   27  H   UNL     1     -11.023   2.748 -29.345  1.00  0.00     0.209 HD
ENDBRANCH  25  26
ENDBRANCH  11  25
BRANCH   7  28
HETATM   28  N   UNL     1      -4.414   6.397 -28.836  1.00  0.00    -0.305 N 
HETATM   29  C   UNL     1      -3.340   7.160 -29.233  1.00  0.00     0.231 C 
HETATM   30  O   UNL     1      -2.861   7.164 -30.364  1.00  0.00    -0.272 OA
HETATM   31  H   UNL     1      -4.827   6.510 -27.925  1.00  0.00     0.171 HD
BRANCH  29  32
HETATM   32  C   UNL     1      -2.750   8.034 -28.100  1.00  0.00     0.030 C 
HETATM   33  C   UNL     1      -3.812   9.042 -27.635  1.00  0.00     0.025 C 
HETATM   34  C   UNL     1      -2.357   7.137 -26.911  1.00  0.00     0.025 C 
HETATM   35  C   UNL     1      -1.491   8.781 -28.573  1.00  0.00     0.025 C 
ENDBRANCH  29  32
ENDBRANCH   7  28
BRANCH  13  36
HETATM   36  O   UNL     1      -8.575   0.535 -31.126  1.00  0.00    -0.395 OA
HETATM   37  H   UNL     1      -7.618   0.647 -31.275  1.00  0.00     0.210 HD
ENDBRANCH  13  36
TORSDOF 10
ENDMDL
