MODEL 1
REMARK VINA RESULT:      -9.3      0.000      0.000
REMARK  5 active torsions:
REMARK  status: ('A' for Active; 'I' for Inactive)
REMARK    1  A    between atoms: C_4  and  C_5 
REMARK    2  A    between atoms: C_5  and  S_6 
REMARK    3  A    between atoms: S_6  and  C_7 
REMARK    4  A    between atoms: C_9  and  C_10 
REMARK       I    between atoms: C_10  and  N_11 
REMARK    5  A    between atoms: N_11  and  C_12 
ROOT
HETATM    1  C   UNL     1      -3.944   0.234 -31.759  1.00  0.00     0.189 A 
HETATM    2  N   UNL     1      -5.248   0.483 -31.949  1.00  0.00    -0.216 NA
HETATM    3  C   UNL     1      -5.665   1.759 -31.673  1.00  0.00     0.150 A 
HETATM    4  C   UNL     1      -4.816   2.775 -31.270  1.00  0.00     0.086 A 
HETATM    5 CL   UNL     1      -5.227   4.412 -30.969  1.00  0.00    -0.080 Cl
HETATM    6  C   UNL     1      -3.501   2.395 -31.141  1.00  0.00     0.146 A 
HETATM    7  N   UNL     1      -3.045   1.146 -31.369  1.00  0.00    -0.234 NA
ENDROOT
BRANCH   3   8
HETATM    8  C   UNL     1      -7.149   1.958 -31.842  1.00  0.00     0.278 C 
HETATM    9  N   UNL     1      -7.630   1.411 -33.014  1.00  0.00    -0.300 N 
HETATM   10  H   UNL     1      -6.987   0.932 -33.631  1.00  0.00     0.171 HD
HETATM   11  O   UNL     1      -7.805   2.544 -30.994  1.00  0.00    -0.265 OA
BRANCH   9  12
HETATM   12  C   UNL     1      -8.943   1.489 -33.378  1.00  0.00     0.174 A 
HETATM   13  S   UNL     1      -9.906   0.206 -32.804  1.00  0.00    -0.050 SA
HETATM   14  C   UNL     1     -11.275   0.891 -33.601  1.00  0.00     0.039 A 
HETATM   15  C   UNL     1     -10.881   2.073 -34.232  1.00  0.00     0.077 A 
HETATM   16  C   UNL     1     -12.598   0.420 -33.662  1.00  0.00     0.045 A 
HETATM   17  N   UNL     1      -9.545   2.395 -34.102  1.00  0.00    -0.223 NA
HETATM   18  C   UNL     1     -11.845   2.823 -34.937  1.00  0.00     0.035 A 
HETATM   19  C   UNL     1     -13.167   2.370 -35.001  1.00  0.00     0.026 A 
HETATM   20  C   UNL     1     -13.529   1.182 -34.374  1.00  0.00     0.035 A 
HETATM   21 CL   UNL     1     -15.159   0.636 -34.475  1.00  0.00    -0.084 Cl
ENDBRANCH   9  12
ENDBRANCH   3   8
BRANCH   1  22
HETATM   22  S   UNL     1      -3.359  -1.420 -31.953  1.00  0.00    -0.086 SA
BRANCH  22  23
HETATM   23  C   UNL     1      -3.527  -1.574 -33.752  1.00  0.00     0.121 C 
BRANCH  23  24
HETATM   24  C   UNL     1      -4.565  -2.605 -34.117  1.00  0.00    -0.049 A 
HETATM   25  C   UNL     1      -4.225  -3.964 -34.201  1.00  0.00     0.008 A 
HETATM   26  C   UNL     1      -5.180  -4.914 -34.570  1.00  0.00     0.001 A 
HETATM   27  C   UNL     1      -6.485  -4.515 -34.860  1.00  0.00     0.000 A 
HETATM   28  C   UNL     1      -6.833  -3.169 -34.785  1.00  0.00     0.001 A 
HETATM   29  C   UNL     1      -5.880  -2.217 -34.420  1.00  0.00     0.008 A 
ENDBRANCH  23  24
ENDBRANCH  22  23
ENDBRANCH   1  22
TORSDOF 5
ENDMDL
MODEL 2
REMARK VINA RESULT:      -9.0      3.485      7.835
REMARK  5 active torsions:
REMARK  status: ('A' for Active; 'I' for Inactive)
REMARK    1  A    between atoms: C_4  and  C_5 
REMARK    2  A    between atoms: C_5  and  S_6 
REMARK    3  A    between atoms: S_6  and  C_7 
REMARK    4  A    between atoms: C_9  and  C_10 
REMARK       I    between atoms: C_10  and  N_11 
REMARK    5  A    between atoms: N_11  and  C_12 
ROOT
HETATM    1  C   UNL     1      -7.745   1.404 -34.492  1.00  0.00     0.189 A 
HETATM    2  N   UNL     1      -6.663   2.138 -34.192  1.00  0.00    -0.216 NA
HETATM    3  C   UNL     1      -6.898   3.441 -33.836  1.00  0.00     0.150 A 
HETATM    4  C   UNL     1      -8.162   3.992 -33.728  1.00  0.00     0.086 A 
HETATM    5 CL   UNL     1      -8.562   5.582 -33.225  1.00  0.00    -0.080 Cl
HETATM    6  C   UNL     1      -9.185   3.126 -34.034  1.00  0.00     0.146 A 
HETATM    7  N   UNL     1      -9.007   1.845 -34.422  1.00  0.00    -0.234 NA
ENDROOT
BRANCH   3   8
HETATM    8  C   UNL     1      -5.642   4.230 -33.576  1.00  0.00     0.278 C 
HETATM    9  N   UNL     1      -5.001   3.848 -32.415  1.00  0.00    -0.300 N 
HETATM   10  H   UNL     1      -5.395   3.096 -31.864  1.00  0.00     0.171 HD
HETATM   11  O   UNL     1      -5.275   5.101 -34.351  1.00  0.00    -0.265 OA
BRANCH   9  12
HETATM   12  C   UNL     1      -3.853   4.441 -31.977  1.00  0.00     0.174 A 
HETATM   13  S   UNL     1      -4.079   5.542 -30.696  1.00  0.00    -0.050 SA
HETATM   14  C   UNL     1      -2.386   5.879 -30.702  1.00  0.00     0.039 A 
HETATM   15  C   UNL     1      -1.776   5.094 -31.684  1.00  0.00     0.077 A 
HETATM   16  C   UNL     1      -1.653   6.768 -29.898  1.00  0.00     0.045 A 
HETATM   17  N   UNL     1      -2.630   4.286 -32.408  1.00  0.00    -0.223 NA
HETATM   18  C   UNL     1      -0.380   5.187 -31.860  1.00  0.00     0.035 A 
HETATM   19  C   UNL     1       0.364   6.063 -31.063  1.00  0.00     0.026 A 
HETATM   20  C   UNL     1      -0.271   6.843 -30.101  1.00  0.00     0.035 A 
HETATM   21 CL   UNL     1       0.662   7.924 -29.139  1.00  0.00    -0.084 Cl
ENDBRANCH   9  12
ENDBRANCH   3   8
BRANCH   1  22
HETATM   22  S   UNL     1      -7.514  -0.238 -35.099  1.00  0.00    -0.086 SA
BRANCH  22  23
HETATM   23  C   UNL     1      -6.027  -0.683 -34.161  1.00  0.00     0.121 C 
BRANCH  23  24
HETATM   24  C   UNL     1      -5.728  -2.156 -34.281  1.00  0.00    -0.049 A 
HETATM   25  C   UNL     1      -4.443  -2.650 -34.006  1.00  0.00     0.008 A 
HETATM   26  C   UNL     1      -4.160  -4.010 -34.148  1.00  0.00     0.001 A 
HETATM   27  C   UNL     1      -5.157  -4.891 -34.567  1.00  0.00     0.000 A 
HETATM   28  C   UNL     1      -6.434  -4.412 -34.846  1.00  0.00     0.001 A 
HETATM   29  C   UNL     1      -6.720  -3.053 -34.709  1.00  0.00     0.008 A 
ENDBRANCH  23  24
ENDBRANCH  22  23
ENDBRANCH   1  22
TORSDOF 5
ENDMDL
MODEL 3
REMARK VINA RESULT:      -8.7      3.604      7.700
REMARK  5 active torsions:
REMARK  status: ('A' for Active; 'I' for Inactive)
REMARK    1  A    between atoms: C_4  and  C_5 
REMARK    2  A    between atoms: C_5  and  S_6 
REMARK    3  A    between atoms: S_6  and  C_7 
REMARK    4  A    between atoms: C_9  and  C_10 
REMARK       I    between atoms: C_10  and  N_11 
REMARK    5  A    between atoms: N_11  and  C_12 
ROOT
HETATM    1  C   UNL     1      -9.699   2.017 -33.621  1.00  0.00     0.189 A 
HETATM    2  N   UNL     1      -8.666   2.810 -33.300  1.00  0.00    -0.216 NA
HETATM    3  C   UNL     1      -8.694   4.076 -33.824  1.00  0.00     0.150 A 
HETATM    4  C   UNL     1      -9.731   4.567 -34.597  1.00  0.00     0.086 A 
HETATM    5 CL   UNL     1      -9.891   6.149 -35.236  1.00  0.00    -0.080 Cl
HETATM    6  C   UNL     1     -10.742   3.662 -34.826  1.00  0.00     0.146 A 
HETATM    7  N   UNL     1     -10.747   2.395 -34.363  1.00  0.00    -0.234 NA
ENDROOT
BRANCH   3   8
HETATM    8  C   UNL     1      -7.476   4.895 -33.484  1.00  0.00     0.278 C 
HETATM    9  N   UNL     1      -6.295   4.251 -33.794  1.00  0.00    -0.300 N 
HETATM   10  H   UNL     1      -6.336   3.333 -34.216  1.00  0.00     0.171 HD
HETATM   11  O   UNL     1      -7.584   6.008 -32.992  1.00  0.00    -0.265 OA
BRANCH   9  12
HETATM   12  C   UNL     1      -5.070   4.802 -33.554  1.00  0.00     0.174 A 
HETATM   13  S   UNL     1      -4.369   4.332 -32.074  1.00  0.00    -0.050 SA
HETATM   14  C   UNL     1      -3.007   5.338 -32.411  1.00  0.00     0.039 A 
HETATM   15  C   UNL     1      -3.196   5.943 -33.657  1.00  0.00     0.077 A 
HETATM   16  C   UNL     1      -1.860   5.573 -31.636  1.00  0.00     0.045 A 
HETATM   17  N   UNL     1      -4.382   5.632 -34.291  1.00  0.00    -0.223 NA
HETATM   18  C   UNL     1      -2.194   6.801 -34.155  1.00  0.00     0.035 A 
HETATM   19  C   UNL     1      -1.043   7.041 -33.397  1.00  0.00     0.026 A 
HETATM   20  C   UNL     1      -0.888   6.435 -32.154  1.00  0.00     0.035 A 
HETATM   21 CL   UNL     1       0.531   6.752 -31.231  1.00  0.00    -0.084 Cl
ENDBRANCH   9  12
ENDBRANCH   3   8
BRANCH   1  22
HETATM   22  S   UNL     1      -9.663   0.328 -33.106  1.00  0.00    -0.086 SA
BRANCH  22  23
HETATM   23  C   UNL     1      -8.100   0.343 -32.187  1.00  0.00     0.121 C 
BRANCH  23  24
HETATM   24  C   UNL     1      -7.049  -0.483 -32.885  1.00  0.00    -0.049 A 
HETATM   25  C   UNL     1      -7.367  -1.223 -34.035  1.00  0.00     0.008 A 
HETATM   26  C   UNL     1      -6.399  -2.012 -34.661  1.00  0.00     0.001 A 
HETATM   27  C   UNL     1      -5.105  -2.071 -34.145  1.00  0.00     0.000 A 
HETATM   28  C   UNL     1      -4.779  -1.345 -33.002  1.00  0.00     0.001 A 
HETATM   29  C   UNL     1      -5.744  -0.558 -32.372  1.00  0.00     0.008 A 
ENDBRANCH  23  24
ENDBRANCH  22  23
ENDBRANCH   1  22
TORSDOF 5
ENDMDL
MODEL 4
REMARK VINA RESULT:      -8.5      5.736      9.919
REMARK  5 active torsions:
REMARK  status: ('A' for Active; 'I' for Inactive)
REMARK    1  A    between atoms: C_4  and  C_5 
REMARK    2  A    between atoms: C_5  and  S_6 
REMARK    3  A    between atoms: S_6  and  C_7 
REMARK    4  A    between atoms: C_9  and  C_10 
REMARK       I    between atoms: C_10  and  N_11 
REMARK    5  A    between atoms: N_11  and  C_12 
ROOT
HETATM    1  C   UNL     1      -5.215   4.609 -33.652  1.00  0.00     0.189 A 
HETATM    2  N   UNL     1      -4.414   4.878 -32.610  1.00  0.00    -0.216 NA
HETATM    3  C   UNL     1      -3.135   5.262 -32.916  1.00  0.00     0.150 A 
HETATM    4  C   UNL     1      -2.669   5.428 -34.208  1.00  0.00     0.086 A 
HETATM    5 CL   UNL     1      -1.116   5.970 -34.691  1.00  0.00    -0.080 Cl
HETATM    6  C   UNL     1      -3.598   5.149 -35.183  1.00  0.00     0.146 A 
HETATM    7  N   UNL     1      -4.859   4.736 -34.937  1.00  0.00    -0.234 NA
ENDROOT
BRANCH   3   8
HETATM    8  C   UNL     1      -2.267   5.484 -31.704  1.00  0.00     0.278 C 
HETATM    9  N   UNL     1      -2.320   6.782 -31.240  1.00  0.00    -0.300 N 
HETATM   10  H   UNL     1      -2.917   7.447 -31.715  1.00  0.00     0.171 HD
HETATM   11  O   UNL     1      -1.613   4.571 -31.225  1.00  0.00    -0.265 OA
BRANCH   9  12
HETATM   12  C   UNL     1      -1.599   7.210 -30.163  1.00  0.00     0.174 A 
HETATM   13  S   UNL     1      -2.540   7.551 -28.783  1.00  0.00    -0.050 SA
HETATM   14  C   UNL     1      -1.109   8.016 -27.937  1.00  0.00     0.039 A 
HETATM   15  C   UNL     1      -0.012   7.848 -28.785  1.00  0.00     0.077 A 
HETATM   16  C   UNL     1      -0.967   8.490 -26.622  1.00  0.00     0.045 A 
HETATM   17  N   UNL     1      -0.311   7.395 -30.055  1.00  0.00    -0.223 NA
HETATM   18  C   UNL     1       1.277   8.149 -28.299  1.00  0.00     0.035 A 
HETATM   19  C   UNL     1       1.435   8.617 -26.991  1.00  0.00     0.026 A 
HETATM   20  C   UNL     1       0.323   8.787 -26.171  1.00  0.00     0.035 A 
HETATM   21 CL   UNL     1       0.538   9.375 -24.567  1.00  0.00    -0.084 Cl
ENDBRANCH   9  12
ENDBRANCH   3   8
BRANCH   1  22
HETATM   22  S   UNL     1      -6.830   3.969 -33.339  1.00  0.00    -0.086 SA
BRANCH  22  23
HETATM   23  C   UNL     1      -6.371   2.481 -32.408  1.00  0.00     0.121 C 
BRANCH  23  24
HETATM   24  C   UNL     1      -6.489   1.244 -33.263  1.00  0.00    -0.049 A 
HETATM   25  C   UNL     1      -7.050   1.313 -34.548  1.00  0.00     0.008 A 
HETATM   26  C   UNL     1      -7.187   0.161 -35.325  1.00  0.00     0.001 A 
HETATM   27  C   UNL     1      -6.766  -1.071 -34.827  1.00  0.00     0.000 A 
HETATM   28  C   UNL     1      -6.212  -1.153 -33.552  1.00  0.00     0.001 A 
HETATM   29  C   UNL     1      -6.077  -0.004 -32.771  1.00  0.00     0.008 A 
ENDBRANCH  23  24
ENDBRANCH  22  23
ENDBRANCH   1  22
TORSDOF 5
ENDMDL
MODEL 5
REMARK VINA RESULT:      -8.5      4.254      8.463
REMARK  5 active torsions:
REMARK  status: ('A' for Active; 'I' for Inactive)
REMARK    1  A    between atoms: C_4  and  C_5 
REMARK    2  A    between atoms: C_5  and  S_6 
REMARK    3  A    between atoms: S_6  and  C_7 
REMARK    4  A    between atoms: C_9  and  C_10 
REMARK       I    between atoms: C_10  and  N_11 
REMARK    5  A    between atoms: N_11  and  C_12 
ROOT
HETATM    1  C   UNL     1      -6.191   1.427 -32.559  1.00  0.00     0.189 A 
HETATM    2  N   UNL     1      -5.586   2.228 -31.670  1.00  0.00    -0.216 NA
HETATM    3  C   UNL     1      -5.676   3.574 -31.911  1.00  0.00     0.150 A 
HETATM    4  C   UNL     1      -6.384   4.120 -32.967  1.00  0.00     0.086 A 
HETATM    5 CL   UNL     1      -6.615   5.784 -33.312  1.00  0.00    -0.080 Cl
HETATM    6  C   UNL     1      -6.982   3.192 -33.787  1.00  0.00     0.146 A 
HETATM    7  N   UNL     1      -6.896   1.857 -33.613  1.00  0.00    -0.234 NA
ENDROOT
BRANCH   3   8
HETATM    8  C   UNL     1      -4.922   4.416 -30.916  1.00  0.00     0.278 C 
HETATM    9  N   UNL     1      -3.839   5.063 -31.476  1.00  0.00    -0.300 N 
HETATM   10  H   UNL     1      -3.653   4.941 -32.463  1.00  0.00     0.171 HD
HETATM   11  O   UNL     1      -5.281   4.485 -29.751  1.00  0.00    -0.265 OA
BRANCH   9  12
HETATM   12  C   UNL     1      -3.005   5.866 -30.753  1.00  0.00     0.174 A 
HETATM   13  S   UNL     1      -1.356   5.457 -30.881  1.00  0.00    -0.050 SA
HETATM   14  C   UNL     1      -0.965   6.740 -29.794  1.00  0.00     0.039 A 
HETATM   15  C   UNL     1      -2.144   7.398 -29.435  1.00  0.00     0.077 A 
HETATM   16  C   UNL     1       0.288   7.137 -29.299  1.00  0.00     0.045 A 
HETATM   17  N   UNL     1      -3.300   6.880 -29.985  1.00  0.00    -0.223 NA
HETATM   18  C   UNL     1      -2.069   8.503 -28.562  1.00  0.00     0.035 A 
HETATM   19  C   UNL     1      -0.827   8.913 -28.065  1.00  0.00     0.026 A 
HETATM   20  C   UNL     1       0.330   8.231 -28.429  1.00  0.00     0.035 A 
HETATM   21 CL   UNL     1       1.847   8.744 -27.797  1.00  0.00    -0.084 Cl
ENDBRANCH   9  12
ENDBRANCH   3   8
BRANCH   1  22
HETATM   22  S   UNL     1      -5.995  -0.320 -32.398  1.00  0.00    -0.086 SA
BRANCH  22  23
HETATM   23  C   UNL     1      -5.981  -0.769 -34.155  1.00  0.00     0.121 C 
BRANCH  23  24
HETATM   24  C   UNL     1      -5.723  -2.244 -34.340  1.00  0.00    -0.049 A 
HETATM   25  C   UNL     1      -6.744  -3.100 -34.777  1.00  0.00     0.008 A 
HETATM   26  C   UNL     1      -6.511  -4.470 -34.917  1.00  0.00     0.001 A 
HETATM   27  C   UNL     1      -5.255  -4.998 -34.620  1.00  0.00     0.000 A 
HETATM   28  C   UNL     1      -4.234  -4.159 -34.181  1.00  0.00     0.001 A 
HETATM   29  C   UNL     1      -4.465  -2.790 -34.037  1.00  0.00     0.008 A 
ENDBRANCH  23  24
ENDBRANCH  22  23
ENDBRANCH   1  22
TORSDOF 5
ENDMDL
MODEL 6
REMARK VINA RESULT:      -8.5      5.862     10.174
REMARK  5 active torsions:
REMARK  status: ('A' for Active; 'I' for Inactive)
REMARK    1  A    between atoms: C_4  and  C_5 
REMARK    2  A    between atoms: C_5  and  S_6 
REMARK    3  A    between atoms: S_6  and  C_7 
REMARK    4  A    between atoms: C_9  and  C_10 
REMARK       I    between atoms: C_10  and  N_11 
REMARK    5  A    between atoms: N_11  and  C_12 
ROOT
HETATM    1  C   UNL     1      -3.422   2.651 -31.903  1.00  0.00     0.189 A 
HETATM    2  N   UNL     1      -2.545   3.405 -31.224  1.00  0.00    -0.216 NA
HETATM    3  C   UNL     1      -2.254   4.629 -31.768  1.00  0.00     0.150 A 
HETATM    4  C   UNL     1      -2.845   5.119 -32.919  1.00  0.00     0.086 A 
HETATM    5 CL   UNL     1      -2.602   6.657 -33.637  1.00  0.00    -0.080 Cl
HETATM    6  C   UNL     1      -3.748   4.259 -33.501  1.00  0.00     0.146 A 
HETATM    7  N   UNL     1      -4.045   3.032 -33.025  1.00  0.00    -0.234 NA
ENDROOT
BRANCH   3   8
HETATM    8  C   UNL     1      -1.215   5.399 -30.996  1.00  0.00     0.278 C 
HETATM    9  N   UNL     1      -1.733   6.026 -29.881  1.00  0.00    -0.300 N 
HETATM   10  H   UNL     1      -2.717   5.914 -29.670  1.00  0.00     0.171 HD
HETATM   11  O   UNL     1      -0.050   5.425 -31.364  1.00  0.00    -0.265 OA
BRANCH   9  12
HETATM   12  C   UNL     1      -0.973   6.792 -29.046  1.00  0.00     0.174 A 
HETATM   13  S   UNL     1       0.263   5.937 -28.243  1.00  0.00    -0.050 SA
HETATM   14  C   UNL     1       0.726   7.389 -27.433  1.00  0.00     0.039 A 
HETATM   15  C   UNL     1      -0.102   8.428 -27.867  1.00  0.00     0.077 A 
HETATM   16  C   UNL     1       1.745   7.596 -26.488  1.00  0.00     0.045 A 
HETATM   17  N   UNL     1      -1.072   8.067 -28.781  1.00  0.00    -0.223 NA
HETATM   18  C   UNL     1       0.104   9.724 -27.351  1.00  0.00     0.035 A 
HETATM   19  C   UNL     1       1.118   9.946 -26.413  1.00  0.00     0.026 A 
HETATM   20  C   UNL     1       1.920   8.890 -25.990  1.00  0.00     0.035 A 
HETATM   21 CL   UNL     1       3.156   9.182 -24.826  1.00  0.00    -0.084 Cl
ENDBRANCH   9  12
ENDBRANCH   3   8
BRANCH   1  22
HETATM   22  S   UNL     1      -3.737   1.006 -31.345  1.00  0.00    -0.086 SA
BRANCH  22  23
HETATM   23  C   UNL     1      -3.352   0.107 -32.872  1.00  0.00     0.121 C 
BRANCH  23  24
HETATM   24  C   UNL     1      -4.554  -0.651 -33.377  1.00  0.00    -0.049 A 
HETATM   25  C   UNL     1      -4.411  -1.931 -33.935  1.00  0.00     0.008 A 
HETATM   26  C   UNL     1      -5.522  -2.617 -34.430  1.00  0.00     0.001 A 
HETATM   27  C   UNL     1      -6.786  -2.032 -34.375  1.00  0.00     0.000 A 
HETATM   28  C   UNL     1      -6.940  -0.761 -33.827  1.00  0.00     0.001 A 
HETATM   29  C   UNL     1      -5.832  -0.070 -33.334  1.00  0.00     0.008 A 
ENDBRANCH  23  24
ENDBRANCH  22  23
ENDBRANCH   1  22
TORSDOF 5
ENDMDL
MODEL 7
REMARK VINA RESULT:      -8.4      1.636      1.836
REMARK  5 active torsions:
REMARK  status: ('A' for Active; 'I' for Inactive)
REMARK    1  A    between atoms: C_4  and  C_5 
REMARK    2  A    between atoms: C_5  and  S_6 
REMARK    3  A    between atoms: S_6  and  C_7 
REMARK    4  A    between atoms: C_9  and  C_10 
REMARK       I    between atoms: C_10  and  N_11 
REMARK    5  A    between atoms: N_11  and  C_12 
ROOT
HETATM    1  C   UNL     1      -3.834   1.933 -32.133  1.00  0.00     0.189 A 
HETATM    2  N   UNL     1      -5.099   2.074 -32.556  1.00  0.00    -0.216 NA
HETATM    3  C   UNL     1      -5.529   3.360 -32.755  1.00  0.00     0.150 A 
HETATM    4  C   UNL     1      -4.725   4.473 -32.594  1.00  0.00     0.086 A 
HETATM    5 CL   UNL     1      -5.146   6.109 -32.885  1.00  0.00    -0.080 Cl
HETATM    6  C   UNL     1      -3.442   4.190 -32.187  1.00  0.00     0.146 A 
HETATM    7  N   UNL     1      -2.979   2.945 -31.945  1.00  0.00    -0.234 NA
ENDROOT
BRANCH   3   8
HETATM    8  C   UNL     1      -6.976   3.454 -33.164  1.00  0.00     0.278 C 
HETATM    9  N   UNL     1      -7.774   2.527 -32.525  1.00  0.00    -0.300 N 
HETATM   10  H   UNL     1      -7.351   1.896 -31.856  1.00  0.00     0.171 HD
HETATM   11  O   UNL     1      -7.346   4.289 -33.975  1.00  0.00    -0.265 OA
BRANCH   9  12
HETATM   12  C   UNL     1      -9.115   2.423 -32.758  1.00  0.00     0.174 A 
HETATM   13  S   UNL     1      -9.595   0.927 -33.419  1.00  0.00    -0.050 SA
HETATM   14  C   UNL     1     -11.228   1.486 -33.465  1.00  0.00     0.039 A 
HETATM   15  C   UNL     1     -11.274   2.781 -32.943  1.00  0.00     0.077 A 
HETATM   16  C   UNL     1     -12.382   0.828 -33.925  1.00  0.00     0.045 A 
HETATM   17  N   UNL     1     -10.057   3.303 -32.552  1.00  0.00    -0.223 NA
HETATM   18  C   UNL     1     -12.518   3.439 -32.861  1.00  0.00     0.035 A 
HETATM   19  C   UNL     1     -13.676   2.795 -33.310  1.00  0.00     0.026 A 
HETATM   20  C   UNL     1     -13.600   1.510 -33.837  1.00  0.00     0.035 A 
HETATM   21 CL   UNL     1     -15.035   0.739 -34.395  1.00  0.00    -0.084 Cl
ENDBRANCH   9  12
ENDBRANCH   3   8
BRANCH   1  22
HETATM   22  S   UNL     1      -3.254   0.319 -31.715  1.00  0.00    -0.086 SA
BRANCH  22  23
HETATM   23  C   UNL     1      -4.850  -0.524 -31.546  1.00  0.00     0.121 C 
BRANCH  23  24
HETATM   24  C   UNL     1      -5.169  -1.340 -32.774  1.00  0.00    -0.049 A 
HETATM   25  C   UNL     1      -4.198  -2.174 -33.350  1.00  0.00     0.008 A 
HETATM   26  C   UNL     1      -4.486  -2.905 -34.505  1.00  0.00     0.001 A 
HETATM   27  C   UNL     1      -5.745  -2.809 -35.097  1.00  0.00     0.000 A 
HETATM   28  C   UNL     1      -6.715  -1.981 -34.537  1.00  0.00     0.001 A 
HETATM   29  C   UNL     1      -6.429  -1.247 -33.384  1.00  0.00     0.008 A 
ENDBRANCH  23  24
ENDBRANCH  22  23
ENDBRANCH   1  22
TORSDOF 5
ENDMDL
MODEL 8
REMARK VINA RESULT:      -8.4      4.118      7.261
REMARK  5 active torsions:
REMARK  status: ('A' for Active; 'I' for Inactive)
REMARK    1  A    between atoms: C_4  and  C_5 
REMARK    2  A    between atoms: C_5  and  S_6 
REMARK    3  A    between atoms: S_6  and  C_7 
REMARK    4  A    between atoms: C_9  and  C_10 
REMARK       I    between atoms: C_10  and  N_11 
REMARK    5  A    between atoms: N_11  and  C_12 
ROOT
HETATM    1  C   UNL     1      -4.929   5.829 -30.194  1.00  0.00     0.189 A 
HETATM    2  N   UNL     1      -4.898   4.543 -30.574  1.00  0.00    -0.216 NA
HETATM    3  C   UNL     1      -6.086   3.864 -30.497  1.00  0.00     0.150 A 
HETATM    4  C   UNL     1      -7.280   4.443 -30.107  1.00  0.00     0.086 A 
HETATM    5 CL   UNL     1      -8.823   3.699 -30.047  1.00  0.00    -0.080 Cl
HETATM    6  C   UNL     1      -7.180   5.773 -29.772  1.00  0.00     0.146 A 
HETATM    7  N   UNL     1      -6.030   6.479 -29.798  1.00  0.00    -0.234 NA
ENDROOT
BRANCH   3   8
HETATM    8  C   UNL     1      -5.972   2.409 -30.873  1.00  0.00     0.278 C 
HETATM    9  N   UNL     1      -5.841   2.218 -32.234  1.00  0.00    -0.300 N 
HETATM   10  H   UNL     1      -5.817   3.027 -32.841  1.00  0.00     0.171 HD
HETATM   11  O   UNL     1      -5.994   1.536 -30.019  1.00  0.00    -0.265 OA
BRANCH   9  12
HETATM   12  C   UNL     1      -5.739   0.979 -32.798  1.00  0.00     0.174 A 
HETATM   13  S   UNL     1      -7.206   0.371 -33.418  1.00  0.00    -0.050 SA
HETATM   14  C   UNL     1      -6.394  -1.079 -33.885  1.00  0.00     0.039 A 
HETATM   15  C   UNL     1      -5.044  -0.967 -33.542  1.00  0.00     0.077 A 
HETATM   16  C   UNL     1      -6.910  -2.227 -34.510  1.00  0.00     0.045 A 
HETATM   17  N   UNL     1      -4.690   0.211 -32.914  1.00  0.00    -0.223 NA
HETATM   18  C   UNL     1      -4.173  -2.033 -33.848  1.00  0.00     0.035 A 
HETATM   19  C   UNL     1      -4.671  -3.180 -34.474  1.00  0.00     0.026 A 
HETATM   20  C   UNL     1      -6.023  -3.270 -34.793  1.00  0.00     0.035 A 
HETATM   21 CL   UNL     1      -6.619  -4.695 -35.554  1.00  0.00    -0.084 Cl
ENDBRANCH   9  12
ENDBRANCH   3   8
BRANCH   1  22
HETATM   22  S   UNL     1      -3.412   6.730 -30.125  1.00  0.00    -0.086 SA
BRANCH  22  23
HETATM   23  C   UNL     1      -3.516   7.585 -31.721  1.00  0.00     0.121 C 
BRANCH  23  24
HETATM   24  C   UNL     1      -2.898   6.761 -32.823  1.00  0.00    -0.049 A 
HETATM   25  C   UNL     1      -1.520   6.827 -33.079  1.00  0.00     0.008 A 
HETATM   26  C   UNL     1      -0.956   6.086 -34.121  1.00  0.00     0.001 A 
HETATM   27  C   UNL     1      -1.763   5.274 -34.917  1.00  0.00     0.000 A 
HETATM   28  C   UNL     1      -3.133   5.204 -34.675  1.00  0.00     0.001 A 
HETATM   29  C   UNL     1      -3.700   5.945 -33.637  1.00  0.00     0.008 A 
ENDBRANCH  23  24
ENDBRANCH  22  23
ENDBRANCH   1  22
TORSDOF 5
ENDMDL
MODEL 9
REMARK VINA RESULT:      -8.3      1.879      2.258
REMARK  5 active torsions:
REMARK  status: ('A' for Active; 'I' for Inactive)
REMARK    1  A    between atoms: C_4  and  C_5 
REMARK    2  A    between atoms: C_5  and  S_6 
REMARK    3  A    between atoms: S_6  and  C_7 
REMARK    4  A    between atoms: C_9  and  C_10 
REMARK       I    between atoms: C_10  and  N_11 
REMARK    5  A    between atoms: N_11  and  C_12 
ROOT
HETATM    1  C   UNL     1      -4.021   0.589 -31.793  1.00  0.00     0.189 A 
HETATM    2  N   UNL     1      -5.267   1.000 -32.071  1.00  0.00    -0.216 NA
HETATM    3  C   UNL     1      -5.534   2.322 -31.829  1.00  0.00     0.150 A 
HETATM    4  C   UNL     1      -4.591   3.227 -31.375  1.00  0.00     0.086 A 
HETATM    5 CL   UNL     1      -4.808   4.907 -31.110  1.00  0.00    -0.080 Cl
HETATM    6  C   UNL     1      -3.346   2.684 -31.157  1.00  0.00     0.146 A 
HETATM    7  N   UNL     1      -3.040   1.384 -31.348  1.00  0.00    -0.234 NA
ENDROOT
BRANCH   3   8
HETATM    8  C   UNL     1      -6.966   2.706 -32.097  1.00  0.00     0.278 C 
HETATM    9  N   UNL     1      -7.215   2.940 -33.434  1.00  0.00    -0.300 N 
HETATM   10  H   UNL     1      -6.460   2.828 -34.099  1.00  0.00     0.171 HD
HETATM   11  O   UNL     1      -7.778   2.781 -31.188  1.00  0.00    -0.265 OA
BRANCH   9  12
HETATM   12  C   UNL     1      -8.441   3.318 -33.901  1.00  0.00     0.174 A 
HETATM   13  S   UNL     1      -8.664   5.004 -33.996  1.00  0.00    -0.050 SA
HETATM   14  C   UNL     1     -10.272   4.748 -34.571  1.00  0.00     0.039 A 
HETATM   15  C   UNL     1     -10.500   3.372 -34.664  1.00  0.00     0.077 A 
HETATM   16  C   UNL     1     -11.255   5.690 -34.915  1.00  0.00     0.045 A 
HETATM   17  N   UNL     1      -9.447   2.571 -34.270  1.00  0.00    -0.223 NA
HETATM   18  C   UNL     1     -11.750   2.920 -35.134  1.00  0.00     0.035 A 
HETATM   19  C   UNL     1     -12.737   3.846 -35.485  1.00  0.00     0.026 A 
HETATM   20  C   UNL     1     -12.487   5.210 -35.370  1.00  0.00     0.035 A 
HETATM   21 CL   UNL     1     -13.720   6.334 -35.798  1.00  0.00    -0.084 Cl
ENDBRANCH   9  12
ENDBRANCH   3   8
BRANCH   1  22
HETATM   22  S   UNL     1      -3.642  -1.129 -31.940  1.00  0.00    -0.086 SA
BRANCH  22  23
HETATM   23  C   UNL     1      -3.805  -1.304 -33.737  1.00  0.00     0.121 C 
BRANCH  23  24
HETATM   24  C   UNL     1      -4.687  -2.474 -34.093  1.00  0.00    -0.049 A 
HETATM   25  C   UNL     1      -4.173  -3.780 -34.107  1.00  0.00     0.008 A 
HETATM   26  C   UNL     1      -4.985  -4.858 -34.467  1.00  0.00     0.001 A 
HETATM   27  C   UNL     1      -6.317  -4.643 -34.820  1.00  0.00     0.000 A 
HETATM   28  C   UNL     1      -6.837  -3.351 -34.814  1.00  0.00     0.001 A 
HETATM   29  C   UNL     1      -6.028  -2.271 -34.458  1.00  0.00     0.008 A 
ENDBRANCH  23  24
ENDBRANCH  22  23
ENDBRANCH   1  22
TORSDOF 5
ENDMDL
MODEL 10
REMARK VINA RESULT:      -8.3      6.336     10.340
REMARK  5 active torsions:
REMARK  status: ('A' for Active; 'I' for Inactive)
REMARK    1  A    between atoms: C_4  and  C_5 
REMARK    2  A    between atoms: C_5  and  S_6 
REMARK    3  A    between atoms: S_6  and  C_7 
REMARK    4  A    between atoms: C_9  and  C_10 
REMARK       I    between atoms: C_10  and  N_11 
REMARK    5  A    between atoms: N_11  and  C_12 
ROOT
HETATM    1  C   UNL     1      -0.834   6.650 -29.309  1.00  0.00     0.189 A 
HETATM    2  N   UNL     1      -1.079   5.600 -30.107  1.00  0.00    -0.216 NA
HETATM    3  C   UNL     1      -2.190   5.695 -30.903  1.00  0.00     0.150 A 
HETATM    4  C   UNL     1      -3.008   6.810 -30.954  1.00  0.00     0.086 A 
HETATM    5 CL   UNL     1      -4.372   7.052 -31.963  1.00  0.00    -0.080 Cl
HETATM    6  C   UNL     1      -2.629   7.827 -30.109  1.00  0.00     0.146 A 
HETATM    7  N   UNL     1      -1.565   7.771 -29.281  1.00  0.00    -0.234 NA
ENDROOT
BRANCH   3   8
HETATM    8  C   UNL     1      -2.449   4.459 -31.725  1.00  0.00     0.278 C 
HETATM    9  N   UNL     1      -3.285   3.562 -31.093  1.00  0.00    -0.300 N 
HETATM   10  H   UNL     1      -3.653   3.797 -30.179  1.00  0.00     0.171 HD
HETATM   11  O   UNL     1      -1.948   4.324 -32.832  1.00  0.00    -0.265 OA
BRANCH   9  12
HETATM   12  C   UNL     1      -3.640   2.367 -31.649  1.00  0.00     0.174 A 
HETATM   13  S   UNL     1      -5.074   2.423 -32.568  1.00  0.00    -0.050 SA
HETATM   14  C   UNL     1      -4.921   0.733 -32.888  1.00  0.00     0.039 A 
HETATM   15  C   UNL     1      -3.756   0.265 -32.273  1.00  0.00     0.077 A 
HETATM   16  C   UNL     1      -5.763  -0.113 -33.628  1.00  0.00     0.045 A 
HETATM   17  N   UNL     1      -3.043   1.210 -31.563  1.00  0.00    -0.223 NA
HETATM   18  C   UNL     1      -3.411  -1.095 -32.415  1.00  0.00     0.035 A 
HETATM   19  C   UNL     1      -4.238  -1.949 -33.154  1.00  0.00     0.026 A 
HETATM   20  C   UNL     1      -5.398  -1.458 -33.745  1.00  0.00     0.035 A 
HETATM   21 CL   UNL     1      -6.408  -2.528 -34.640  1.00  0.00    -0.084 Cl
ENDBRANCH   9  12
ENDBRANCH   3   8
BRANCH   1  22
HETATM   22  S   UNL     1       0.493   6.543 -28.150  1.00  0.00    -0.086 SA
BRANCH  22  23
HETATM   23  C   UNL     1       1.188   8.205 -28.357  1.00  0.00     0.121 C 
BRANCH  23  24
HETATM   24  C   UNL     1       1.461   8.853 -27.022  1.00  0.00    -0.049 A 
HETATM   25  C   UNL     1       2.118   8.144 -26.004  1.00  0.00     0.008 A 
HETATM   26  C   UNL     1       2.341   8.736 -24.759  1.00  0.00     0.001 A 
HETATM   27  C   UNL     1       1.909  10.040 -24.517  1.00  0.00     0.000 A 
HETATM   28  C   UNL     1       1.252  10.751 -25.518  1.00  0.00     0.001 A 
HETATM   29  C   UNL     1       1.024  10.161 -26.763  1.00  0.00     0.008 A 
ENDBRANCH  23  24
ENDBRANCH  22  23
ENDBRANCH   1  22
TORSDOF 5
ENDMDL
