MODEL 1
REMARK VINA RESULT:      -8.0      0.000      0.000
REMARK  8 active torsions:
REMARK  status: ('A' for Active; 'I' for Inactive)
REMARK    1  A    between atoms: C_1  and  C_15 
REMARK    2  A    between atoms: C_2  and  C_11 
REMARK    3  A    between atoms: C_2  and  N_12 
REMARK    4  A    between atoms: C_5  and  C_6 
REMARK    5  A    between atoms: C_6  and  O_7 
REMARK       I    between atoms: N_10  and  C_11 
REMARK    6  A    between atoms: C_16  and  O_17 
REMARK    7  A    between atoms: C_20  and  O_22 
REMARK    8  A    between atoms: C_25  and  O_26 
ROOT
HETATM    1  C           1      -7.172   3.114 -31.865  0.00  0.00     0.231 C 
HETATM    2  N           1      -7.748   3.275 -33.262  0.00  0.00    -0.054 N 
HETATM    3  C           1      -8.054   3.845 -30.823  0.00  0.00     0.055 C 
HETATM    4  C           1      -8.603   5.231 -31.191  0.00  0.00     0.065 C 
HETATM    5  C           1      -9.085   5.243 -32.647  0.00  0.00     0.066 C 
HETATM    6  C           1      -8.090   4.692 -33.670  0.00  0.00     0.239 C 
HETATM    7  C           1      -7.484   3.770 -29.387  0.00  0.00     0.010 C 
HETATM    8  C           1      -7.283   5.129 -28.699  0.00  0.00     0.001 C 
HETATM    9  C           1      -6.713   6.147 -29.689  0.00  0.00     0.003 C 
HETATM   10  C           1      -7.668   6.401 -30.866  0.00  0.00     0.038 C 
HETATM   11  H           1      -8.664   2.766 -33.236  0.00  0.00     0.281 HD
ENDROOT
BRANCH   2  12
HETATM   12  C           1      -6.911   2.570 -34.311  0.00  0.00     0.338 C 
BRANCH  12  13
HETATM   13  C           1      -7.206   1.078 -34.333  0.00  0.00     0.248 C 
HETATM   14  N           1      -6.089   0.302 -34.235  0.00  0.00    -0.319 N 
HETATM   15  C           1      -5.891  -1.031 -34.238  0.00  0.00     0.094 A 
HETATM   16  H           1      -5.224   0.792 -34.083  0.00  0.00     0.169 HD
HETATM   17  C           1      -4.779  -1.659 -33.799  0.00  0.00     0.080 A 
HETATM   18  S           1      -6.779  -1.946 -34.950  0.00  0.00    -0.076 SA
HETATM   19  C           1      -4.880  -2.971 -34.080  0.00  0.00    -0.030 A 
HETATM   20  C           1      -3.891  -4.058 -33.748  0.00  0.00     0.050 C 
HETATM   21  C           1      -6.034  -3.190 -34.734  0.00  0.00    -0.012 A 
HETATM   22  C           1      -6.523  -4.527 -35.229  0.00  0.00     0.057 C 
HETATM   23  O           1      -8.335   0.664 -34.406  0.00  0.00    -0.271 OA
BRANCH  17  24
HETATM   24  C           1      -3.720  -1.075 -33.155  0.00  0.00     0.296 C 
HETATM   25  O           1      -3.118  -0.183 -33.719  0.00  0.00    -0.259 OA
BRANCH  24  26
HETATM   26  O           1      -3.328  -1.464 -31.902  0.00  0.00    -0.322 OA
HETATM   27  C           1      -2.058  -1.075 -31.436  0.00  0.00     0.213 C 
ENDBRANCH  24  26
ENDBRANCH  17  24
ENDBRANCH  12  13
ENDBRANCH   2  12
BRANCH   1  28
HETATM   28  C           1      -5.644   3.257 -31.799  0.00  0.00     0.009 A 
HETATM   29  C           1      -4.868   2.199 -31.454  0.00  0.00     0.076 A 
HETATM   30  C           1      -3.541   2.412 -31.369  0.00  0.00     0.040 A 
HETATM   31  C           1      -2.983   3.593 -31.664  0.00  0.00     0.039 A 
HETATM   32  C           1      -3.720   4.646 -32.054  0.00  0.00     0.069 A 
HETATM   33  C           1      -5.048   4.429 -32.085  0.00  0.00     0.048 A 
BRANCH  29  34
HETATM   34  O           1      -5.453   0.997 -31.134  0.00  0.00    -0.355 OA
HETATM   35  C           1      -5.545   0.609 -29.783  0.00  0.00     0.210 C 
ENDBRANCH  29  34
BRANCH  32  36
HETATM   36  O           1      -3.090   5.837 -32.325  0.00  0.00    -0.356 OA
HETATM   37  C           1      -2.656   6.093 -33.641  0.00  0.00     0.210 C 
ENDBRANCH  32  36
ENDBRANCH   1  28
BRANCH   4  38
HETATM   38  O           1      -9.782   5.423 -30.434  0.00  0.00    -0.389 OA
HETATM   39  H           1     -10.208   4.596 -30.215  0.00  0.00     0.210 HD
ENDBRANCH   4  38
TORSDOF 8
ENDMDL
MODEL 2
REMARK VINA RESULT:      -7.7      3.444      6.111
REMARK  8 active torsions:
REMARK  status: ('A' for Active; 'I' for Inactive)
REMARK    1  A    between atoms: C_1  and  C_15 
REMARK    2  A    between atoms: C_2  and  C_11 
REMARK    3  A    between atoms: C_2  and  N_12 
REMARK    4  A    between atoms: C_5  and  C_6 
REMARK    5  A    between atoms: C_6  and  O_7 
REMARK       I    between atoms: N_10  and  C_11 
REMARK    6  A    between atoms: C_16  and  O_17 
REMARK    7  A    between atoms: C_20  and  O_22 
REMARK    8  A    between atoms: C_25  and  O_26 
ROOT
HETATM    1  C           1     -11.061   3.332 -33.865  0.00  0.00     0.231 C 
HETATM    2  N           1      -9.754   3.204 -33.102  0.00  0.00    -0.054 N 
HETATM    3  C           1     -10.954   4.431 -34.951  0.00  0.00     0.055 C 
HETATM    4  C           1     -10.234   5.737 -34.585  0.00  0.00     0.065 C 
HETATM    5  C           1      -8.972   5.437 -33.766  0.00  0.00     0.066 C 
HETATM    6  C           1      -9.174   4.499 -32.575  0.00  0.00     0.239 C 
HETATM    7  C           1     -12.276   4.652 -35.723  0.00  0.00     0.010 C 
HETATM    8  C           1     -12.791   6.100 -35.721  0.00  0.00     0.001 C 
HETATM    9  C           1     -12.604   6.729 -34.339  0.00  0.00     0.003 C 
HETATM   10  C           1     -11.123   6.803 -33.935  0.00  0.00     0.038 C 
HETATM   11  H           1      -9.062   2.859 -33.808  0.00  0.00     0.281 HD
ENDROOT
BRANCH   2  12
HETATM   12  C           1      -9.820   2.135 -32.029  0.00  0.00     0.338 C 
BRANCH  12  13
HETATM   13  C           1      -9.260   0.816 -32.538  0.00  0.00     0.248 C 
HETATM   14  N           1      -7.905   0.719 -32.422  0.00  0.00    -0.319 N 
HETATM   15  C           1      -7.017  -0.237 -32.759  0.00  0.00     0.094 A 
HETATM   16  H           1      -7.448   1.481 -31.950  0.00  0.00     0.169 HD
HETATM   17  C           1      -5.758  -0.341 -32.283  0.00  0.00     0.080 A 
HETATM   18  S           1      -7.245  -1.146 -33.880  0.00  0.00    -0.076 SA
HETATM   19  C           1      -5.124  -1.329 -32.941  0.00  0.00    -0.030 A 
HETATM   20  C           1      -3.716  -1.819 -32.722  0.00  0.00     0.050 C 
HETATM   21  C           1      -5.953  -1.839 -33.867  0.00  0.00    -0.012 A 
HETATM   22  C           1      -5.624  -2.963 -34.817  0.00  0.00     0.057 C 
HETATM   23  O           1      -9.982  -0.045 -32.973  0.00  0.00    -0.271 OA
BRANCH  17  24
HETATM   24  C           1      -5.205   0.415 -31.283  0.00  0.00     0.296 C 
HETATM   25  O           1      -5.673   0.330 -30.165  0.00  0.00    -0.259 OA
BRANCH  24  26
HETATM   26  O           1      -4.145   1.252 -31.506  0.00  0.00    -0.322 OA
HETATM   27  C           1      -4.325   2.367 -32.345  0.00  0.00     0.213 C 
ENDBRANCH  24  26
ENDBRANCH  17  24
ENDBRANCH  12  13
ENDBRANCH   2  12
BRANCH   1  28
HETATM   28  C           1     -12.313   3.264 -32.977  0.00  0.00     0.009 A 
HETATM   29  C           1     -13.207   2.254 -33.126  0.00  0.00     0.076 A 
HETATM   30  C           1     -14.305   2.287 -32.347  0.00  0.00     0.040 A 
HETATM   31  C           1     -14.500   3.232 -31.419  0.00  0.00     0.039 A 
HETATM   32  C           1     -13.610   4.218 -31.216  0.00  0.00     0.069 A 
HETATM   33  C           1     -12.544   4.199 -32.038  0.00  0.00     0.048 A 
BRANCH  29  34
HETATM   34  O           1     -13.007   1.300 -34.095  0.00  0.00    -0.355 OA
HETATM   35  C           1     -13.409  -0.028 -33.852  0.00  0.00     0.210 C 
ENDBRANCH  29  34
BRANCH  32  36
HETATM   36  O           1     -13.876   5.170 -30.261  0.00  0.00    -0.356 OA
HETATM   37  C           1     -13.222   6.415 -30.342  0.00  0.00     0.210 C 
ENDBRANCH  32  36
ENDBRANCH   1  28
BRANCH   4  38
HETATM   38  O           1      -9.741   6.290 -35.790  0.00  0.00    -0.389 OA
HETATM   39  H           1     -10.432   6.704 -36.305  0.00  0.00     0.210 HD
ENDBRANCH   4  38
TORSDOF 8
ENDMDL
MODEL 3
REMARK VINA RESULT:      -7.2      3.681      7.916
REMARK  8 active torsions:
REMARK  status: ('A' for Active; 'I' for Inactive)
REMARK    1  A    between atoms: C_1  and  C_15 
REMARK    2  A    between atoms: C_2  and  C_11 
REMARK    3  A    between atoms: C_2  and  N_12 
REMARK    4  A    between atoms: C_5  and  C_6 
REMARK    5  A    between atoms: C_6  and  O_7 
REMARK       I    between atoms: N_10  and  C_11 
REMARK    6  A    between atoms: C_16  and  O_17 
REMARK    7  A    between atoms: C_20  and  O_22 
REMARK    8  A    between atoms: C_25  and  O_26 
ROOT
HETATM    1  C           1      -5.715   3.359 -30.663  0.00  0.00     0.231 C 
HETATM    2  N           1      -4.801   4.291 -31.440  0.00  0.00    -0.054 N 
HETATM    3  C           1      -5.046   1.975 -30.468  0.00  0.00     0.055 C 
HETATM    4  C           1      -4.287   1.369 -31.658  0.00  0.00     0.065 C 
HETATM    5  C           1      -3.465   2.450 -32.371  0.00  0.00     0.066 C 
HETATM    6  C           1      -4.229   3.727 -32.724  0.00  0.00     0.239 C 
HETATM    7  C           1      -5.954   0.960 -29.736  0.00  0.00     0.010 C 
HETATM    8  C           1      -6.180  -0.363 -30.484  0.00  0.00     0.001 C 
HETATM    9  C           1      -6.386  -0.101 -31.978  0.00  0.00     0.003 C 
HETATM   10  C           1      -5.151   0.549 -32.623  0.00  0.00     0.038 C 
HETATM   11  H           1      -3.975   4.443 -30.814  0.00  0.00     0.281 HD
ENDROOT
BRANCH   2  12
HETATM   12  C           1      -5.422   5.658 -31.650  0.00  0.00     0.338 C 
BRANCH  12  13
HETATM   13  C           1      -4.765   6.698 -30.756  0.00  0.00     0.248 C 
HETATM   14  N           1      -3.461   6.423 -30.468  0.00  0.00    -0.319 N 
HETATM   15  C           1      -2.532   7.044 -29.715  0.00  0.00     0.094 A 
HETATM   16  H           1      -3.066   5.623 -30.935  0.00  0.00     0.169 HD
HETATM   17  C           1      -1.199   6.845 -29.792  0.00  0.00     0.080 A 
HETATM   18  S           1      -2.890   7.844 -28.546  0.00  0.00    -0.076 SA
HETATM   19  C           1      -0.599   7.532 -28.802  0.00  0.00    -0.030 A 
HETATM   20  C           1       0.878   7.628 -28.520  0.00  0.00     0.050 C 
HETATM   21  C           1      -1.539   8.143 -28.062  0.00  0.00    -0.012 A 
HETATM   22  C           1      -1.281   9.010 -26.856  0.00  0.00     0.057 C 
HETATM   23  O           1      -5.368   7.670 -30.378  0.00  0.00    -0.271 OA
BRANCH  17  24
HETATM   24  C           1      -0.546   6.087 -30.727  0.00  0.00     0.296 C 
HETATM   25  O           1      -0.478   4.885 -30.555  0.00  0.00    -0.259 OA
BRANCH  24  26
HETATM   26  O           1       0.024   6.639 -31.842  0.00  0.00    -0.322 OA
HETATM   27  C           1      -0.796   6.941 -32.946  0.00  0.00     0.213 C 
ENDBRANCH  24  26
ENDBRANCH  17  24
ENDBRANCH  12  13
ENDBRANCH   2  12
BRANCH   1  28
HETATM   28  C           1      -7.190   3.435 -31.083  0.00  0.00     0.009 A 
HETATM   29  C           1      -8.121   3.942 -30.237  0.00  0.00     0.076 A 
HETATM   30  C           1      -9.401   3.932 -30.654  0.00  0.00     0.040 A 
HETATM   31  C           1      -9.757   3.498 -31.870  0.00  0.00     0.039 A 
HETATM   32  C           1      -8.852   3.034 -32.748  0.00  0.00     0.069 A 
HETATM   33  C           1      -7.585   3.004 -32.295  0.00  0.00     0.048 A 
BRANCH  29  34
HETATM   34  O           1      -7.748   4.367 -28.984  0.00  0.00    -0.355 OA
HETATM   35  C           1      -7.862   5.730 -28.652  0.00  0.00     0.210 C 
ENDBRANCH  29  34
BRANCH  32  36
HETATM   36  O           1      -9.282   2.585 -33.974  0.00  0.00    -0.356 OA
HETATM   37  C           1      -9.272   1.201 -34.233  0.00  0.00     0.210 C 
ENDBRANCH  32  36
ENDBRANCH   1  28
BRANCH   4  38
HETATM   38  O           1      -3.316   0.490 -31.126  0.00  0.00    -0.389 OA
HETATM   39  H           1      -3.400  -0.395 -31.478  0.00  0.00     0.210 HD
ENDBRANCH   4  38
TORSDOF 8
ENDMDL
MODEL 4
REMARK VINA RESULT:      -7.1      4.490      8.450
REMARK  8 active torsions:
REMARK  status: ('A' for Active; 'I' for Inactive)
REMARK    1  A    between atoms: C_1  and  C_15 
REMARK    2  A    between atoms: C_2  and  C_11 
REMARK    3  A    between atoms: C_2  and  N_12 
REMARK    4  A    between atoms: C_5  and  C_6 
REMARK    5  A    between atoms: C_6  and  O_7 
REMARK       I    between atoms: N_10  and  C_11 
REMARK    6  A    between atoms: C_16  and  O_17 
REMARK    7  A    between atoms: C_20  and  O_22 
REMARK    8  A    between atoms: C_25  and  O_26 
ROOT
HETATM    1  C           1      -4.860   5.329 -30.992  0.00  0.00     0.231 C 
HETATM    2  N           1      -3.802   6.052 -31.809  0.00  0.00    -0.054 N 
HETATM    3  C           1      -4.416   3.876 -30.689  0.00  0.00     0.055 C 
HETATM    4  C           1      -3.745   3.078 -31.816  0.00  0.00     0.065 C 
HETATM    5  C           1      -2.755   3.966 -32.581  0.00  0.00     0.066 C 
HETATM    6  C           1      -3.308   5.318 -33.037  0.00  0.00     0.239 C 
HETATM    7  C           1      -5.481   3.067 -29.911  0.00  0.00     0.010 C 
HETATM    8  C           1      -5.899   1.745 -30.573  0.00  0.00     0.001 C 
HETATM    9  C           1      -6.042   1.930 -32.086  0.00  0.00     0.003 C 
HETATM   10  C           1      -4.713   2.335 -32.743  0.00  0.00     0.038 C 
HETATM   11  H           1      -2.971   6.120 -31.175  0.00  0.00     0.281 HD
ENDROOT
BRANCH   2  12
HETATM   12  C           1      -4.200   7.480 -32.125  0.00  0.00     0.338 C 
BRANCH  12  13
HETATM   13  C           1      -3.482   8.462 -31.212  0.00  0.00     0.248 C 
HETATM   14  N           1      -2.456   7.902 -30.511  0.00  0.00    -0.319 N 
HETATM   15  C           1      -1.593   8.385 -29.596  0.00  0.00     0.094 A 
HETATM   16  H           1      -2.244   6.943 -30.731  0.00  0.00     0.169 HD
HETATM   17  C           1      -0.425   7.810 -29.239  0.00  0.00     0.080 A 
HETATM   18  S           1      -1.947   9.484 -28.701  0.00  0.00    -0.076 SA
HETATM   19  C           1       0.101   8.497 -28.208  0.00  0.00    -0.030 A 
HETATM   20  C           1       1.408   8.235 -27.506  0.00  0.00     0.050 C 
HETATM   21  C           1      -0.738   9.490 -27.871  0.00  0.00    -0.012 A 
HETATM   22  C           1      -0.518  10.488 -26.763  0.00  0.00     0.057 C 
HETATM   23  O           1      -3.806   9.621 -31.161  0.00  0.00    -0.271 OA
BRANCH  17  24
HETATM   24  C           1       0.153   6.717 -29.828  0.00  0.00     0.296 C 
HETATM   25  O           1       0.629   6.840 -30.940  0.00  0.00    -0.259 OA
BRANCH  24  26
HETATM   26  O           1       0.214   5.501 -29.202  0.00  0.00    -0.322 OA
HETATM   27  C           1       1.141   4.546 -29.660  0.00  0.00     0.213 C 
ENDBRANCH  24  26
ENDBRANCH  17  24
ENDBRANCH  12  13
ENDBRANCH   2  12
BRANCH   1  28
HETATM   28  C           1      -6.300   5.601 -31.452  0.00  0.00     0.009 A 
HETATM   29  C           1      -7.202   6.148 -30.599  0.00  0.00     0.076 A 
HETATM   30  C           1      -8.458   6.313 -31.057  0.00  0.00     0.040 A 
HETATM   31  C           1      -8.810   6.011 -32.313  0.00  0.00     0.039 A 
HETATM   32  C           1      -7.928   5.511 -33.194  0.00  0.00     0.069 A 
HETATM   33  C           1      -6.691   5.306 -32.705  0.00  0.00     0.048 A 
BRANCH  29  34
HETATM   34  O           1      -6.835   6.437 -29.307  0.00  0.00    -0.355 OA
HETATM   35  C           1      -7.476   5.776 -28.241  0.00  0.00     0.210 C 
ENDBRANCH  29  34
BRANCH  32  36
HETATM   36  O           1      -8.355   5.204 -34.464  0.00  0.00    -0.356 OA
HETATM   37  C           1      -9.705   5.428 -34.800  0.00  0.00     0.210 C 
ENDBRANCH  32  36
ENDBRANCH   1  28
BRANCH   4  38
HETATM   38  O           1      -2.929   2.100 -31.202  0.00  0.00    -0.389 OA
HETATM   39  H           1      -3.347   1.714 -30.433  0.00  0.00     0.210 HD
ENDBRANCH   4  38
TORSDOF 8
ENDMDL
MODEL 5
REMARK VINA RESULT:      -7.0      2.207      4.790
REMARK  8 active torsions:
REMARK  status: ('A' for Active; 'I' for Inactive)
REMARK    1  A    between atoms: C_1  and  C_15 
REMARK    2  A    between atoms: C_2  and  C_11 
REMARK    3  A    between atoms: C_2  and  N_12 
REMARK    4  A    between atoms: C_5  and  C_6 
REMARK    5  A    between atoms: C_6  and  O_7 
REMARK       I    between atoms: N_10  and  C_11 
REMARK    6  A    between atoms: C_16  and  O_17 
REMARK    7  A    between atoms: C_20  and  O_22 
REMARK    8  A    between atoms: C_25  and  O_26 
ROOT
HETATM    1  C           1      -8.288   3.967 -33.333  0.00  0.00     0.231 C 
HETATM    2  N           1      -7.247   2.862 -33.405  0.00  0.00    -0.054 N 
HETATM    3  C           1      -8.330   4.587 -31.915  0.00  0.00     0.055 C 
HETATM    4  C           1      -8.244   3.637 -30.711  0.00  0.00     0.065 C 
HETATM    5  C           1      -7.195   2.547 -30.967  0.00  0.00     0.066 C 
HETATM    6  C           1      -7.321   1.821 -32.308  0.00  0.00     0.239 C 
HETATM    7  C           1      -9.416   5.677 -31.761  0.00  0.00     0.010 C 
HETATM    8  C           1     -10.406   5.447 -30.609  0.00  0.00     0.001 C 
HETATM    9  C           1     -10.798   3.970 -30.532  0.00  0.00     0.003 C 
HETATM   10  C           1      -9.587   3.068 -30.242  0.00  0.00     0.038 C 
HETATM   11  H           1      -6.329   3.347 -33.263  0.00  0.00     0.281 HD
ENDROOT
BRANCH   2  12
HETATM   12  C           1      -7.175   2.231 -34.781  0.00  0.00     0.338 C 
BRANCH  12  13
HETATM   13  C           1      -7.314   0.719 -34.695  0.00  0.00     0.248 C 
HETATM   14  N           1      -6.143   0.080 -34.417  0.00  0.00    -0.319 N 
HETATM   15  C           1      -5.812  -1.219 -34.278  0.00  0.00     0.094 A 
HETATM   16  H           1      -5.352   0.672 -34.225  0.00  0.00     0.169 HD
HETATM   17  C           1      -4.697  -1.684 -33.676  0.00  0.00     0.080 A 
HETATM   18  S           1      -6.521  -2.280 -34.989  0.00  0.00    -0.076 SA
HETATM   19  C           1      -4.635  -3.018 -33.845  0.00  0.00    -0.030 A 
HETATM   20  C           1      -3.583  -3.960 -33.318  0.00  0.00     0.050 C 
HETATM   21  C           1      -5.682  -3.413 -34.587  0.00  0.00    -0.012 A 
HETATM   22  C           1      -5.978  -4.832 -35.004  0.00  0.00     0.057 C 
HETATM   23  O           1      -8.381   0.178 -34.842  0.00  0.00    -0.271 OA
BRANCH  17  24
HETATM   24  C           1      -3.778  -0.939 -32.986  0.00  0.00     0.296 C 
HETATM   25  O           1      -2.988  -0.262 -33.615  0.00  0.00    -0.259 OA
BRANCH  24  26
HETATM   26  O           1      -3.728  -0.931 -31.618  0.00  0.00    -0.322 OA
HETATM   27  C           1      -3.307   0.240 -30.959  0.00  0.00     0.213 C 
ENDBRANCH  24  26
ENDBRANCH  17  24
ENDBRANCH  12  13
ENDBRANCH   2  12
BRANCH   1  28
HETATM   28  C           1      -9.603   3.634 -34.054  0.00  0.00     0.009 A 
HETATM   29  C           1     -10.087   4.460 -35.015  0.00  0.00     0.076 A 
HETATM   30  C           1     -11.270   4.130 -35.569  0.00  0.00     0.040 A 
HETATM   31  C           1     -11.929   3.011 -35.243  0.00  0.00     0.039 A 
HETATM   32  C           1     -11.451   2.150 -34.329  0.00  0.00     0.069 A 
HETATM   33  C           1     -10.294   2.521 -33.750  0.00  0.00     0.048 A 
BRANCH  29  34
HETATM   34  O           1      -9.413   5.616 -35.329  0.00  0.00    -0.355 OA
HETATM   35  C           1     -10.119   6.832 -35.398  0.00  0.00     0.210 C 
ENDBRANCH  29  34
BRANCH  32  36
HETATM   36  O           1     -12.183   1.028 -34.024  0.00  0.00    -0.356 OA
HETATM   37  C           1     -11.574   0.002 -33.275  0.00  0.00     0.210 C 
ENDBRANCH  32  36
ENDBRANCH   1  28
BRANCH   4  38
HETATM   38  O           1      -7.712   4.382 -29.633  0.00  0.00    -0.389 OA
HETATM   39  H           1      -6.962   4.912 -29.897  0.00  0.00     0.210 HD
ENDBRANCH   4  38
TORSDOF 8
ENDMDL
MODEL 6
REMARK VINA RESULT:      -7.0      3.564      7.543
REMARK  8 active torsions:
REMARK  status: ('A' for Active; 'I' for Inactive)
REMARK    1  A    between atoms: C_1  and  C_15 
REMARK    2  A    between atoms: C_2  and  C_11 
REMARK    3  A    between atoms: C_2  and  N_12 
REMARK    4  A    between atoms: C_5  and  C_6 
REMARK    5  A    between atoms: C_6  and  O_7 
REMARK       I    between atoms: N_10  and  C_11 
REMARK    6  A    between atoms: C_16  and  O_17 
REMARK    7  A    between atoms: C_20  and  O_22 
REMARK    8  A    between atoms: C_25  and  O_26 
ROOT
HETATM    1  C           1      -7.668   3.704 -32.097  0.00  0.00     0.231 C 
HETATM    2  N           1      -6.446   4.312 -32.764  0.00  0.00    -0.054 N 
HETATM    3  C           1      -7.556   2.160 -32.058  0.00  0.00     0.055 C 
HETATM    4  C           1      -7.020   1.445 -33.306  0.00  0.00     0.065 C 
HETATM    5  C           1      -5.831   2.217 -33.893  0.00  0.00     0.066 C 
HETATM    6  C           1      -6.063   3.714 -34.101  0.00  0.00     0.239 C 
HETATM    7  C           1      -8.802   1.477 -31.445  0.00  0.00     0.010 C 
HETATM    8  C           1      -9.461   0.414 -32.338  0.00  0.00     0.001 C 
HETATM    9  C           1      -9.493   0.886 -33.793  0.00  0.00     0.003 C 
HETATM   10  C           1      -8.081   1.102 -34.358  0.00  0.00     0.038 C 
HETATM   11  H           1      -5.648   4.086 -32.123  0.00  0.00     0.281 HD
ENDROOT
BRANCH   2  12
HETATM   12  C           1      -6.517   5.825 -32.820  0.00  0.00     0.338 C 
BRANCH  12  13
HETATM   13  C           1      -5.614   6.453 -31.770  0.00  0.00     0.248 C 
HETATM   14  N           1      -4.285   6.275 -32.018  0.00  0.00    -0.319 N 
HETATM   15  C           1      -3.168   6.634 -31.356  0.00  0.00     0.094 A 
HETATM   16  H           1      -4.056   5.828 -32.889  0.00  0.00     0.169 HD
HETATM   17  C           1      -1.926   6.686 -31.883  0.00  0.00     0.080 A 
HETATM   18  S           1      -3.141   6.779 -29.902  0.00  0.00    -0.076 SA
HETATM   19  C           1      -1.046   6.950 -30.900  0.00  0.00    -0.030 A 
HETATM   20  C           1       0.445   7.129 -31.029  0.00  0.00     0.050 C 
HETATM   21  C           1      -1.707   7.031 -29.733  0.00  0.00    -0.012 A 
HETATM   22  C           1      -1.084   7.311 -28.389  0.00  0.00     0.057 C 
HETATM   23  O           1      -6.069   7.062 -30.836  0.00  0.00    -0.271 OA
BRANCH  17  24
HETATM   24  C           1      -1.599   6.517 -33.203  0.00  0.00     0.296 C 
HETATM   25  O           1      -1.420   7.506 -33.888  0.00  0.00    -0.259 OA
BRANCH  24  26
HETATM   26  O           1      -1.464   5.277 -33.765  0.00  0.00    -0.322 OA
HETATM   27  C           1      -2.015   5.044 -35.039  0.00  0.00     0.213 C 
ENDBRANCH  24  26
ENDBRANCH  17  24
ENDBRANCH  12  13
ENDBRANCH   2  12
BRANCH   1  28
HETATM   28  C           1      -8.995   4.358 -32.509  0.00  0.00     0.009 A 
HETATM   29  C           1      -9.744   5.026 -31.597  0.00  0.00     0.076 A 
HETATM   30  C           1     -10.919   5.531 -32.019  0.00  0.00     0.040 A 
HETATM   31  C           1     -11.325   5.440 -33.292  0.00  0.00     0.039 A 
HETATM   32  C           1     -10.583   4.826 -34.228  0.00  0.00     0.069 A 
HETATM   33  C           1      -9.436   4.283 -33.778  0.00  0.00     0.048 A 
BRANCH  29  34
HETATM   34  O           1      -9.329   5.097 -30.289  0.00  0.00    -0.355 OA
HETATM   35  C           1      -9.217   6.353 -29.664  0.00  0.00     0.210 C 
ENDBRANCH  29  34
BRANCH  32  36
HETATM   36  O           1     -11.062   4.750 -35.514  0.00  0.00    -0.356 OA
HETATM   37  C           1     -12.196   3.955 -35.771  0.00  0.00     0.210 C 
ENDBRANCH  32  36
ENDBRANCH   1  28
BRANCH   4  38
HETATM   38  O           1      -6.459   0.221 -32.874  0.00  0.00    -0.389 OA
HETATM   39  H           1      -5.652   0.350 -32.376  0.00  0.00     0.210 HD
ENDBRANCH   4  38
TORSDOF 8
ENDMDL
MODEL 7
REMARK VINA RESULT:      -7.0      1.529      4.089
REMARK  8 active torsions:
REMARK  status: ('A' for Active; 'I' for Inactive)
REMARK    1  A    between atoms: C_1  and  C_15 
REMARK    2  A    between atoms: C_2  and  C_11 
REMARK    3  A    between atoms: C_2  and  N_12 
REMARK    4  A    between atoms: C_5  and  C_6 
REMARK    5  A    between atoms: C_6  and  O_7 
REMARK       I    between atoms: N_10  and  C_11 
REMARK    6  A    between atoms: C_16  and  O_17 
REMARK    7  A    between atoms: C_20  and  O_22 
REMARK    8  A    between atoms: C_25  and  O_26 
ROOT
HETATM    1  C           1      -5.690   3.514 -32.765  0.00  0.00     0.231 C 
HETATM    2  N           1      -5.546   2.216 -31.989  0.00  0.00    -0.054 N 
HETATM    3  C           1      -4.301   4.061 -33.177  0.00  0.00     0.055 C 
HETATM    4  C           1      -3.166   3.993 -32.145  0.00  0.00     0.065 C 
HETATM    5  C           1      -3.197   2.649 -31.407  0.00  0.00     0.066 C 
HETATM    6  C           1      -4.559   2.245 -30.841  0.00  0.00     0.239 C 
HETATM    7  C           1      -4.379   5.417 -33.918  0.00  0.00     0.010 C 
HETATM    8  C           1      -3.535   6.542 -33.298  0.00  0.00     0.001 C 
HETATM    9  C           1      -3.637   6.504 -31.772  0.00  0.00     0.003 C 
HETATM   10  C           1      -3.090   5.191 -31.191  0.00  0.00     0.038 C 
HETATM   11  H           1      -5.147   1.533 -32.677  0.00  0.00     0.281 HD
ENDROOT
BRANCH   2  12
HETATM   12  C           1      -6.886   1.647 -31.569  0.00  0.00     0.338 C 
BRANCH  12  13
HETATM   13  C           1      -7.174   0.339 -32.290  0.00  0.00     0.248 C 
HETATM   14  N           1      -6.050  -0.361 -32.617  0.00  0.00    -0.319 N 
HETATM   15  C           1      -5.845  -1.525 -33.264  0.00  0.00     0.094 A 
HETATM   16  H           1      -5.181   0.020 -32.282  0.00  0.00     0.169 HD
HETATM   17  C           1      -4.712  -2.257 -33.220  0.00  0.00     0.080 A 
HETATM   18  S           1      -6.760  -2.012 -34.293  0.00  0.00    -0.076 SA
HETATM   19  C           1      -4.819  -3.278 -34.090  0.00  0.00    -0.030 A 
HETATM   20  C           1      -3.810  -4.366 -34.354  0.00  0.00     0.050 C 
HETATM   21  C           1      -5.999  -3.188 -34.725  0.00  0.00    -0.012 A 
HETATM   22  C           1      -6.503  -4.140 -35.780  0.00  0.00     0.057 C 
HETATM   23  O           1      -8.303  -0.020 -32.511  0.00  0.00    -0.271 OA
BRANCH  17  24
HETATM   24  C           1      -3.627  -2.024 -32.415  0.00  0.00     0.296 C 
HETATM   25  O           1      -3.205  -2.936 -31.731  0.00  0.00    -0.259 OA
BRANCH  24  26
HETATM   26  O           1      -3.008  -0.805 -32.365  0.00  0.00    -0.322 OA
HETATM   27  C           1      -2.088  -0.551 -31.330  0.00  0.00     0.213 C 
ENDBRANCH  24  26
ENDBRANCH  17  24
ENDBRANCH  12  13
ENDBRANCH   2  12
BRANCH   1  28
HETATM   28  C           1      -6.743   4.472 -32.188  0.00  0.00     0.009 A 
HETATM   29  C           1      -7.911   4.685 -32.844  0.00  0.00     0.076 A 
HETATM   30  C           1      -8.765   5.576 -32.304  0.00  0.00     0.040 A 
HETATM   31  C           1      -8.518   6.195 -31.142  0.00  0.00     0.039 A 
HETATM   32  C           1      -7.391   5.970 -30.447  0.00  0.00     0.069 A 
HETATM   33  C           1      -6.527   5.115 -31.026  0.00  0.00     0.048 A 
BRANCH  29  34
HETATM   34  O           1      -8.146   4.060 -34.045  0.00  0.00    -0.355 OA
HETATM   35  C           1      -9.145   3.071 -34.128  0.00  0.00     0.210 C 
ENDBRANCH  29  34
BRANCH  32  36
HETATM   36  O           1      -7.187   6.649 -29.270  0.00  0.00    -0.356 OA
HETATM   37  C           1      -6.946   5.914 -28.093  0.00  0.00     0.210 C 
ENDBRANCH  32  36
ENDBRANCH   1  28
BRANCH   4  38
HETATM   38  O           1      -1.951   3.964 -32.868  0.00  0.00    -0.389 OA
HETATM   39  H           1      -1.189   4.049 -32.295  0.00  0.00     0.210 HD
ENDBRANCH   4  38
TORSDOF 8
ENDMDL
MODEL 8
REMARK VINA RESULT:      -6.9      4.508      8.228
REMARK  8 active torsions:
REMARK  status: ('A' for Active; 'I' for Inactive)
REMARK    1  A    between atoms: C_1  and  C_15 
REMARK    2  A    between atoms: C_2  and  C_11 
REMARK    3  A    between atoms: C_2  and  N_12 
REMARK    4  A    between atoms: C_5  and  C_6 
REMARK    5  A    between atoms: C_6  and  O_7 
REMARK       I    between atoms: N_10  and  C_11 
REMARK    6  A    between atoms: C_16  and  O_17 
REMARK    7  A    between atoms: C_20  and  O_22 
REMARK    8  A    between atoms: C_25  and  O_26 
ROOT
HETATM    1  C           1      -5.851   5.808 -30.684  0.00  0.00     0.231 C 
HETATM    2  N           1      -6.236   5.946 -29.221  0.00  0.00    -0.054 N 
HETATM    3  C           1      -7.092   5.985 -31.595  0.00  0.00     0.055 C 
HETATM    4  C           1      -8.406   5.321 -31.158  0.00  0.00     0.065 C 
HETATM    5  C           1      -8.615   5.496 -29.649  0.00  0.00     0.066 C 
HETATM    6  C           1      -7.419   5.114 -28.774  0.00  0.00     0.239 C 
HETATM    7  C           1      -6.774   5.794 -33.096  0.00  0.00     0.010 C 
HETATM    8  C           1      -7.637   4.741 -33.810  0.00  0.00     0.001 C 
HETATM    9  C           1      -7.833   3.517 -32.914  0.00  0.00     0.003 C 
HETATM   10  C           1      -8.575   3.868 -31.615  0.00  0.00     0.038 C 
HETATM   11  H           1      -6.545   6.942 -29.116  0.00  0.00     0.281 HD
ENDROOT
BRANCH   2  12
HETATM   12  C           1      -5.046   5.780 -28.298  0.00  0.00     0.338 C 
BRANCH  12  13
HETATM   13  C           1      -4.284   7.088 -28.149  0.00  0.00     0.248 C 
HETATM   14  N           1      -2.932   6.926 -28.087  0.00  0.00    -0.319 N 
HETATM   15  C           1      -1.907   7.787 -27.937  0.00  0.00     0.094 A 
HETATM   16  H           1      -2.594   5.988 -28.224  0.00  0.00     0.169 HD
HETATM   17  C           1      -0.615   7.527 -28.230  0.00  0.00     0.080 A 
HETATM   18  S           1      -2.049   9.043 -27.203  0.00  0.00    -0.076 SA
HETATM   19  C           1       0.141   8.565 -27.827  0.00  0.00    -0.030 A 
HETATM   20  C           1       1.632   8.725 -27.977  0.00  0.00     0.050 C 
HETATM   21  C           1      -0.650   9.479 -27.240  0.00  0.00    -0.012 A 
HETATM   22  C           1      -0.192  10.789 -26.651  0.00  0.00     0.057 C 
HETATM   23  O           1      -4.858   8.147 -28.117  0.00  0.00    -0.271 OA
BRANCH  17  24
HETATM   24  C           1      -0.135   6.403 -28.850  0.00  0.00     0.296 C 
HETATM   25  O           1       0.543   5.628 -28.204  0.00  0.00    -0.259 OA
BRANCH  24  26
HETATM   26  O           1      -0.401   6.129 -30.164  0.00  0.00    -0.322 OA
HETATM   27  C           1       0.479   5.293 -30.876  0.00  0.00     0.213 C 
ENDBRANCH  24  26
ENDBRANCH  17  24
ENDBRANCH  12  13
ENDBRANCH   2  12
BRANCH   1  28
HETATM   28  C           1      -4.862   4.668 -30.965  0.00  0.00     0.009 A 
HETATM   29  C           1      -3.630   4.935 -31.466  0.00  0.00     0.076 A 
HETATM   30  C           1      -2.834   3.881 -31.734  0.00  0.00     0.040 A 
HETATM   31  C           1      -3.199   2.620 -31.471  0.00  0.00     0.039 A 
HETATM   32  C           1      -4.394   2.328 -30.932  0.00  0.00     0.069 A 
HETATM   33  C           1      -5.196   3.388 -30.718  0.00  0.00     0.048 A 
BRANCH  29  34
HETATM   34  O           1      -3.272   6.231 -31.751  0.00  0.00    -0.355 OA
HETATM   35  C           1      -2.631   6.521 -32.971  0.00  0.00     0.210 C 
ENDBRANCH  29  34
BRANCH  32  36
HETATM   36  O           1      -4.718   1.012 -30.703  0.00  0.00    -0.356 OA
HETATM   37  C           1      -3.757   0.018 -30.972  0.00  0.00     0.210 C 
ENDBRANCH  32  36
ENDBRANCH   1  28
BRANCH   4  38
HETATM   38  O           1      -9.459   6.062 -31.742  0.00  0.00    -0.389 OA
HETATM   39  H           1     -10.087   6.370 -31.090  0.00  0.00     0.210 HD
ENDBRANCH   4  38
TORSDOF 8
ENDMDL
MODEL 9
REMARK VINA RESULT:      -6.9      3.001      7.451
REMARK  8 active torsions:
REMARK  status: ('A' for Active; 'I' for Inactive)
REMARK    1  A    between atoms: C_1  and  C_15 
REMARK    2  A    between atoms: C_2  and  C_11 
REMARK    3  A    between atoms: C_2  and  N_12 
REMARK    4  A    between atoms: C_5  and  C_6 
REMARK    5  A    between atoms: C_6  and  O_7 
REMARK       I    between atoms: N_10  and  C_11 
REMARK    6  A    between atoms: C_16  and  O_17 
REMARK    7  A    between atoms: C_20  and  O_22 
REMARK    8  A    between atoms: C_25  and  O_26 
ROOT
HETATM    1  C           1      -7.071   3.122 -32.741  0.00  0.00     0.231 C 
HETATM    2  N           1      -7.964   3.424 -31.550  0.00  0.00    -0.054 N 
HETATM    3  C           1      -7.839   2.298 -33.805  0.00  0.00     0.055 C 
HETATM    4  C           1      -8.750   1.163 -33.316  0.00  0.00     0.065 C 
HETATM    5  C           1      -9.534   1.607 -32.074  0.00  0.00     0.066 C 
HETATM    6  C           1      -8.695   2.236 -30.961  0.00  0.00     0.239 C 
HETATM    7  C           1      -6.962   1.905 -35.016  0.00  0.00     0.010 C 
HETATM    8  C           1      -6.920   0.400 -35.323  0.00  0.00     0.001 C 
HETATM    9  C           1      -6.825  -0.405 -34.025  0.00  0.00     0.003 C 
HETATM   10  C           1      -8.050  -0.187 -33.123  0.00  0.00     0.038 C 
HETATM   11  H           1      -8.715   4.049 -31.928  0.00  0.00     0.281 HD
ENDROOT
BRANCH   2  12
HETATM   12  C           1      -7.248   4.231 -30.486  0.00  0.00     0.338 C 
BRANCH  12  13
HETATM   13  C           1      -7.119   5.689 -30.902  0.00  0.00     0.248 C 
HETATM   14  N           1      -5.883   6.214 -30.667  0.00  0.00    -0.319 N 
HETATM   15  C           1      -5.352   7.438 -30.854  0.00  0.00     0.094 A 
HETATM   16  H           1      -5.188   5.571 -30.327  0.00  0.00     0.169 HD
HETATM   17  C           1      -4.033   7.723 -30.891  0.00  0.00     0.080 A 
HETATM   18  S           1      -6.162   8.653 -30.798  0.00  0.00    -0.076 SA
HETATM   19  C           1      -3.877   9.058 -30.957  0.00  0.00    -0.030 A 
HETATM   20  C           1      -2.583   9.826 -31.048  0.00  0.00     0.050 C 
HETATM   21  C           1      -5.087   9.641 -30.924  0.00  0.00    -0.012 A 
HETATM   22  C           1      -5.349  11.125 -30.976  0.00  0.00     0.057 C 
HETATM   23  O           1      -8.039   6.279 -31.409  0.00  0.00    -0.271 OA
BRANCH  17  24
HETATM   24  C           1      -3.007   6.815 -30.880  0.00  0.00     0.296 C 
HETATM   25  O           1      -2.738   6.255 -29.836  0.00  0.00    -0.259 OA
BRANCH  24  26
HETATM   26  O           1      -2.287   6.519 -32.006  0.00  0.00    -0.322 OA
HETATM   27  C           1      -0.881   6.569 -31.947  0.00  0.00     0.213 C 
ENDBRANCH  24  26
ENDBRANCH  17  24
ENDBRANCH  12  13
ENDBRANCH   2  12
BRANCH   1  28
HETATM   28  C           1      -5.638   2.721 -32.361  0.00  0.00     0.009 A 
HETATM   29  C           1      -4.600   3.556 -32.619  0.00  0.00     0.076 A 
HETATM   30  C           1      -3.366   3.117 -32.303  0.00  0.00     0.040 A 
HETATM   31  C           1      -3.154   1.936 -31.709  0.00  0.00     0.039 A 
HETATM   32  C           1      -4.166   1.109 -31.399  0.00  0.00     0.069 A 
HETATM   33  C           1      -5.386   1.541 -31.767  0.00  0.00     0.048 A 
BRANCH  29  34
HETATM   34  O           1      -4.826   4.757 -33.247  0.00  0.00    -0.355 OA
HETATM   35  C           1      -4.453   4.915 -34.596  0.00  0.00     0.210 C 
ENDBRANCH  29  34
BRANCH  32  36
HETATM   36  O           1      -3.882  -0.098 -30.806  0.00  0.00    -0.356 OA
HETATM   37  C           1      -3.446  -1.167 -31.613  0.00  0.00     0.210 C 
ENDBRANCH  32  36
ENDBRANCH   1  28
BRANCH   4  38
HETATM   38  O           1      -9.743   0.974 -34.304  0.00  0.00    -0.389 OA
HETATM   39  H           1      -9.369   0.723 -35.148  0.00  0.00     0.210 HD
ENDBRANCH   4  38
TORSDOF 8
ENDMDL
MODEL 10
REMARK VINA RESULT:      -6.8      2.951      5.537
REMARK  8 active torsions:
REMARK  status: ('A' for Active; 'I' for Inactive)
REMARK    1  A    between atoms: C_1  and  C_15 
REMARK    2  A    between atoms: C_2  and  C_11 
REMARK    3  A    between atoms: C_2  and  N_12 
REMARK    4  A    between atoms: C_5  and  C_6 
REMARK    5  A    between atoms: C_6  and  O_7 
REMARK       I    between atoms: N_10  and  C_11 
REMARK    6  A    between atoms: C_16  and  O_17 
REMARK    7  A    between atoms: C_20  and  O_22 
REMARK    8  A    between atoms: C_25  and  O_26 
ROOT
HETATM    1  C           1      -4.097   5.974 -31.416  0.00  0.00     0.231 C 
HETATM    2  N           1      -4.545   4.551 -31.130  0.00  0.00    -0.054 N 
HETATM    3  C           1      -3.171   6.016 -32.657  0.00  0.00     0.055 C 
HETATM    4  C           1      -2.112   4.914 -32.801  0.00  0.00     0.065 C 
HETATM    5  C           1      -2.704   3.552 -32.416  0.00  0.00     0.066 C 
HETATM    6  C           1      -3.442   3.516 -31.077  0.00  0.00     0.239 C 
HETATM    7  C           1      -2.631   7.433 -32.963  0.00  0.00     0.010 C 
HETATM    8  C           1      -1.100   7.536 -33.052  0.00  0.00     0.001 C 
HETATM    9  C           1      -0.445   6.695 -31.954  0.00  0.00     0.003 C 
HETATM   10  C           1      -0.782   5.202 -32.096  0.00  0.00     0.038 C 
HETATM   11  H           1      -5.135   4.283 -31.953  0.00  0.00     0.281 HD
ENDROOT
BRANCH   2  12
HETATM   12  C           1      -5.456   4.470 -29.921  0.00  0.00     0.338 C 
BRANCH  12  13
HETATM   13  C           1      -6.631   3.540 -30.186  0.00  0.00     0.248 C 
HETATM   14  N           1      -6.375   2.597 -31.136  0.00  0.00    -0.319 N 
HETATM   15  C           1      -7.117   1.614 -31.683  0.00  0.00     0.094 A 
HETATM   16  H           1      -5.433   2.572 -31.490  0.00  0.00     0.169 HD
HETATM   17  C           1      -6.635   0.553 -32.363  0.00  0.00     0.080 A 
HETATM   18  S           1      -8.570   1.717 -31.807  0.00  0.00    -0.076 SA
HETATM   19  C           1      -7.667  -0.142 -32.876  0.00  0.00    -0.030 A 
HETATM   20  C           1      -7.605  -1.415 -33.680  0.00  0.00     0.050 C 
HETATM   21  C           1      -8.813   0.486 -32.564  0.00  0.00    -0.012 A 
HETATM   22  C           1     -10.198   0.032 -32.954  0.00  0.00     0.057 C 
HETATM   23  O           1      -7.663   3.646 -29.574  0.00  0.00    -0.271 OA
BRANCH  17  24
HETATM   24  C           1      -5.315   0.212 -32.504  0.00  0.00     0.296 C 
HETATM   25  O           1      -4.624   0.868 -33.258  0.00  0.00    -0.259 OA
BRANCH  24  26
HETATM   26  O           1      -4.758  -0.834 -31.819  0.00  0.00    -0.322 OA
HETATM   27  C           1      -3.957  -1.755 -32.520  0.00  0.00     0.213 C 
ENDBRANCH  24  26
ENDBRANCH  17  24
ENDBRANCH  12  13
ENDBRANCH   2  12
BRANCH   1  28
HETATM   28  C           1      -3.720   6.776 -30.161  0.00  0.00     0.009 A 
HETATM   29  C           1      -4.534   7.760 -29.704  0.00  0.00     0.076 A 
HETATM   30  C           1      -4.115   8.453 -28.628  0.00  0.00     0.040 A 
HETATM   31  C           1      -2.977   8.163 -27.985  0.00  0.00     0.039 A 
HETATM   32  C           1      -2.174   7.164 -28.386  0.00  0.00     0.069 A 
HETATM   33  C           1      -2.582   6.515 -29.493  0.00  0.00     0.048 A 
BRANCH  29  34
HETATM   34  O           1      -5.691   8.063 -30.382  0.00  0.00    -0.355 OA
HETATM   35  C           1      -6.857   8.376 -29.658  0.00  0.00     0.210 C 
ENDBRANCH  29  34
BRANCH  32  36
HETATM   36  O           1      -1.009   6.927 -27.696  0.00  0.00    -0.356 OA
HETATM   37  C           1      -1.087   6.499 -26.356  0.00  0.00     0.210 C 
ENDBRANCH  32  36
ENDBRANCH   1  28
BRANCH   4  38
HETATM   38  O           1      -1.828   4.790 -34.181  0.00  0.00    -0.389 OA
HETATM   39  H           1      -1.844   5.635 -34.629  0.00  0.00     0.210 HD
ENDBRANCH   4  38
TORSDOF 8
ENDMDL
