MODEL 1
REMARK VINA RESULT:      -8.8      0.000      0.000
REMARK  5 active torsions:
REMARK  status: ('A' for Active; 'I' for Inactive)
REMARK    1  A    between atoms: C_3  and  N_4 
REMARK    2  A    between atoms: N_5  and  C_6 
REMARK    3  A    between atoms: C_6  and  C_7 
REMARK    4  A    between atoms: C_7  and  C_8 
REMARK    5  A    between atoms: C_17  and  C_18 
ROOT
HETATM    1  C   UNL     1      -7.430   3.956 -30.645  1.00  0.00     0.175 C 
HETATM    2  N   UNL     1      -7.144   2.816 -31.504  1.00  0.00    -0.186 N 
HETATM    3  C   UNL     1      -7.950   1.766 -31.640  1.00  0.00     0.680 A 
HETATM    4  N   UNL     1      -7.518   1.012 -32.643  1.00  0.00    -0.184 N 
HETATM    5  C   UNL     1      -6.370   1.587 -33.155  1.00  0.00     0.140 A 
HETATM    6  C   UNL     1      -6.072   2.713 -32.415  1.00  0.00     0.077 A 
ENDROOT
BRANCH   4   7
HETATM    7  C   UNL     1      -8.074  -0.277 -33.099  1.00  0.00     0.231 C 
BRANCH   7   8
HETATM    8  C   UNL     1      -7.442  -0.761 -34.398  1.00  0.00     0.178 C 
HETATM    9  O   UNL     1      -7.730  -0.243 -35.480  1.00  0.00    -0.290 OA
BRANCH   8  10
HETATM   10  C   UNL     1      -6.444  -1.862 -34.355  1.00  0.00     0.012 A 
HETATM   11  C   UNL     1      -5.148  -1.671 -33.858  1.00  0.00     0.018 A 
HETATM   12  C   UNL     1      -4.246  -2.738 -33.851  1.00  0.00     0.043 A 
HETATM   13  C   UNL     1      -4.642  -3.982 -34.331  1.00  0.00     0.116 A 
HETATM   14  F   UNL     1      -3.769  -4.997 -34.326  1.00  0.00    -0.206 F 
HETATM   15  C   UNL     1      -5.929  -4.187 -34.810  1.00  0.00     0.043 A 
HETATM   16  C   UNL     1      -6.837  -3.127 -34.818  1.00  0.00     0.018 A 
ENDBRANCH   8  10
ENDBRANCH   7   8
ENDBRANCH   4   7
BRANCH   3  17
HETATM   17  N   UNL     1      -9.025   1.529 -30.895  1.00  0.00    -0.234 N 
HETATM   18  H   UNL     1      -8.979   1.068 -30.002  1.00  0.00     0.174 HD
HETATM   19  H   UNL     1      -9.904   1.992 -31.132  1.00  0.00     0.174 HD
ENDBRANCH   3  17
BRANCH   6  20
HETATM   20  C   UNL     1      -4.859   3.585 -32.615  1.00  0.00    -0.004 A 
HETATM   21  C   UNL     1      -3.740   3.409 -31.784  1.00  0.00     0.053 A 
HETATM   22  C   UNL     1      -2.644   4.222 -31.987  1.00  0.00     0.106 A 
HETATM   23  C   UNL     1      -2.624   5.187 -32.962  1.00  0.00     0.105 A 
HETATM   24  O   UNL     1      -1.483   4.175 -31.280  1.00  0.00    -0.323 OA
HETATM   25  O   UNL     1      -1.452   5.871 -32.992  1.00  0.00    -0.323 OA
HETATM   26  C   UNL     1      -3.707   5.398 -33.784  1.00  0.00     0.040 A 
HETATM   27  C   UNL     1      -0.728   5.227 -31.922  1.00  0.00     0.352 A 
HETATM   28  C   UNL     1      -4.839   4.591 -33.602  1.00  0.00     0.017 A 
ENDBRANCH   6  20
TORSDOF 5
ENDMDL
MODEL 2
REMARK VINA RESULT:      -8.8      0.717      1.712
REMARK  5 active torsions:
REMARK  status: ('A' for Active; 'I' for Inactive)
REMARK    1  A    between atoms: C_3  and  N_4 
REMARK    2  A    between atoms: N_5  and  C_6 
REMARK    3  A    between atoms: C_6  and  C_7 
REMARK    4  A    between atoms: C_7  and  C_8 
REMARK    5  A    between atoms: C_17  and  C_18 
ROOT
HETATM    1  C   UNL     1      -6.923   3.499 -30.271  1.00  0.00     0.175 C 
HETATM    2  N   UNL     1      -6.740   2.544 -31.356  1.00  0.00    -0.186 N 
HETATM    3  C   UNL     1      -7.586   1.553 -31.625  1.00  0.00     0.680 A 
HETATM    4  N   UNL     1      -7.257   1.004 -32.788  1.00  0.00    -0.184 N 
HETATM    5  C   UNL     1      -6.135   1.651 -33.272  1.00  0.00     0.140 A 
HETATM    6  C   UNL     1      -5.746   2.606 -32.355  1.00  0.00     0.077 A 
ENDROOT
BRANCH   4   7
HETATM    7  C   UNL     1      -7.886  -0.163 -33.437  1.00  0.00     0.231 C 
BRANCH   7   8
HETATM    8  C   UNL     1      -7.102  -0.653 -34.648  1.00  0.00     0.178 C 
HETATM    9  O   UNL     1      -7.113  -0.028 -35.712  1.00  0.00    -0.290 OA
BRANCH   8  10
HETATM   10  C   UNL     1      -6.290  -1.894 -34.535  1.00  0.00     0.012 A 
HETATM   11  C   UNL     1      -6.783  -3.143 -34.935  1.00  0.00     0.018 A 
HETATM   12  C   UNL     1      -5.982  -4.279 -34.796  1.00  0.00     0.043 A 
HETATM   13  C   UNL     1      -4.700  -4.161 -34.269  1.00  0.00     0.116 A 
HETATM   14  F   UNL     1      -3.941  -5.256 -34.135  1.00  0.00    -0.206 F 
HETATM   15  C   UNL     1      -4.195  -2.926 -33.886  1.00  0.00     0.043 A 
HETATM   16  C   UNL     1      -4.988  -1.785 -34.023  1.00  0.00     0.018 A 
ENDBRANCH   8  10
ENDBRANCH   7   8
ENDBRANCH   4   7
BRANCH   3  17
HETATM   17  N   UNL     1      -8.606   1.191 -30.855  1.00  0.00    -0.234 N 
HETATM   18  H   UNL     1      -9.459   1.720 -30.794  1.00  0.00     0.174 HD
HETATM   19  H   UNL     1      -8.616   0.250 -30.456  1.00  0.00     0.174 HD
ENDBRANCH   3  17
BRANCH   6  20
HETATM   20  C   UNL     1      -4.526   3.482 -32.481  1.00  0.00    -0.004 A 
HETATM   21  C   UNL     1      -4.493   4.476 -33.474  1.00  0.00     0.053 A 
HETATM   22  C   UNL     1      -3.364   5.263 -33.569  1.00  0.00     0.106 A 
HETATM   23  C   UNL     1      -2.287   5.095 -32.736  1.00  0.00     0.105 A 
HETATM   24  O   UNL     1      -3.175   6.269 -34.463  1.00  0.00    -0.323 OA
HETATM   25  O   UNL     1      -1.285   5.971 -32.998  1.00  0.00    -0.323 OA
HETATM   26  C   UNL     1      -2.278   4.121 -31.763  1.00  0.00     0.040 A 
HETATM   27  C   UNL     1      -1.851   6.717 -34.097  1.00  0.00     0.352 A 
HETATM   28  C   UNL     1      -3.409   3.302 -31.641  1.00  0.00     0.017 A 
ENDBRANCH   6  20
TORSDOF 5
ENDMDL
MODEL 3
REMARK VINA RESULT:      -8.6      3.308      7.858
REMARK  5 active torsions:
REMARK  status: ('A' for Active; 'I' for Inactive)
REMARK    1  A    between atoms: C_3  and  N_4 
REMARK    2  A    between atoms: N_5  and  C_6 
REMARK    3  A    between atoms: C_6  and  C_7 
REMARK    4  A    between atoms: C_7  and  C_8 
REMARK    5  A    between atoms: C_17  and  C_18 
ROOT
HETATM    1  C   UNL     1      -4.507   0.605 -30.600  1.00  0.00     0.175 C 
HETATM    2  N   UNL     1      -4.961   1.545 -31.616  1.00  0.00    -0.186 N 
HETATM    3  C   UNL     1      -4.821   2.865 -31.524  1.00  0.00     0.680 A 
HETATM    4  N   UNL     1      -5.134   3.418 -32.690  1.00  0.00    -0.184 N 
HETATM    5  C   UNL     1      -5.518   2.412 -33.558  1.00  0.00     0.140 A 
HETATM    6  C   UNL     1      -5.471   1.207 -32.887  1.00  0.00     0.077 A 
ENDROOT
BRANCH   4   7
HETATM    7  C   UNL     1      -5.180   4.857 -33.015  1.00  0.00     0.231 C 
BRANCH   7   8
HETATM    8  C   UNL     1      -4.023   5.293 -33.905  1.00  0.00     0.178 C 
HETATM    9  O   UNL     1      -4.137   5.317 -35.134  1.00  0.00    -0.290 OA
BRANCH   8  10
HETATM   10  C   UNL     1      -2.744   5.720 -33.279  1.00  0.00     0.012 A 
HETATM   11  C   UNL     1      -1.859   4.802 -32.699  1.00  0.00     0.018 A 
HETATM   12  C   UNL     1      -0.675   5.259 -32.114  1.00  0.00     0.043 A 
HETATM   13  C   UNL     1      -0.380   6.618 -32.118  1.00  0.00     0.116 A 
HETATM   14  F   UNL     1       0.754   7.048 -31.550  1.00  0.00    -0.206 F 
HETATM   15  C   UNL     1      -1.243   7.535 -32.705  1.00  0.00     0.043 A 
HETATM   16  C   UNL     1      -2.427   7.087 -33.294  1.00  0.00     0.018 A 
ENDBRANCH   8  10
ENDBRANCH   7   8
ENDBRANCH   4   7
BRANCH   3  17
HETATM   17  N   UNL     1      -4.415   3.515 -30.439  1.00  0.00    -0.234 N 
HETATM   18  H   UNL     1      -5.047   3.828 -29.722  1.00  0.00     0.174 HD
HETATM   19  H   UNL     1      -3.418   3.535 -30.217  1.00  0.00     0.174 HD
ENDBRANCH   3  17
BRANCH   6  20
HETATM   20  C   UNL     1      -5.879  -0.123 -33.466  1.00  0.00    -0.004 A 
HETATM   21  C   UNL     1      -4.919  -1.140 -33.596  1.00  0.00     0.053 A 
HETATM   22  C   UNL     1      -5.318  -2.347 -34.131  1.00  0.00     0.106 A 
HETATM   23  C   UNL     1      -6.609  -2.571 -34.540  1.00  0.00     0.105 A 
HETATM   24  O   UNL     1      -4.521  -3.433 -34.316  1.00  0.00    -0.323 OA
HETATM   25  O   UNL     1      -6.788  -3.822 -35.034  1.00  0.00    -0.323 OA
HETATM   26  C   UNL     1      -7.572  -1.593 -34.443  1.00  0.00     0.040 A 
HETATM   27  C   UNL     1      -5.459  -4.369 -34.891  1.00  0.00     0.352 A 
HETATM   28  C   UNL     1      -7.198  -0.353 -33.906  1.00  0.00     0.017 A 
ENDBRANCH   6  20
TORSDOF 5
ENDMDL
MODEL 4
REMARK VINA RESULT:      -8.6      3.441      6.653
REMARK  5 active torsions:
REMARK  status: ('A' for Active; 'I' for Inactive)
REMARK    1  A    between atoms: C_3  and  N_4 
REMARK    2  A    between atoms: N_5  and  C_6 
REMARK    3  A    between atoms: C_6  and  C_7 
REMARK    4  A    between atoms: C_7  and  C_8 
REMARK    5  A    between atoms: C_17  and  C_18 
ROOT
HETATM    1  C   UNL     1      -9.371   2.989 -30.854  1.00  0.00     0.175 C 
HETATM    2  N   UNL     1      -8.603   2.346 -31.911  1.00  0.00    -0.186 N 
HETATM    3  C   UNL     1      -7.288   2.149 -31.860  1.00  0.00     0.680 A 
HETATM    4  N   UNL     1      -6.927   1.357 -32.862  1.00  0.00    -0.184 N 
HETATM    5  C   UNL     1      -8.054   1.056 -33.605  1.00  0.00     0.140 A 
HETATM    6  C   UNL     1      -9.134   1.716 -33.056  1.00  0.00     0.077 A 
ENDROOT
BRANCH   4   7
HETATM    7  C   UNL     1      -5.559   0.933 -33.221  1.00  0.00     0.231 C 
BRANCH   7   8
HETATM    8  C   UNL     1      -5.189  -0.419 -32.622  1.00  0.00     0.178 C 
HETATM    9  O   UNL     1      -4.782  -0.512 -31.461  1.00  0.00    -0.290 OA
BRANCH   8  10
HETATM   10  C   UNL     1      -5.345  -1.646 -33.446  1.00  0.00     0.012 A 
HETATM   11  C   UNL     1      -4.262  -2.485 -33.741  1.00  0.00     0.018 A 
HETATM   12  C   UNL     1      -4.463  -3.621 -34.530  1.00  0.00     0.043 A 
HETATM   13  C   UNL     1      -5.735  -3.914 -35.011  1.00  0.00     0.116 A 
HETATM   14  F   UNL     1      -5.917  -5.001 -35.770  1.00  0.00    -0.206 F 
HETATM   15  C   UNL     1      -6.818  -3.099 -34.710  1.00  0.00     0.043 A 
HETATM   16  C   UNL     1      -6.627  -1.963 -33.921  1.00  0.00     0.018 A 
ENDBRANCH   8  10
ENDBRANCH   7   8
ENDBRANCH   4   7
BRANCH   3  17
HETATM   17  N   UNL     1      -6.476   2.655 -30.937  1.00  0.00    -0.234 N 
HETATM   18  H   UNL     1      -5.637   3.159 -31.167  1.00  0.00     0.174 HD
HETATM   19  H   UNL     1      -6.799   2.709 -29.970  1.00  0.00     0.174 HD
ENDBRANCH   3  17
BRANCH   6  20
HETATM   20  C   UNL     1     -10.534   1.699 -33.614  1.00  0.00    -0.004 A 
HETATM   21  C   UNL     1     -11.416   0.675 -33.229  1.00  0.00     0.053 A 
HETATM   22  C   UNL     1     -12.691   0.682 -33.756  1.00  0.00     0.106 A 
HETATM   23  C   UNL     1     -13.109   1.646 -34.638  1.00  0.00     0.105 A 
HETATM   24  O   UNL     1     -13.664  -0.227 -33.482  1.00  0.00    -0.323 OA
HETATM   25  O   UNL     1     -14.395   1.468 -35.031  1.00  0.00    -0.323 OA
HETATM   26  C   UNL     1     -12.268   2.655 -35.049  1.00  0.00     0.040 A 
HETATM   27  C   UNL     1     -14.747   0.277 -34.296  1.00  0.00     0.352 A 
HETATM   28  C   UNL     1     -10.964   2.676 -34.535  1.00  0.00     0.017 A 
ENDBRANCH   6  20
TORSDOF 5
ENDMDL
MODEL 5
REMARK VINA RESULT:      -8.5      3.461      7.540
REMARK  5 active torsions:
REMARK  status: ('A' for Active; 'I' for Inactive)
REMARK    1  A    between atoms: C_3  and  N_4 
REMARK    2  A    between atoms: N_5  and  C_6 
REMARK    3  A    between atoms: C_6  and  C_7 
REMARK    4  A    between atoms: C_7  and  C_8 
REMARK    5  A    between atoms: C_17  and  C_18 
ROOT
HETATM    1  C   UNL     1      -3.188   0.333 -31.602  1.00  0.00     0.175 C 
HETATM    2  N   UNL     1      -4.436   0.970 -32.000  1.00  0.00    -0.186 N 
HETATM    3  C   UNL     1      -4.765   2.221 -31.688  1.00  0.00     0.680 A 
HETATM    4  N   UNL     1      -5.848   2.570 -32.372  1.00  0.00    -0.184 N 
HETATM    5  C   UNL     1      -6.248   1.487 -33.133  1.00  0.00     0.140 A 
HETATM    6  C   UNL     1      -5.398   0.430 -32.879  1.00  0.00     0.077 A 
ENDROOT
BRANCH   4   7
HETATM    7  C   UNL     1      -6.591   3.842 -32.285  1.00  0.00     0.231 C 
BRANCH   7   8
HETATM    8  C   UNL     1      -6.338   4.751 -33.481  1.00  0.00     0.178 C 
HETATM    9  O   UNL     1      -7.256   5.088 -34.233  1.00  0.00    -0.290 OA
BRANCH   8  10
HETATM   10  C   UNL     1      -4.963   5.258 -33.731  1.00  0.00     0.012 A 
HETATM   11  C   UNL     1      -4.258   4.948 -34.901  1.00  0.00     0.018 A 
HETATM   12  C   UNL     1      -2.963   5.442 -35.080  1.00  0.00     0.043 A 
HETATM   13  C   UNL     1      -2.386   6.243 -34.099  1.00  0.00     0.116 A 
HETATM   14  F   UNL     1      -1.143   6.707 -34.276  1.00  0.00    -0.206 F 
HETATM   15  C   UNL     1      -3.082   6.570 -32.943  1.00  0.00     0.043 A 
HETATM   16  C   UNL     1      -4.377   6.083 -32.758  1.00  0.00     0.018 A 
ENDBRANCH   8  10
ENDBRANCH   7   8
ENDBRANCH   4   7
BRANCH   3  17
HETATM   17  N   UNL     1      -4.098   2.996 -30.839  1.00  0.00    -0.234 N 
HETATM   18  H   UNL     1      -3.862   2.706 -29.906  1.00  0.00     0.174 HD
HETATM   19  H   UNL     1      -3.638   3.836 -31.193  1.00  0.00     0.174 HD
ENDBRANCH   3  17
BRANCH   6  20
HETATM   20  C   UNL     1      -5.536  -0.952 -33.464  1.00  0.00    -0.004 A 
HETATM   21  C   UNL     1      -4.477  -1.865 -33.329  1.00  0.00     0.053 A 
HETATM   22  C   UNL     1      -4.629  -3.123 -33.875  1.00  0.00     0.106 A 
HETATM   23  C   UNL     1      -5.768  -3.494 -34.543  1.00  0.00     0.105 A 
HETATM   24  O   UNL     1      -3.708  -4.122 -33.826  1.00  0.00    -0.323 OA
HETATM   25  O   UNL     1      -5.711  -4.771 -34.999  1.00  0.00    -0.323 OA
HETATM   26  C   UNL     1      -6.819  -2.621 -34.709  1.00  0.00     0.040 A 
HETATM   27  C   UNL     1      -4.400  -5.169 -34.543  1.00  0.00     0.352 A 
HETATM   28  C   UNL     1      -6.696  -1.334 -34.168  1.00  0.00     0.017 A 
ENDBRANCH   6  20
TORSDOF 5
ENDMDL
MODEL 6
REMARK VINA RESULT:      -8.3      1.473      2.152
REMARK  5 active torsions:
REMARK  status: ('A' for Active; 'I' for Inactive)
REMARK    1  A    between atoms: C_3  and  N_4 
REMARK    2  A    between atoms: N_5  and  C_6 
REMARK    3  A    between atoms: C_6  and  C_7 
REMARK    4  A    between atoms: C_7  and  C_8 
REMARK    5  A    between atoms: C_17  and  C_18 
ROOT
HETATM    1  C   UNL     1      -6.183   5.211 -33.843  1.00  0.00     0.175 C 
HETATM    2  N   UNL     1      -5.914   3.989 -33.098  1.00  0.00    -0.186 N 
HETATM    3  C   UNL     1      -6.788   2.996 -32.957  1.00  0.00     0.680 A 
HETATM    4  N   UNL     1      -6.175   1.949 -32.418  1.00  0.00    -0.184 N 
HETATM    5  C   UNL     1      -4.858   2.295 -32.177  1.00  0.00     0.140 A 
HETATM    6  C   UNL     1      -4.670   3.610 -32.550  1.00  0.00     0.077 A 
ENDROOT
BRANCH   4   7
HETATM    7  C   UNL     1      -6.779   0.660 -32.029  1.00  0.00     0.231 C 
BRANCH   7   8
HETATM    8  C   UNL     1      -7.075  -0.233 -33.227  1.00  0.00     0.178 C 
HETATM    9  O   UNL     1      -8.067  -0.043 -33.935  1.00  0.00    -0.290 OA
BRANCH   8  10
HETATM   10  C   UNL     1      -6.137  -1.338 -33.560  1.00  0.00     0.012 A 
HETATM   11  C   UNL     1      -6.455  -2.322 -34.505  1.00  0.00     0.018 A 
HETATM   12  C   UNL     1      -5.541  -3.345 -34.771  1.00  0.00     0.043 A 
HETATM   13  C   UNL     1      -4.321  -3.375 -34.102  1.00  0.00     0.116 A 
HETATM   14  F   UNL     1      -3.454  -4.362 -34.360  1.00  0.00    -0.206 F 
HETATM   15  C   UNL     1      -3.990  -2.395 -33.176  1.00  0.00     0.043 A 
HETATM   16  C   UNL     1      -4.896  -1.368 -32.906  1.00  0.00     0.018 A 
ENDBRANCH   8  10
ENDBRANCH   7   8
ENDBRANCH   4   7
BRANCH   3  17
HETATM   17  N   UNL     1      -8.066   3.048 -33.317  1.00  0.00    -0.234 N 
HETATM   18  H   UNL     1      -8.416   2.610 -34.152  1.00  0.00     0.174 HD
HETATM   19  H   UNL     1      -8.758   3.372 -32.640  1.00  0.00     0.174 HD
ENDBRANCH   3  17
BRANCH   6  20
HETATM   20  C   UNL     1      -3.386   4.382 -32.386  1.00  0.00    -0.004 A 
HETATM   21  C   UNL     1      -3.152   5.081 -31.189  1.00  0.00     0.053 A 
HETATM   22  C   UNL     1      -1.970   5.781 -31.066  1.00  0.00     0.106 A 
HETATM   23  C   UNL     1      -1.036   5.816 -32.070  1.00  0.00     0.105 A 
HETATM   24  O   UNL     1      -1.586   6.498 -29.976  1.00  0.00    -0.323 OA
HETATM   25  O   UNL     1       0.052   6.559 -31.743  1.00  0.00    -0.323 OA
HETATM   26  C   UNL     1      -1.239   5.157 -33.261  1.00  0.00     0.040 A 
HETATM   27  C   UNL     1      -0.300   6.992 -30.412  1.00  0.00     0.352 A 
HETATM   28  C   UNL     1      -2.431   4.438 -33.421  1.00  0.00     0.017 A 
ENDBRANCH   6  20
TORSDOF 5
ENDMDL
MODEL 7
REMARK VINA RESULT:      -8.1      1.822      2.388
REMARK  5 active torsions:
REMARK  status: ('A' for Active; 'I' for Inactive)
REMARK    1  A    between atoms: C_3  and  N_4 
REMARK    2  A    between atoms: N_5  and  C_6 
REMARK    3  A    between atoms: C_6  and  C_7 
REMARK    4  A    between atoms: C_7  and  C_8 
REMARK    5  A    between atoms: C_17  and  C_18 
ROOT
HETATM    1  C   UNL     1      -7.153   6.053 -31.126  1.00  0.00     0.175 C 
HETATM    2  N   UNL     1      -6.934   4.657 -31.478  1.00  0.00    -0.186 N 
HETATM    3  C   UNL     1      -7.747   3.664 -31.125  1.00  0.00     0.680 A 
HETATM    4  N   UNL     1      -7.395   2.561 -31.774  1.00  0.00    -0.184 N 
HETATM    5  C   UNL     1      -6.291   2.851 -32.555  1.00  0.00     0.140 A 
HETATM    6  C   UNL     1      -5.937   4.169 -32.349  1.00  0.00     0.077 A 
ENDROOT
BRANCH   4   7
HETATM    7  C   UNL     1      -7.982   1.214 -31.635  1.00  0.00     0.231 C 
BRANCH   7   8
HETATM    8  C   UNL     1      -6.930   0.137 -31.405  1.00  0.00     0.178 C 
HETATM    9  O   UNL     1      -6.464  -0.071 -30.281  1.00  0.00    -0.290 OA
BRANCH   8  10
HETATM   10  C   UNL     1      -6.477  -0.694 -32.551  1.00  0.00     0.012 A 
HETATM   11  C   UNL     1      -7.339  -1.055 -33.594  1.00  0.00     0.018 A 
HETATM   12  C   UNL     1      -6.863  -1.847 -34.643  1.00  0.00     0.043 A 
HETATM   13  C   UNL     1      -5.536  -2.265 -34.647  1.00  0.00     0.116 A 
HETATM   14  F   UNL     1      -5.090  -3.028 -35.652  1.00  0.00    -0.206 F 
HETATM   15  C   UNL     1      -4.668  -1.899 -33.627  1.00  0.00     0.043 A 
HETATM   16  C   UNL     1      -5.135  -1.106 -32.577  1.00  0.00     0.018 A 
ENDBRANCH   8  10
ENDBRANCH   7   8
ENDBRANCH   4   7
BRANCH   3  17
HETATM   17  N   UNL     1      -8.758   3.774 -30.270  1.00  0.00    -0.234 N 
HETATM   18  H   UNL     1      -8.978   4.632 -29.792  1.00  0.00     0.174 HD
HETATM   19  H   UNL     1      -9.458   3.032 -30.234  1.00  0.00     0.174 HD
ENDBRANCH   3  17
BRANCH   6  20
HETATM   20  C   UNL     1      -4.746   4.852 -32.968  1.00  0.00    -0.004 A 
HETATM   21  C   UNL     1      -3.816   5.501 -32.138  1.00  0.00     0.053 A 
HETATM   22  C   UNL     1      -2.735   6.120 -32.731  1.00  0.00     0.106 A 
HETATM   23  C   UNL     1      -2.554   6.124 -34.091  1.00  0.00     0.105 A 
HETATM   24  O   UNL     1      -1.745   6.781 -32.075  1.00  0.00    -0.323 OA
HETATM   25  O   UNL     1      -1.430   6.786 -34.464  1.00  0.00    -0.323 OA
HETATM   26  C   UNL     1      -3.452   5.513 -34.936  1.00  0.00     0.040 A 
HETATM   27  C   UNL     1      -0.917   7.204 -33.181  1.00  0.00     0.352 A 
HETATM   28  C   UNL     1      -4.564   4.876 -34.366  1.00  0.00     0.017 A 
ENDBRANCH   6  20
TORSDOF 5
ENDMDL
MODEL 8
REMARK VINA RESULT:      -8.1      3.916      7.129
REMARK  5 active torsions:
REMARK  status: ('A' for Active; 'I' for Inactive)
REMARK    1  A    between atoms: C_3  and  N_4 
REMARK    2  A    between atoms: N_5  and  C_6 
REMARK    3  A    between atoms: C_6  and  C_7 
REMARK    4  A    between atoms: C_7  and  C_8 
REMARK    5  A    between atoms: C_17  and  C_18 
ROOT
HETATM    1  C   UNL     1      -3.846   0.597 -31.962  1.00  0.00     0.175 C 
HETATM    2  N   UNL     1      -5.033   1.024 -32.690  1.00  0.00    -0.186 N 
HETATM    3  C   UNL     1      -5.498   2.271 -32.689  1.00  0.00     0.680 A 
HETATM    4  N   UNL     1      -6.450   2.382 -33.607  1.00  0.00    -0.184 N 
HETATM    5  C   UNL     1      -6.623   1.146 -34.204  1.00  0.00     0.140 A 
HETATM    6  C   UNL     1      -5.771   0.242 -33.604  1.00  0.00     0.077 A 
ENDROOT
BRANCH   4   7
HETATM    7  C   UNL     1      -7.278   3.568 -33.901  1.00  0.00     0.231 C 
BRANCH   7   8
HETATM    8  C   UNL     1      -8.578   3.586 -33.106  1.00  0.00     0.178 C 
HETATM    9  O   UNL     1      -8.654   4.166 -32.019  1.00  0.00    -0.290 OA
BRANCH   8  10
HETATM   10  C   UNL     1      -9.780   2.913 -33.663  1.00  0.00     0.012 A 
HETATM   11  C   UNL     1     -10.555   3.494 -34.675  1.00  0.00     0.018 A 
HETATM   12  C   UNL     1     -11.682   2.822 -35.155  1.00  0.00     0.043 A 
HETATM   13  C   UNL     1     -12.023   1.580 -34.631  1.00  0.00     0.116 A 
HETATM   14  F   UNL     1     -13.108   0.945 -35.093  1.00  0.00    -0.206 F 
HETATM   15  C   UNL     1     -11.252   0.986 -33.640  1.00  0.00     0.043 A 
HETATM   16  C   UNL     1     -10.123   1.650 -33.156  1.00  0.00     0.018 A 
ENDBRANCH   8  10
ENDBRANCH   7   8
ENDBRANCH   4   7
BRANCH   3  17
HETATM   17  N   UNL     1      -5.060   3.247 -31.901  1.00  0.00    -0.234 N 
HETATM   18  H   UNL     1      -4.383   3.098 -31.172  1.00  0.00     0.174 HD
HETATM   19  H   UNL     1      -5.261   4.215 -32.154  1.00  0.00     0.174 HD
ENDBRANCH   3  17
BRANCH   6  20
HETATM   20  C   UNL     1      -5.702  -1.228 -33.927  1.00  0.00    -0.004 A 
HETATM   21  C   UNL     1      -4.548  -1.955 -33.585  1.00  0.00     0.053 A 
HETATM   22  C   UNL     1      -4.511  -3.299 -33.894  1.00  0.00     0.106 A 
HETATM   23  C   UNL     1      -5.553  -3.931 -34.522  1.00  0.00     0.105 A 
HETATM   24  O   UNL     1      -3.479  -4.143 -33.625  1.00  0.00    -0.323 OA
HETATM   25  O   UNL     1      -5.312  -5.250 -34.731  1.00  0.00    -0.323 OA
HETATM   26  C   UNL     1      -6.691  -3.248 -34.886  1.00  0.00     0.040 A 
HETATM   27  C   UNL     1      -3.992  -5.383 -34.160  1.00  0.00     0.352 A 
HETATM   28  C   UNL     1      -6.761  -1.880 -34.590  1.00  0.00     0.017 A 
ENDBRANCH   6  20
TORSDOF 5
ENDMDL
MODEL 9
REMARK VINA RESULT:      -8.0      2.432      3.640
REMARK  5 active torsions:
REMARK  status: ('A' for Active; 'I' for Inactive)
REMARK    1  A    between atoms: C_3  and  N_4 
REMARK    2  A    between atoms: N_5  and  C_6 
REMARK    3  A    between atoms: C_6  and  C_7 
REMARK    4  A    between atoms: C_7  and  C_8 
REMARK    5  A    between atoms: C_17  and  C_18 
ROOT
HETATM    1  C   UNL     1      -3.957   5.306 -34.152  1.00  0.00     0.175 C 
HETATM    2  N   UNL     1      -4.186   4.335 -33.091  1.00  0.00    -0.186 N 
HETATM    3  C   UNL     1      -5.084   3.355 -33.160  1.00  0.00     0.680 A 
HETATM    4  N   UNL     1      -4.900   2.524 -32.141  1.00  0.00    -0.184 N 
HETATM    5  C   UNL     1      -3.859   3.006 -31.370  1.00  0.00     0.140 A 
HETATM    6  C   UNL     1      -3.415   4.192 -31.918  1.00  0.00     0.077 A 
ENDROOT
BRANCH   4   7
HETATM    7  C   UNL     1      -5.709   1.339 -31.795  1.00  0.00     0.231 C 
BRANCH   7   8
HETATM    8  C   UNL     1      -4.905   0.046 -31.844  1.00  0.00     0.178 C 
HETATM    9  O   UNL     1      -4.014  -0.183 -31.022  1.00  0.00    -0.290 OA
BRANCH   8  10
HETATM   10  C   UNL     1      -5.219  -0.966 -32.886  1.00  0.00     0.012 A 
HETATM   11  C   UNL     1      -6.473  -1.029 -33.508  1.00  0.00     0.018 A 
HETATM   12  C   UNL     1      -6.717  -2.009 -34.474  1.00  0.00     0.043 A 
HETATM   13  C   UNL     1      -5.714  -2.909 -34.817  1.00  0.00     0.116 A 
HETATM   14  F   UNL     1      -5.958  -3.847 -35.740  1.00  0.00    -0.206 F 
HETATM   15  C   UNL     1      -4.462  -2.845 -34.220  1.00  0.00     0.043 A 
HETATM   16  C   UNL     1      -4.208  -1.868 -33.255  1.00  0.00     0.018 A 
ENDBRANCH   8  10
ENDBRANCH   7   8
ENDBRANCH   4   7
BRANCH   3  17
HETATM   17  N   UNL     1      -6.003   3.228 -34.111  1.00  0.00    -0.234 N 
HETATM   18  H   UNL     1      -5.918   2.570 -34.867  1.00  0.00     0.174 HD
HETATM   19  H   UNL     1      -6.915   3.668 -33.980  1.00  0.00     0.174 HD
ENDBRANCH   3  17
BRANCH   6  20
HETATM   20  C   UNL     1      -2.334   5.065 -31.335  1.00  0.00    -0.004 A 
HETATM   21  C   UNL     1      -2.677   6.048 -30.392  1.00  0.00     0.053 A 
HETATM   22  C   UNL     1      -1.667   6.835 -29.875  1.00  0.00     0.106 A 
HETATM   23  C   UNL     1      -0.359   6.685 -30.260  1.00  0.00     0.105 A 
HETATM   24  O   UNL     1      -1.827   7.820 -28.953  1.00  0.00    -0.323 OA
HETATM   25  O   UNL     1       0.470   7.556 -29.630  1.00  0.00    -0.323 OA
HETATM   26  C   UNL     1       0.012   5.743 -31.192  1.00  0.00     0.040 A 
HETATM   27  C   UNL     1      -0.465   8.277 -28.800  1.00  0.00     0.352 A 
HETATM   28  C   UNL     1      -0.990   4.929 -31.739  1.00  0.00     0.017 A 
ENDBRANCH   6  20
TORSDOF 5
ENDMDL
MODEL 10
REMARK VINA RESULT:      -8.0      4.066      7.046
REMARK  5 active torsions:
REMARK  status: ('A' for Active; 'I' for Inactive)
REMARK    1  A    between atoms: C_3  and  N_4 
REMARK    2  A    between atoms: N_5  and  C_6 
REMARK    3  A    between atoms: C_6  and  C_7 
REMARK    4  A    between atoms: C_7  and  C_8 
REMARK    5  A    between atoms: C_17  and  C_18 
ROOT
HETATM    1  C   UNL     1      -5.927   0.395 -29.686  1.00  0.00     0.175 C 
HETATM    2  N   UNL     1      -6.520   1.187 -30.754  1.00  0.00    -0.186 N 
HETATM    3  C   UNL     1      -7.118   2.361 -30.566  1.00  0.00     0.680 A 
HETATM    4  N   UNL     1      -7.356   2.923 -31.745  1.00  0.00    -0.184 N 
HETATM    5  C   UNL     1      -6.918   2.060 -32.733  1.00  0.00     0.140 A 
HETATM    6  C   UNL     1      -6.427   0.917 -32.135  1.00  0.00     0.077 A 
ENDROOT
BRANCH   4   7
HETATM    7  C   UNL     1      -8.058   4.195 -32.006  1.00  0.00     0.231 C 
BRANCH   7   8
HETATM    8  C   UNL     1      -8.487   4.339 -33.461  1.00  0.00     0.178 C 
HETATM    9  O   UNL     1      -7.752   4.876 -34.293  1.00  0.00    -0.290 OA
BRANCH   8  10
HETATM   10  C   UNL     1      -9.806   3.800 -33.886  1.00  0.00     0.012 A 
HETATM   11  C   UNL     1     -10.489   2.833 -33.139  1.00  0.00     0.018 A 
HETATM   12  C   UNL     1     -11.721   2.352 -33.591  1.00  0.00     0.043 A 
HETATM   13  C   UNL     1     -12.263   2.843 -34.775  1.00  0.00     0.116 A 
HETATM   14  F   UNL     1     -13.441   2.373 -35.203  1.00  0.00    -0.206 F 
HETATM   15  C   UNL     1     -11.602   3.815 -35.515  1.00  0.00     0.043 A 
HETATM   16  C   UNL     1     -10.372   4.301 -35.069  1.00  0.00     0.018 A 
ENDBRANCH   8  10
ENDBRANCH   7   8
ENDBRANCH   4   7
BRANCH   3  17
HETATM   17  N   UNL     1      -7.410   2.887 -29.381  1.00  0.00    -0.234 N 
HETATM   18  H   UNL     1      -8.214   2.609 -28.844  1.00  0.00     0.174 HD
HETATM   19  H   UNL     1      -6.705   3.449 -28.901  1.00  0.00     0.174 HD
ENDBRANCH   3  17
BRANCH   6  20
HETATM   20  C   UNL     1      -5.914  -0.294 -32.873  1.00  0.00    -0.004 A 
HETATM   21  C   UNL     1      -6.831  -1.169 -33.480  1.00  0.00     0.053 A 
HETATM   22  C   UNL     1      -6.334  -2.270 -34.146  1.00  0.00     0.106 A 
HETATM   23  C   UNL     1      -4.990  -2.530 -34.223  1.00  0.00     0.105 A 
HETATM   24  O   UNL     1      -7.081  -3.206 -34.792  1.00  0.00    -0.323 OA
HETATM   25  O   UNL     1      -4.717  -3.660 -34.924  1.00  0.00    -0.323 OA
HETATM   26  C   UNL     1      -4.064  -1.704 -33.627  1.00  0.00     0.040 A 
HETATM   27  C   UNL     1      -6.048  -4.089 -35.284  1.00  0.00     0.352 A 
HETATM   28  C   UNL     1      -4.535  -0.577 -32.939  1.00  0.00     0.017 A 
ENDBRANCH   6  20
TORSDOF 5
ENDMDL
