MODEL 1
REMARK VINA RESULT:      -9.6      0.000      0.000
REMARK  6 active torsions:
REMARK  status: ('A' for Active; 'I' for Inactive)
REMARK    1  A    between atoms: C_2  and  C_3 
REMARK    2  A    between atoms: C_3  and  C_4 
REMARK    3  A    between atoms: C_6  and  N_7 
REMARK    4  A    between atoms: C_9  and  C_10 
REMARK    5  A    between atoms: C_16  and  N_17 
REMARK       I    between atoms: N_17  and  C_18 
REMARK    6  A    between atoms: C_18  and  C_19 
ROOT
HETATM    1  N   UNL     1      -4.952   3.425 -31.485  1.00  0.00    -0.044 N 
HETATM    2  N   UNL     1      -4.369   4.561 -31.015  1.00  0.00    -0.150 NA
HETATM    3  C   UNL     1      -3.112   4.499 -31.478  1.00  0.00     0.099 A 
HETATM    4  C   UNL     1      -2.891   3.330 -32.245  1.00  0.00     0.086 A 
HETATM    5  C   UNL     1      -4.082   2.642 -32.222  1.00  0.00     0.152 A 
ENDROOT
BRANCH   5   6
HETATM    6  N   UNL     1      -4.390   1.406 -32.783  1.00  0.00    -0.305 N 
HETATM    7  C   UNL     1      -3.920   0.147 -32.287  1.00  0.00     0.281 C 
HETATM    8  O   UNL     1      -3.075   0.094 -31.407  1.00  0.00    -0.265 OA
HETATM    9  H   UNL     1      -4.979   1.399 -33.620  1.00  0.00     0.170 HD
BRANCH   7  10
HETATM   10  C   UNL     1      -4.528  -0.985 -32.936  1.00  0.00     0.144 A 
HETATM   11  O   UNL     1      -3.818  -2.153 -33.042  1.00  0.00    -0.304 OA
HETATM   12  C   UNL     1      -4.587  -3.023 -33.758  1.00  0.00     0.086 A 
HETATM   13  C   UNL     1      -5.806  -2.439 -34.081  1.00  0.00     0.001 A 
HETATM   14  C   UNL     1      -4.218  -4.312 -34.130  1.00  0.00     0.038 A 
HETATM   15  C   UNL     1      -5.759  -1.126 -33.549  1.00  0.00     0.057 A 
HETATM   16  C   UNL     1      -6.740  -3.191 -34.814  1.00  0.00     0.014 A 
HETATM   17  C   UNL     1      -6.399  -4.496 -35.198  1.00  0.00     0.001 A 
HETATM   18  C   UNL     1      -5.158  -5.042 -34.865  1.00  0.00     0.003 A 
ENDBRANCH   7  10
ENDBRANCH   5   6
BRANCH   1  19
HETATM   19  C   UNL     1      -6.306   3.164 -31.227  1.00  0.00     0.732 A 
HETATM   20  N   UNL     1      -6.876   2.048 -31.565  1.00  0.00    -0.067 NA
HETATM   21  C   UNL     1      -8.222   1.955 -31.268  1.00  0.00     0.059 A 
HETATM   22  C   UNL     1      -8.925   2.931 -30.670  1.00  0.00     0.102 A 
HETATM   23  C   UNL     1      -8.238   4.175 -30.287  1.00  0.00     0.261 A 
HETATM   24  N   UNL     1      -6.919   4.214 -30.604  1.00  0.00    -0.152 N 
HETATM   25  O   UNL     1      -8.829   5.093 -29.737  1.00  0.00    -0.268 OA
HETATM   26  H   UNL     1      -6.390   5.052 -30.378  1.00  0.00     0.187 HD
BRANCH  21  27
HETATM   27  C   UNL     1      -8.908   0.678 -31.701  1.00  0.00     0.060 C 
BRANCH  27  28
HETATM   28  C   UNL     1      -9.784   0.890 -32.936  1.00  0.00     0.002 C 
HETATM   29  C   UNL     1      -8.994   0.669 -34.217  1.00  0.00     0.005 C 
ENDBRANCH  27  28
ENDBRANCH  21  27
ENDBRANCH   1  19
BRANCH   3  30
HETATM   30  C   UNL     1      -2.102   5.566 -31.173  1.00  0.00     0.035 A 
HETATM   31  S   UNL     1      -2.360   6.849 -30.074  1.00  0.00    -0.100 SA
HETATM   32  C   UNL     1      -0.806   7.502 -30.370  1.00  0.00     0.050 A 
HETATM   33  C   UNL     1      -0.102   6.756 -31.287  1.00  0.00     0.008 A 
HETATM   34  C   UNL     1      -0.851   5.634 -31.752  1.00  0.00     0.022 A 
ENDBRANCH   3  30
TORSDOF 6
ENDMDL
MODEL 2
REMARK VINA RESULT:      -9.3      2.021      5.678
REMARK  6 active torsions:
REMARK  status: ('A' for Active; 'I' for Inactive)
REMARK    1  A    between atoms: C_2  and  C_3 
REMARK    2  A    between atoms: C_3  and  C_4 
REMARK    3  A    between atoms: C_6  and  N_7 
REMARK    4  A    between atoms: C_9  and  C_10 
REMARK    5  A    between atoms: C_16  and  N_17 
REMARK       I    between atoms: N_17  and  C_18 
REMARK    6  A    between atoms: C_18  and  C_19 
ROOT
HETATM    1  N   UNL     1      -4.307   1.884 -32.592  1.00  0.00    -0.044 N 
HETATM    2  N   UNL     1      -3.167   2.531 -32.227  1.00  0.00    -0.150 NA
HETATM    3  C   UNL     1      -3.550   3.806 -32.071  1.00  0.00     0.099 A 
HETATM    4  C   UNL     1      -4.932   3.976 -32.331  1.00  0.00     0.086 A 
HETATM    5  C   UNL     1      -5.398   2.731 -32.683  1.00  0.00     0.152 A 
ENDROOT
BRANCH   5   6
HETATM    6  N   UNL     1      -6.677   2.356 -33.081  1.00  0.00    -0.305 N 
HETATM    7  C   UNL     1      -7.710   1.915 -32.192  1.00  0.00     0.281 C 
HETATM    8  O   UNL     1      -7.473   1.693 -31.015  1.00  0.00    -0.265 OA
HETATM    9  H   UNL     1      -6.888   2.378 -34.083  1.00  0.00     0.170 HD
BRANCH   7  10
HETATM   10  C   UNL     1      -8.988   1.760 -32.836  1.00  0.00     0.144 A 
HETATM   11  O   UNL     1      -9.419   2.729 -33.705  1.00  0.00    -0.304 OA
HETATM   12  C   UNL     1     -10.673   2.375 -34.106  1.00  0.00     0.086 A 
HETATM   13  C   UNL     1     -11.042   1.164 -33.533  1.00  0.00     0.001 A 
HETATM   14  C   UNL     1     -11.489   3.114 -34.958  1.00  0.00     0.038 A 
HETATM   15  C   UNL     1      -9.951   0.775 -32.716  1.00  0.00     0.057 A 
HETATM   16  C   UNL     1     -12.306   0.631 -33.838  1.00  0.00     0.014 A 
HETATM   17  C   UNL     1     -13.148   1.350 -34.699  1.00  0.00     0.001 A 
HETATM   18  C   UNL     1     -12.746   2.571 -35.244  1.00  0.00     0.003 A 
ENDBRANCH   7  10
ENDBRANCH   5   6
BRANCH   1  19
HETATM   19  C   UNL     1      -4.298   0.498 -32.809  1.00  0.00     0.732 A 
HETATM   20  N   UNL     1      -5.153  -0.089 -33.588  1.00  0.00    -0.067 NA
HETATM   21  C   UNL     1      -5.032  -1.463 -33.674  1.00  0.00     0.059 A 
HETATM   22  C   UNL     1      -4.104  -2.175 -33.013  1.00  0.00     0.102 A 
HETATM   23  C   UNL     1      -3.143  -1.469 -32.151  1.00  0.00     0.261 A 
HETATM   24  N   UNL     1      -3.308  -0.122 -32.101  1.00  0.00    -0.152 N 
HETATM   25  O   UNL     1      -2.276  -2.067 -31.530  1.00  0.00    -0.268 OA
HETATM   26  H   UNL     1      -2.684   0.422 -31.513  1.00  0.00     0.187 HD
BRANCH  21  27
HETATM   27  C   UNL     1      -6.054  -2.164 -34.543  1.00  0.00     0.060 C 
BRANCH  27  28
HETATM   28  C   UNL     1      -5.541  -3.511 -35.054  1.00  0.00     0.002 C 
HETATM   29  C   UNL     1      -6.687  -4.482 -35.293  1.00  0.00     0.005 C 
ENDBRANCH  27  28
ENDBRANCH  21  27
ENDBRANCH   1  19
BRANCH   3  30
HETATM   30  C   UNL     1      -2.581   4.882 -31.679  1.00  0.00     0.035 A 
HETATM   31  S   UNL     1      -2.980   6.224 -30.698  1.00  0.00    -0.100 SA
HETATM   32  C   UNL     1      -1.392   6.853 -30.798  1.00  0.00     0.050 A 
HETATM   33  C   UNL     1      -0.571   6.055 -31.563  1.00  0.00     0.008 A 
HETATM   34  C   UNL     1      -1.258   4.914 -32.072  1.00  0.00     0.022 A 
ENDBRANCH   3  30
TORSDOF 6
ENDMDL
MODEL 3
REMARK VINA RESULT:      -9.1      3.301      8.297
REMARK  6 active torsions:
REMARK  status: ('A' for Active; 'I' for Inactive)
REMARK    1  A    between atoms: C_2  and  C_3 
REMARK    2  A    between atoms: C_3  and  C_4 
REMARK    3  A    between atoms: C_6  and  N_7 
REMARK    4  A    between atoms: C_9  and  C_10 
REMARK    5  A    between atoms: C_16  and  N_17 
REMARK       I    between atoms: N_17  and  C_18 
REMARK    6  A    between atoms: C_18  and  C_19 
ROOT
HETATM    1  N   UNL     1      -8.552   0.775 -33.585  1.00  0.00    -0.044 N 
HETATM    2  N   UNL     1      -9.822   0.297 -33.489  1.00  0.00    -0.150 NA
HETATM    3  C   UNL     1     -10.592   1.384 -33.647  1.00  0.00     0.099 A 
HETATM    4  C   UNL     1      -9.818   2.553 -33.847  1.00  0.00     0.086 A 
HETATM    5  C   UNL     1      -8.507   2.143 -33.786  1.00  0.00     0.152 A 
ENDROOT
BRANCH   5   6
HETATM    6  N   UNL     1      -7.346   2.906 -33.873  1.00  0.00    -0.305 N 
HETATM    7  C   UNL     1      -6.571   3.341 -32.750  1.00  0.00     0.281 C 
HETATM    8  O   UNL     1      -6.979   3.190 -31.609  1.00  0.00    -0.265 OA
HETATM    9  H   UNL     1      -7.036   3.192 -34.806  1.00  0.00     0.170 HD
BRANCH   7  10
HETATM   10  C   UNL     1      -5.326   3.960 -33.123  1.00  0.00     0.144 A 
HETATM   11  O   UNL     1      -4.215   3.742 -32.347  1.00  0.00    -0.304 OA
HETATM   12  C   UNL     1      -3.209   4.497 -32.874  1.00  0.00     0.086 A 
HETATM   13  C   UNL     1      -3.649   5.170 -34.008  1.00  0.00     0.001 A 
HETATM   14  C   UNL     1      -1.920   4.600 -32.358  1.00  0.00     0.038 A 
HETATM   15  C   UNL     1      -5.014   4.819 -34.160  1.00  0.00     0.057 A 
HETATM   16  C   UNL     1      -2.743   5.995 -34.695  1.00  0.00     0.014 A 
HETATM   17  C   UNL     1      -1.435   6.114 -34.203  1.00  0.00     0.001 A 
HETATM   18  C   UNL     1      -1.035   5.431 -33.053  1.00  0.00     0.003 A 
ENDBRANCH   7  10
ENDBRANCH   5   6
BRANCH   1  19
HETATM   19  C   UNL     1      -7.458  -0.100 -33.505  1.00  0.00     0.732 A 
HETATM   20  N   UNL     1      -7.209  -0.987 -34.419  1.00  0.00    -0.067 NA
HETATM   21  C   UNL     1      -6.113  -1.794 -34.181  1.00  0.00     0.059 A 
HETATM   22  C   UNL     1      -5.333  -1.693 -33.092  1.00  0.00     0.102 A 
HETATM   23  C   UNL     1      -5.640  -0.663 -32.086  1.00  0.00     0.261 A 
HETATM   24  N   UNL     1      -6.728   0.098 -32.368  1.00  0.00    -0.152 N 
HETATM   25  O   UNL     1      -4.961  -0.526 -31.078  1.00  0.00    -0.268 OA
HETATM   26  H   UNL     1      -7.000   0.819 -31.706  1.00  0.00     0.187 HD
BRANCH  21  27
HETATM   27  C   UNL     1      -5.841  -2.863 -35.216  1.00  0.00     0.060 C 
BRANCH  27  28
HETATM   28  C   UNL     1      -6.224  -4.256 -34.713  1.00  0.00     0.002 C 
HETATM   29  C   UNL     1      -4.989  -5.097 -34.431  1.00  0.00     0.005 C 
ENDBRANCH  27  28
ENDBRANCH  21  27
ENDBRANCH   1  19
BRANCH   3  30
HETATM   30  C   UNL     1     -12.090   1.309 -33.593  1.00  0.00     0.035 A 
HETATM   31  S   UNL     1     -13.112   2.656 -33.345  1.00  0.00    -0.100 SA
HETATM   32  C   UNL     1     -14.519   1.686 -33.418  1.00  0.00     0.050 A 
HETATM   33  C   UNL     1     -14.217   0.359 -33.629  1.00  0.00     0.008 A 
HETATM   34  C   UNL     1     -12.812   0.141 -33.732  1.00  0.00     0.022 A 
ENDBRANCH   3  30
TORSDOF 6
ENDMDL
MODEL 4
REMARK VINA RESULT:      -9.1      3.494      8.614
REMARK  6 active torsions:
REMARK  status: ('A' for Active; 'I' for Inactive)
REMARK    1  A    between atoms: C_2  and  C_3 
REMARK    2  A    between atoms: C_3  and  C_4 
REMARK    3  A    between atoms: C_6  and  N_7 
REMARK    4  A    between atoms: C_9  and  C_10 
REMARK    5  A    between atoms: C_16  and  N_17 
REMARK       I    between atoms: N_17  and  C_18 
REMARK    6  A    between atoms: C_18  and  C_19 
ROOT
HETATM    1  N   UNL     1      -8.220   0.963 -33.666  1.00  0.00    -0.044 N 
HETATM    2  N   UNL     1      -9.484   0.467 -33.581  1.00  0.00    -0.150 NA
HETATM    3  C   UNL     1     -10.267   1.552 -33.674  1.00  0.00     0.099 A 
HETATM    4  C   UNL     1      -9.507   2.738 -33.823  1.00  0.00     0.086 A 
HETATM    5  C   UNL     1      -8.191   2.340 -33.797  1.00  0.00     0.152 A 
ENDROOT
BRANCH   5   6
HETATM    6  N   UNL     1      -7.039   3.119 -33.858  1.00  0.00    -0.305 N 
HETATM    7  C   UNL     1      -7.027   4.547 -33.964  1.00  0.00     0.281 C 
HETATM    8  O   UNL     1      -8.057   5.171 -34.165  1.00  0.00    -0.265 OA
HETATM    9  H   UNL     1      -6.138   2.634 -33.844  1.00  0.00     0.170 HD
BRANCH   7  10
HETATM   10  C   UNL     1      -5.712   5.117 -33.828  1.00  0.00     0.144 A 
HETATM   11  O   UNL     1      -4.735   4.758 -34.721  1.00  0.00    -0.304 OA
HETATM   12  C   UNL     1      -3.586   5.375 -34.322  1.00  0.00     0.086 A 
HETATM   13  C   UNL     1      -3.822   6.162 -33.200  1.00  0.00     0.001 A 
HETATM   14  C   UNL     1      -2.341   5.240 -34.930  1.00  0.00     0.038 A 
HETATM   15  C   UNL     1      -5.194   5.989 -32.889  1.00  0.00     0.057 A 
HETATM   16  C   UNL     1      -2.751   6.885 -32.647  1.00  0.00     0.014 A 
HETATM   17  C   UNL     1      -1.487   6.774 -33.243  1.00  0.00     0.001 A 
HETATM   18  C   UNL     1      -1.287   5.963 -34.361  1.00  0.00     0.003 A 
ENDBRANCH   7  10
ENDBRANCH   5   6
BRANCH   1  19
HETATM   19  C   UNL     1      -7.116   0.097 -33.644  1.00  0.00     0.732 A 
HETATM   20  N   UNL     1      -5.945   0.473 -33.231  1.00  0.00    -0.067 NA
HETATM   21  C   UNL     1      -4.954  -0.487 -33.299  1.00  0.00     0.059 A 
HETATM   22  C   UNL     1      -5.153  -1.736 -33.753  1.00  0.00     0.102 A 
HETATM   23  C   UNL     1      -6.500  -2.129 -34.197  1.00  0.00     0.261 A 
HETATM   24  N   UNL     1      -7.434  -1.147 -34.112  1.00  0.00    -0.152 N 
HETATM   25  O   UNL     1      -6.737  -3.253 -34.616  1.00  0.00    -0.268 OA
HETATM   26  H   UNL     1      -8.381  -1.351 -34.417  1.00  0.00     0.187 HD
BRANCH  21  27
HETATM   27  C   UNL     1      -3.574  -0.045 -32.865  1.00  0.00     0.060 C 
BRANCH  27  28
HETATM   28  C   UNL     1      -3.630   0.938 -31.694  1.00  0.00     0.002 C 
HETATM   29  C   UNL     1      -3.342   2.358 -32.154  1.00  0.00     0.005 C 
ENDBRANCH  27  28
ENDBRANCH  21  27
ENDBRANCH   1  19
BRANCH   3  30
HETATM   30  C   UNL     1     -11.763   1.458 -33.607  1.00  0.00     0.035 A 
HETATM   31  S   UNL     1     -12.804   2.802 -33.430  1.00  0.00    -0.100 SA
HETATM   32  C   UNL     1     -14.196   1.808 -33.440  1.00  0.00     0.050 A 
HETATM   33  C   UNL     1     -13.876   0.477 -33.578  1.00  0.00     0.008 A 
HETATM   34  C   UNL     1     -12.468   0.274 -33.677  1.00  0.00     0.022 A 
ENDBRANCH   3  30
TORSDOF 6
ENDMDL
MODEL 5
REMARK VINA RESULT:      -9.0      2.647      7.730
REMARK  6 active torsions:
REMARK  status: ('A' for Active; 'I' for Inactive)
REMARK    1  A    between atoms: C_2  and  C_3 
REMARK    2  A    between atoms: C_3  and  C_4 
REMARK    3  A    between atoms: C_6  and  N_7 
REMARK    4  A    between atoms: C_9  and  C_10 
REMARK    5  A    between atoms: C_16  and  N_17 
REMARK       I    between atoms: N_17  and  C_18 
REMARK    6  A    between atoms: C_18  and  C_19 
ROOT
HETATM    1  N   UNL     1      -6.598   0.550 -32.865  1.00  0.00    -0.044 N 
HETATM    2  N   UNL     1      -6.939  -0.714 -33.233  1.00  0.00    -0.150 NA
HETATM    3  C   UNL     1      -5.782  -1.263 -33.630  1.00  0.00     0.099 A 
HETATM    4  C   UNL     1      -4.702  -0.354 -33.513  1.00  0.00     0.086 A 
HETATM    5  C   UNL     1      -5.250   0.813 -33.037  1.00  0.00     0.152 A 
ENDROOT
BRANCH   5   6
HETATM    6  N   UNL     1      -4.631   2.035 -32.789  1.00  0.00    -0.305 N 
HETATM    7  C   UNL     1      -3.484   2.210 -31.950  1.00  0.00     0.281 C 
HETATM    8  O   UNL     1      -3.062   1.293 -31.262  1.00  0.00    -0.265 OA
HETATM    9  H   UNL     1      -5.036   2.868 -33.224  1.00  0.00     0.170 HD
BRANCH   7  10
HETATM   10  C   UNL     1      -2.935   3.540 -32.006  1.00  0.00     0.144 A 
HETATM   11  O   UNL     1      -1.763   3.805 -31.345  1.00  0.00    -0.304 OA
HETATM   12  C   UNL     1      -1.513   5.137 -31.497  1.00  0.00     0.086 A 
HETATM   13  C   UNL     1      -2.495   5.728 -32.284  1.00  0.00     0.001 A 
HETATM   14  C   UNL     1      -0.440   5.828 -30.941  1.00  0.00     0.038 A 
HETATM   15  C   UNL     1      -3.407   4.692 -32.606  1.00  0.00     0.057 A 
HETATM   16  C   UNL     1      -2.401   7.103 -32.558  1.00  0.00     0.014 A 
HETATM   17  C   UNL     1      -1.327   7.825 -32.017  1.00  0.00     0.001 A 
HETATM   18  C   UNL     1      -0.367   7.197 -31.220  1.00  0.00     0.003 A 
ENDBRANCH   7  10
ENDBRANCH   5   6
BRANCH   1  19
HETATM   19  C   UNL     1      -7.566   1.425 -32.350  1.00  0.00     0.732 A 
HETATM   20  N   UNL     1      -7.300   2.284 -31.415  1.00  0.00    -0.067 NA
HETATM   21  C   UNL     1      -8.368   3.053 -30.994  1.00  0.00     0.059 A 
HETATM   22  C   UNL     1      -9.610   2.947 -31.496  1.00  0.00     0.102 A 
HETATM   23  C   UNL     1      -9.867   1.971 -32.567  1.00  0.00     0.261 A 
HETATM   24  N   UNL     1      -8.785   1.241 -32.940  1.00  0.00    -0.152 N 
HETATM   25  O   UNL     1     -10.977   1.836 -33.061  1.00  0.00    -0.268 OA
HETATM   26  H   UNL     1      -8.900   0.540 -33.666  1.00  0.00     0.187 HD
BRANCH  21  27
HETATM   27  C   UNL     1      -8.081   4.026 -29.871  1.00  0.00     0.060 C 
BRANCH  27  28
HETATM   28  C   UNL     1      -6.992   5.031 -30.251  1.00  0.00     0.002 C 
HETATM   29  C   UNL     1      -5.711   4.775 -29.472  1.00  0.00     0.005 C 
ENDBRANCH  27  28
ENDBRANCH  21  27
ENDBRANCH   1  19
BRANCH   3  30
HETATM   30  C   UNL     1      -5.706  -2.672 -34.141  1.00  0.00     0.035 A 
HETATM   31  S   UNL     1      -4.307  -3.650 -34.059  1.00  0.00    -0.100 SA
HETATM   32  C   UNL     1      -5.097  -4.959 -34.827  1.00  0.00     0.050 A 
HETATM   33  C   UNL     1      -6.404  -4.659 -35.138  1.00  0.00     0.008 A 
HETATM   34  C   UNL     1      -6.757  -3.335 -34.740  1.00  0.00     0.022 A 
ENDBRANCH   3  30
TORSDOF 6
ENDMDL
MODEL 6
REMARK VINA RESULT:      -9.0      3.528      6.102
REMARK  6 active torsions:
REMARK  status: ('A' for Active; 'I' for Inactive)
REMARK    1  A    between atoms: C_2  and  C_3 
REMARK    2  A    between atoms: C_3  and  C_4 
REMARK    3  A    between atoms: C_6  and  N_7 
REMARK    4  A    between atoms: C_9  and  C_10 
REMARK    5  A    between atoms: C_16  and  N_17 
REMARK       I    between atoms: N_17  and  C_18 
REMARK    6  A    between atoms: C_18  and  C_19 
ROOT
HETATM    1  N   UNL     1      -7.547   3.224 -33.658  1.00  0.00    -0.044 N 
HETATM    2  N   UNL     1      -8.442   4.245 -33.759  1.00  0.00    -0.150 NA
HETATM    3  C   UNL     1      -9.620   3.629 -33.935  1.00  0.00     0.099 A 
HETATM    4  C   UNL     1      -9.482   2.220 -33.944  1.00  0.00     0.086 A 
HETATM    5  C   UNL     1      -8.137   1.979 -33.783  1.00  0.00     0.152 A 
ENDROOT
BRANCH   5   6
HETATM    6  N   UNL     1      -7.461   0.763 -33.770  1.00  0.00    -0.305 N 
HETATM    7  C   UNL     1      -6.853   0.156 -34.916  1.00  0.00     0.281 C 
HETATM    8  O   UNL     1      -7.029   0.612 -36.035  1.00  0.00    -0.265 OA
HETATM    9  H   UNL     1      -7.412   0.259 -32.880  1.00  0.00     0.170 HD
BRANCH   7  10
HETATM   10  C   UNL     1      -6.067  -1.006 -34.596  1.00  0.00     0.144 A 
HETATM   11  O   UNL     1      -6.436  -2.223 -35.110  1.00  0.00    -0.304 OA
HETATM   12  C   UNL     1      -5.579  -3.150 -34.595  1.00  0.00     0.086 A 
HETATM   13  C   UNL     1      -4.633  -2.536 -33.781  1.00  0.00     0.001 A 
HETATM   14  C   UNL     1      -5.633  -4.521 -34.828  1.00  0.00     0.038 A 
HETATM   15  C   UNL     1      -4.956  -1.156 -33.787  1.00  0.00     0.057 A 
HETATM   16  C   UNL     1      -3.655  -3.335 -33.164  1.00  0.00     0.014 A 
HETATM   17  C   UNL     1      -3.680  -4.719 -33.386  1.00  0.00     0.001 A 
HETATM   18  C   UNL     1      -4.655  -5.299 -34.201  1.00  0.00     0.003 A 
ENDBRANCH   7  10
ENDBRANCH   5   6
BRANCH   1  19
HETATM   19  C   UNL     1      -6.190   3.492 -33.426  1.00  0.00     0.732 A 
HETATM   20  N   UNL     1      -5.507   2.879 -32.508  1.00  0.00    -0.067 NA
HETATM   21  C   UNL     1      -4.190   3.276 -32.382  1.00  0.00     0.059 A 
HETATM   22  C   UNL     1      -3.620   4.226 -33.142  1.00  0.00     0.102 A 
HETATM   23  C   UNL     1      -4.424   4.887 -34.183  1.00  0.00     0.261 A 
HETATM   24  N   UNL     1      -5.710   4.461 -34.261  1.00  0.00    -0.152 N 
HETATM   25  O   UNL     1      -3.954   5.755 -34.905  1.00  0.00    -0.268 OA
HETATM   26  H   UNL     1      -6.322   4.888 -34.951  1.00  0.00     0.187 HD
BRANCH  21  27
HETATM   27  C   UNL     1      -3.398   2.602 -31.284  1.00  0.00     0.060 C 
BRANCH  27  28
HETATM   28  C   UNL     1      -3.281   1.094 -31.507  1.00  0.00     0.002 C 
HETATM   29  C   UNL     1      -4.250   0.329 -30.618  1.00  0.00     0.005 C 
ENDBRANCH  27  28
ENDBRANCH  21  27
ENDBRANCH   1  19
BRANCH   3  30
HETATM   30  C   UNL     1     -10.897   4.398 -34.110  1.00  0.00     0.035 A 
HETATM   31  S   UNL     1     -12.396   3.939 -33.429  1.00  0.00    -0.100 SA
HETATM   32  C   UNL     1     -13.196   5.285 -34.118  1.00  0.00     0.050 A 
HETATM   33  C   UNL     1     -12.338   6.072 -34.853  1.00  0.00     0.008 A 
HETATM   34  C   UNL     1     -11.007   5.559 -34.847  1.00  0.00     0.022 A 
ENDBRANCH   3  30
TORSDOF 6
ENDMDL
MODEL 7
REMARK VINA RESULT:      -8.7      3.570      6.431
REMARK  6 active torsions:
REMARK  status: ('A' for Active; 'I' for Inactive)
REMARK    1  A    between atoms: C_2  and  C_3 
REMARK    2  A    between atoms: C_3  and  C_4 
REMARK    3  A    between atoms: C_6  and  N_7 
REMARK    4  A    between atoms: C_9  and  C_10 
REMARK    5  A    between atoms: C_16  and  N_17 
REMARK       I    between atoms: N_17  and  C_18 
REMARK    6  A    between atoms: C_18  and  C_19 
ROOT
HETATM    1  N   UNL     1      -7.365   3.559 -33.898  1.00  0.00    -0.044 N 
HETATM    2  N   UNL     1      -8.234   4.577 -34.143  1.00  0.00    -0.150 NA
HETATM    3  C   UNL     1      -9.414   3.965 -34.313  1.00  0.00     0.099 A 
HETATM    4  C   UNL     1      -9.303   2.560 -34.174  1.00  0.00     0.086 A 
HETATM    5  C   UNL     1      -7.973   2.317 -33.926  1.00  0.00     0.152 A 
ENDROOT
BRANCH   5   6
HETATM    6  N   UNL     1      -7.321   1.098 -33.758  1.00  0.00    -0.305 N 
HETATM    7  C   UNL     1      -6.786   0.307 -34.826  1.00  0.00     0.281 C 
HETATM    8  O   UNL     1      -7.009   0.593 -35.992  1.00  0.00    -0.265 OA
HETATM    9  H   UNL     1      -7.237   0.734 -32.806  1.00  0.00     0.170 HD
BRANCH   7  10
HETATM   10  C   UNL     1      -6.008  -0.815 -34.369  1.00  0.00     0.144 A 
HETATM   11  O   UNL     1      -5.201  -0.663 -33.270  1.00  0.00    -0.304 OA
HETATM   12  C   UNL     1      -4.530  -1.838 -33.105  1.00  0.00     0.086 A 
HETATM   13  C   UNL     1      -4.925  -2.762 -34.064  1.00  0.00     0.001 A 
HETATM   14  C   UNL     1      -3.572  -2.092 -32.127  1.00  0.00     0.038 A 
HETATM   15  C   UNL     1      -5.878  -2.094 -34.874  1.00  0.00     0.057 A 
HETATM   16  C   UNL     1      -4.344  -4.042 -34.047  1.00  0.00     0.014 A 
HETATM   17  C   UNL     1      -3.381  -4.329 -33.069  1.00  0.00     0.001 A 
HETATM   18  C   UNL     1      -3.001  -3.369 -32.130  1.00  0.00     0.003 A 
ENDBRANCH   7  10
ENDBRANCH   5   6
BRANCH   1  19
HETATM   19  C   UNL     1      -6.015   3.829 -33.628  1.00  0.00     0.732 A 
HETATM   20  N   UNL     1      -5.279   4.551 -34.417  1.00  0.00    -0.067 NA
HETATM   21  C   UNL     1      -3.961   4.701 -34.028  1.00  0.00     0.059 A 
HETATM   22  C   UNL     1      -3.443   4.153 -32.916  1.00  0.00     0.102 A 
HETATM   23  C   UNL     1      -4.315   3.354 -32.040  1.00  0.00     0.261 A 
HETATM   24  N   UNL     1      -5.597   3.238 -32.470  1.00  0.00    -0.152 N 
HETATM   25  O   UNL     1      -3.896   2.837 -31.014  1.00  0.00    -0.268 OA
HETATM   26  H   UNL     1      -6.247   2.687 -31.916  1.00  0.00     0.187 HD
BRANCH  21  27
HETATM   27  C   UNL     1      -3.082   5.500 -34.964  1.00  0.00     0.060 C 
BRANCH  27  28
HETATM   28  C   UNL     1      -1.688   5.733 -34.380  1.00  0.00     0.002 C 
HETATM   29  C   UNL     1      -1.526   7.165 -33.896  1.00  0.00     0.005 C 
ENDBRANCH  27  28
ENDBRANCH  21  27
ENDBRANCH   1  19
BRANCH   3  30
HETATM   30  C   UNL     1     -10.667   4.730 -34.626  1.00  0.00     0.035 A 
HETATM   31  S   UNL     1     -12.247   4.155 -34.317  1.00  0.00    -0.100 SA
HETATM   32  C   UNL     1     -12.958   5.574 -34.957  1.00  0.00     0.050 A 
HETATM   33  C   UNL     1     -12.011   6.471 -35.396  1.00  0.00     0.008 A 
HETATM   34  C   UNL     1     -10.684   5.983 -35.203  1.00  0.00     0.022 A 
ENDBRANCH   3  30
TORSDOF 6
ENDMDL
MODEL 8
REMARK VINA RESULT:      -8.5      3.932      8.183
REMARK  6 active torsions:
REMARK  status: ('A' for Active; 'I' for Inactive)
REMARK    1  A    between atoms: C_2  and  C_3 
REMARK    2  A    between atoms: C_3  and  C_4 
REMARK    3  A    between atoms: C_6  and  N_7 
REMARK    4  A    between atoms: C_9  and  C_10 
REMARK    5  A    between atoms: C_16  and  N_17 
REMARK       I    between atoms: N_17  and  C_18 
REMARK    6  A    between atoms: C_18  and  C_19 
ROOT
HETATM    1  N   UNL     1      -7.033   0.557 -33.197  1.00  0.00    -0.044 N 
HETATM    2  N   UNL     1      -6.309  -0.586 -33.051  1.00  0.00    -0.150 NA
HETATM    3  C   UNL     1      -6.613  -1.305 -34.141  1.00  0.00     0.099 A 
HETATM    4  C   UNL     1      -7.524  -0.625 -34.984  1.00  0.00     0.086 A 
HETATM    5  C   UNL     1      -7.797   0.564 -34.350  1.00  0.00     0.152 A 
ENDROOT
BRANCH   5   6
HETATM    6  N   UNL     1      -8.669   1.580 -34.732  1.00  0.00    -0.305 N 
HETATM    7  C   UNL     1     -10.030   1.691 -34.298  1.00  0.00     0.281 C 
HETATM    8  O   UNL     1     -10.564   0.791 -33.668  1.00  0.00    -0.265 OA
HETATM    9  H   UNL     1      -8.317   2.286 -35.384  1.00  0.00     0.170 HD
BRANCH   7  10
HETATM   10  C   UNL     1     -10.655   2.926 -34.694  1.00  0.00     0.144 A 
HETATM   11  O   UNL     1      -9.891   4.060 -34.786  1.00  0.00    -0.304 OA
HETATM   12  C   UNL     1     -10.735   5.084 -35.100  1.00  0.00     0.086 A 
HETATM   13  C   UNL     1     -12.034   4.614 -35.250  1.00  0.00     0.001 A 
HETATM   14  C   UNL     1     -10.369   6.420 -35.243  1.00  0.00     0.038 A 
HETATM   15  C   UNL     1     -11.973   3.222 -34.986  1.00  0.00     0.057 A 
HETATM   16  C   UNL     1     -13.047   5.528 -35.584  1.00  0.00     0.014 A 
HETATM   17  C   UNL     1     -12.708   6.879 -35.741  1.00  0.00     0.001 A 
HETATM   18  C   UNL     1     -11.393   7.315 -35.569  1.00  0.00     0.003 A 
ENDBRANCH   7  10
ENDBRANCH   5   6
BRANCH   1  19
HETATM   19  C   UNL     1      -6.937   1.584 -32.245  1.00  0.00     0.732 A 
HETATM   20  N   UNL     1      -7.982   2.126 -31.699  1.00  0.00    -0.067 NA
HETATM   21  C   UNL     1      -7.722   3.145 -30.803  1.00  0.00     0.059 A 
HETATM   22  C   UNL     1      -6.486   3.570 -30.492  1.00  0.00     0.102 A 
HETATM   23  C   UNL     1      -5.326   2.918 -31.121  1.00  0.00     0.261 A 
HETATM   24  N   UNL     1      -5.639   1.926 -31.994  1.00  0.00    -0.152 N 
HETATM   25  O   UNL     1      -4.180   3.263 -30.871  1.00  0.00    -0.268 OA
HETATM   26  H   UNL     1      -4.882   1.445 -32.473  1.00  0.00     0.187 HD
BRANCH  21  27
HETATM   27  C   UNL     1      -8.934   3.817 -30.196  1.00  0.00     0.060 C 
BRANCH  27  28
HETATM   28  C   UNL     1      -9.726   4.612 -31.235  1.00  0.00     0.002 C 
HETATM   29  C   UNL     1     -11.173   4.146 -31.298  1.00  0.00     0.005 C 
ENDBRANCH  27  28
ENDBRANCH  21  27
ENDBRANCH   1  19
BRANCH   3  30
HETATM   30  C   UNL     1      -6.033  -2.670 -34.376  1.00  0.00     0.035 A 
HETATM   31  S   UNL     1      -4.416  -3.101 -34.028  1.00  0.00    -0.100 SA
HETATM   32  C   UNL     1      -4.653  -4.700 -34.587  1.00  0.00     0.050 A 
HETATM   33  C   UNL     1      -5.941  -4.905 -35.029  1.00  0.00     0.008 A 
HETATM   34  C   UNL     1      -6.740  -3.730 -34.906  1.00  0.00     0.022 A 
ENDBRANCH   3  30
TORSDOF 6
ENDMDL
MODEL 9
REMARK VINA RESULT:      -8.1      3.885      8.233
REMARK  6 active torsions:
REMARK  status: ('A' for Active; 'I' for Inactive)
REMARK    1  A    between atoms: C_2  and  C_3 
REMARK    2  A    between atoms: C_3  and  C_4 
REMARK    3  A    between atoms: C_6  and  N_7 
REMARK    4  A    between atoms: C_9  and  C_10 
REMARK    5  A    between atoms: C_16  and  N_17 
REMARK       I    between atoms: N_17  and  C_18 
REMARK    6  A    between atoms: C_18  and  C_19 
ROOT
HETATM    1  N   UNL     1      -7.530   1.318 -32.307  1.00  0.00    -0.044 N 
HETATM    2  N   UNL     1      -6.484   0.510 -32.631  1.00  0.00    -0.150 NA
HETATM    3  C   UNL     1      -7.050  -0.503 -33.302  1.00  0.00     0.099 A 
HETATM    4  C   UNL     1      -8.453  -0.343 -33.412  1.00  0.00     0.086 A 
HETATM    5  C   UNL     1      -8.745   0.825 -32.748  1.00  0.00     0.152 A 
ENDROOT
BRANCH   5   6
HETATM    6  N   UNL     1      -9.984   1.416 -32.519  1.00  0.00    -0.305 N 
HETATM    7  C   UNL     1     -10.671   2.257 -33.453  1.00  0.00     0.281 C 
HETATM    8  O   UNL     1     -10.123   2.638 -34.476  1.00  0.00    -0.265 OA
HETATM    9  H   UNL     1     -10.426   1.252 -31.611  1.00  0.00     0.170 HD
BRANCH   7  10
HETATM   10  C   UNL     1     -12.010   2.590 -33.043  1.00  0.00     0.144 A 
HETATM   11  O   UNL     1     -13.009   1.666 -33.214  1.00  0.00    -0.304 OA
HETATM   12  C   UNL     1     -14.171   2.260 -32.819  1.00  0.00     0.086 A 
HETATM   13  C   UNL     1     -13.926   3.547 -32.357  1.00  0.00     0.001 A 
HETATM   14  C   UNL     1     -15.435   1.679 -32.874  1.00  0.00     0.038 A 
HETATM   15  C   UNL     1     -12.531   3.752 -32.505  1.00  0.00     0.057 A 
HETATM   16  C   UNL     1     -15.009   4.315 -31.897  1.00  0.00     0.014 A 
HETATM   17  C   UNL     1     -16.294   3.755 -31.934  1.00  0.00     0.001 A 
HETATM   18  C   UNL     1     -16.501   2.462 -32.418  1.00  0.00     0.003 A 
ENDBRANCH   7  10
ENDBRANCH   5   6
BRANCH   1  19
HETATM   19  C   UNL     1      -7.310   2.521 -31.619  1.00  0.00     0.732 A 
HETATM   20  N   UNL     1      -8.271   3.185 -31.054  1.00  0.00    -0.067 NA
HETATM   21  C   UNL     1      -7.897   4.366 -30.442  1.00  0.00     0.059 A 
HETATM   22  C   UNL     1      -6.635   4.826 -30.412  1.00  0.00     0.102 A 
HETATM   23  C   UNL     1      -5.571   4.035 -31.052  1.00  0.00     0.261 A 
HETATM   24  N   UNL     1      -5.994   2.887 -31.639  1.00  0.00    -0.152 N 
HETATM   25  O   UNL     1      -4.406   4.406 -31.051  1.00  0.00    -0.268 OA
HETATM   26  H   UNL     1      -5.309   2.302 -32.110  1.00  0.00     0.187 HD
BRANCH  21  27
HETATM   27  C   UNL     1      -9.016   5.172 -29.821  1.00  0.00     0.060 C 
BRANCH  27  28
HETATM   28  C   UNL     1      -9.144   6.557 -30.456  1.00  0.00     0.002 C 
HETATM   29  C   UNL     1     -10.260   6.588 -31.489  1.00  0.00     0.005 C 
ENDBRANCH  27  28
ENDBRANCH  21  27
ENDBRANCH   1  19
BRANCH   3  30
HETATM   30  C   UNL     1      -6.242  -1.649 -33.837  1.00  0.00     0.035 A 
HETATM   31  S   UNL     1      -4.551  -1.806 -33.644  1.00  0.00    -0.100 SA
HETATM   32  C   UNL     1      -4.522  -3.278 -34.516  1.00  0.00     0.050 A 
HETATM   33  C   UNL     1      -5.777  -3.646 -34.944  1.00  0.00     0.008 A 
HETATM   34  C   UNL     1      -6.773  -2.704 -34.550  1.00  0.00     0.022 A 
ENDBRANCH   3  30
TORSDOF 6
ENDMDL
MODEL 10
REMARK VINA RESULT:      -8.0      3.372      8.008
REMARK  6 active torsions:
REMARK  status: ('A' for Active; 'I' for Inactive)
REMARK    1  A    between atoms: C_2  and  C_3 
REMARK    2  A    between atoms: C_3  and  C_4 
REMARK    3  A    between atoms: C_6  and  N_7 
REMARK    4  A    between atoms: C_9  and  C_10 
REMARK    5  A    between atoms: C_16  and  N_17 
REMARK       I    between atoms: N_17  and  C_18 
REMARK    6  A    between atoms: C_18  and  C_19 
ROOT
HETATM    1  N   UNL     1      -7.710   2.985 -33.134  1.00  0.00    -0.044 N 
HETATM    2  N   UNL     1      -9.002   2.892 -33.552  1.00  0.00    -0.150 NA
HETATM    3  C   UNL     1      -9.330   4.150 -33.879  1.00  0.00     0.099 A 
HETATM    4  C   UNL     1      -8.252   5.045 -33.676  1.00  0.00     0.086 A 
HETATM    5  C   UNL     1      -7.224   4.279 -33.178  1.00  0.00     0.152 A 
ENDROOT
BRANCH   5   6
HETATM    6  N   UNL     1      -5.955   4.677 -32.767  1.00  0.00    -0.305 N 
HETATM    7  C   UNL     1      -4.887   5.036 -33.651  1.00  0.00     0.281 C 
HETATM    8  O   UNL     1      -4.985   4.865 -34.856  1.00  0.00    -0.265 OA
HETATM    9  H   UNL     1      -5.768   4.695 -31.760  1.00  0.00     0.170 HD
BRANCH   7  10
HETATM   10  C   UNL     1      -3.741   5.580 -32.969  1.00  0.00     0.144 A 
HETATM   11  O   UNL     1      -2.582   4.848 -32.928  1.00  0.00    -0.304 OA
HETATM   12  C   UNL     1      -1.695   5.551 -32.167  1.00  0.00     0.086 A 
HETATM   13  C   UNL     1      -2.259   6.751 -31.748  1.00  0.00     0.001 A 
HETATM   14  C   UNL     1      -0.408   5.138 -31.835  1.00  0.00     0.038 A 
HETATM   15  C   UNL     1      -3.578   6.760 -32.270  1.00  0.00     0.057 A 
HETATM   16  C   UNL     1      -1.488   7.618 -30.956  1.00  0.00     0.014 A 
HETATM   17  C   UNL     1      -0.184   7.232 -30.611  1.00  0.00     0.001 A 
HETATM   18  C   UNL     1       0.342   6.012 -31.041  1.00  0.00     0.003 A 
ENDBRANCH   7  10
ENDBRANCH   5   6
BRANCH   1  19
HETATM   19  C   UNL     1      -7.008   1.835 -32.742  1.00  0.00     0.732 A 
HETATM   20  N   UNL     1      -6.600   0.945 -33.594  1.00  0.00    -0.067 NA
HETATM   21  C   UNL     1      -5.949  -0.145 -33.048  1.00  0.00     0.059 A 
HETATM   22  C   UNL     1      -5.733  -0.305 -31.732  1.00  0.00     0.102 A 
HETATM   23  C   UNL     1      -6.197   0.736 -30.800  1.00  0.00     0.261 A 
HETATM   24  N   UNL     1      -6.832   1.782 -31.389  1.00  0.00    -0.152 N 
HETATM   25  O   UNL     1      -6.023   0.643 -29.593  1.00  0.00    -0.268 OA
HETATM   26  H   UNL     1      -7.188   2.528 -30.798  1.00  0.00     0.187 HD
BRANCH  21  27
HETATM   27  C   UNL     1      -5.512  -1.212 -34.027  1.00  0.00     0.060 C 
BRANCH  27  28
HETATM   28  C   UNL     1      -4.341  -2.036 -33.489  1.00  0.00     0.002 C 
HETATM   29  C   UNL     1      -4.279  -3.403 -34.152  1.00  0.00     0.005 C 
ENDBRANCH  27  28
ENDBRANCH  21  27
ENDBRANCH   1  19
BRANCH   3  30
HETATM   30  C   UNL     1     -10.698   4.507 -34.382  1.00  0.00     0.035 A 
HETATM   31  S   UNL     1     -11.704   5.693 -33.672  1.00  0.00    -0.100 SA
HETATM   32  C   UNL     1     -12.948   5.415 -34.813  1.00  0.00     0.050 A 
HETATM   33  C   UNL     1     -12.604   4.439 -35.721  1.00  0.00     0.008 A 
HETATM   34  C   UNL     1     -11.301   3.914 -35.472  1.00  0.00     0.022 A 
ENDBRANCH   3  30
TORSDOF 6
ENDMDL
