MODEL 1
REMARK VINA RESULT:      -8.9      0.000      0.000
REMARK  3 active torsions:
REMARK  status: ('A' for Active; 'I' for Inactive)
REMARK    1  A    between atoms: C_3  and  N_4 
REMARK       I    between atoms: N_7  and  C_8 
REMARK    2  A    between atoms: C_8  and  C_9 
REMARK    3  A    between atoms: C_23  and  O_24 
ROOT
HETATM    1  N   UNL     1      -6.287  -0.604 -33.735  1.00  0.00    -0.278 NA
HETATM    2  C   UNL     1      -6.767  -0.387 -32.345  1.00  0.00     0.115 C 
HETATM    3  C   UNL     1      -6.954   1.116 -32.066  1.00  0.00     0.141 C 
HETATM    4  N   UNL     1      -7.826   1.741 -33.070  1.00  0.00    -0.346 N 
HETATM    5  C   UNL     1      -8.654   2.781 -32.655  1.00  0.00     0.256 C 
HETATM    6  O   UNL     1      -8.633   3.230 -31.510  1.00  0.00    -0.267 OA
HETATM    7  C   UNL     1      -7.380   1.511 -34.453  1.00  0.00     0.141 C 
HETATM    8  C   UNL     1      -7.200   0.007 -34.744  1.00  0.00     0.115 C 
ENDROOT
BRANCH   5   9
HETATM    9  C   UNL     1      -9.638   3.362 -33.594  1.00  0.00     0.064 A 
HETATM   10  C   UNL     1     -10.835   2.716 -33.844  1.00  0.00     0.077 A 
HETATM   11  C   UNL     1     -11.773   3.226 -34.745  1.00  0.00     0.065 A 
HETATM   12  N   UNL     1     -11.344   1.516 -33.340  1.00  0.00    -0.330 N 
HETATM   13  N   UNL     1     -12.856   2.350 -34.786  1.00  0.00    -0.331 N 
HETATM   14  C   UNL     1     -11.563   4.387 -35.449  1.00  0.00     0.074 A 
HETATM   15  C   UNL     1     -12.586   1.273 -33.932  1.00  0.00     0.176 A 
HETATM   16  H   UNL     1     -13.679   2.430 -35.365  1.00  0.00     0.168 HD
HETATM   17  S   UNL     1     -13.550  -0.040 -33.690  1.00  0.00    -0.041 SA
HETATM   18  C   UNL     1     -10.342   5.023 -35.235  1.00  0.00     0.119 A 
HETATM   19  F   UNL     1     -10.068   6.148 -35.909  1.00  0.00    -0.206 F 
HETATM   20  C   UNL     1      -9.378   4.522 -34.339  1.00  0.00     0.061 A 
HETATM   21  H   UNL     1     -10.840   0.889 -32.724  1.00  0.00     0.168 HD
ENDBRANCH   5   9
BRANCH   1  22
HETATM   22  C   UNL     1      -6.023  -1.957 -34.073  1.00  0.00     0.044 A 
HETATM   23  C   UNL     1      -6.977  -2.856 -34.563  1.00  0.00     0.026 A 
HETATM   24  C   UNL     1      -6.614  -4.163 -34.910  1.00  0.00     0.002 A 
HETATM   25  C   UNL     1      -5.292  -4.591 -34.778  1.00  0.00     0.003 A 
HETATM   26  C   UNL     1      -4.326  -3.717 -34.288  1.00  0.00     0.038 A 
HETATM   27  C   UNL     1      -4.702  -2.427 -33.937  1.00  0.00     0.087 A 
BRANCH  27  28
HETATM   28  O   UNL     1      -3.757  -1.587 -33.407  1.00  0.00    -0.359 OA
HETATM   29  H   UNL     1      -3.593  -1.979 -32.526  1.00  0.00     0.218 HD
ENDBRANCH  27  28
ENDBRANCH   1  22
TORSDOF 3
ENDMDL
MODEL 2
REMARK VINA RESULT:      -8.9      5.563      6.839
REMARK  3 active torsions:
REMARK  status: ('A' for Active; 'I' for Inactive)
REMARK    1  A    between atoms: C_3  and  N_4 
REMARK       I    between atoms: N_7  and  C_8 
REMARK    2  A    between atoms: C_8  and  C_9 
REMARK    3  A    between atoms: C_23  and  O_24 
ROOT
HETATM    1  N   UNL     1      -4.758  -1.234 -32.694  1.00  0.00    -0.278 NA
HETATM    2  C   UNL     1      -5.823  -0.491 -31.969  1.00  0.00     0.115 C 
HETATM    3  C   UNL     1      -5.213   0.640 -31.121  1.00  0.00     0.141 C 
HETATM    4  N   UNL     1      -4.366   1.521 -31.937  1.00  0.00    -0.346 N 
HETATM    5  C   UNL     1      -4.327   2.874 -31.609  1.00  0.00     0.256 C 
HETATM    6  O   UNL     1      -4.917   3.337 -30.635  1.00  0.00    -0.267 OA
HETATM    7  C   UNL     1      -3.324   0.798 -32.685  1.00  0.00     0.141 C 
HETATM    8  C   UNL     1      -3.928  -0.331 -33.543  1.00  0.00     0.115 C 
ENDROOT
BRANCH   5   9
HETATM    9  C   UNL     1      -3.589   3.823 -32.471  1.00  0.00     0.064 A 
HETATM   10  C   UNL     1      -2.441   4.441 -32.012  1.00  0.00     0.077 A 
HETATM   11  C   UNL     1      -1.738   5.361 -32.793  1.00  0.00     0.065 A 
HETATM   12  N   UNL     1      -1.780   4.337 -30.785  1.00  0.00    -0.330 N 
HETATM   13  N   UNL     1      -0.645   5.812 -32.054  1.00  0.00    -0.331 N 
HETATM   14  C   UNL     1      -2.146   5.722 -34.054  1.00  0.00     0.074 A 
HETATM   15  C   UNL     1      -0.679   5.196 -30.796  1.00  0.00     0.176 A 
HETATM   16  H   UNL     1       0.034   6.503 -32.336  1.00  0.00     0.168 HD
HETATM   17  S   UNL     1       0.378   5.456 -29.560  1.00  0.00    -0.041 SA
HETATM   18  C   UNL     1      -3.326   5.135 -34.509  1.00  0.00     0.119 A 
HETATM   19  F   UNL     1      -3.789   5.464 -35.722  1.00  0.00    -0.206 F 
HETATM   20  C   UNL     1      -4.056   4.213 -33.735  1.00  0.00     0.061 A 
HETATM   21  H   UNL     1      -2.113   3.799 -29.994  1.00  0.00     0.168 HD
ENDBRANCH   5   9
BRANCH   1  22
HETATM   22  C   UNL     1      -5.213  -2.340 -33.456  1.00  0.00     0.044 A 
HETATM   23  C   UNL     1      -6.406  -2.367 -34.187  1.00  0.00     0.026 A 
HETATM   24  C   UNL     1      -6.753  -3.491 -34.947  1.00  0.00     0.002 A 
HETATM   25  C   UNL     1      -5.911  -4.604 -34.993  1.00  0.00     0.003 A 
HETATM   26  C   UNL     1      -4.721  -4.603 -34.269  1.00  0.00     0.038 A 
HETATM   27  C   UNL     1      -4.395  -3.486 -33.512  1.00  0.00     0.087 A 
BRANCH  27  28
HETATM   28  O   UNL     1      -3.248  -3.511 -32.762  1.00  0.00    -0.359 OA
HETATM   29  H   UNL     1      -2.577  -3.170 -33.388  1.00  0.00     0.218 HD
ENDBRANCH  27  28
ENDBRANCH   1  22
TORSDOF 3
ENDMDL
MODEL 3
REMARK VINA RESULT:      -8.7      2.353      2.807
REMARK  3 active torsions:
REMARK  status: ('A' for Active; 'I' for Inactive)
REMARK    1  A    between atoms: C_3  and  N_4 
REMARK       I    between atoms: N_7  and  C_8 
REMARK    2  A    between atoms: C_8  and  C_9 
REMARK    3  A    between atoms: C_23  and  O_24 
ROOT
HETATM    1  N   UNL     1      -6.421  -1.014 -34.077  1.00  0.00    -0.278 NA
HETATM    2  C   UNL     1      -6.641  -0.583 -32.672  1.00  0.00     0.115 C 
HETATM    3  C   UNL     1      -7.133   0.875 -32.624  1.00  0.00     0.141 C 
HETATM    4  N   UNL     1      -8.323   1.065 -33.466  1.00  0.00    -0.346 N 
HETATM    5  C   UNL     1      -9.279   1.985 -33.044  1.00  0.00     0.256 C 
HETATM    6  O   UNL     1      -9.132   2.680 -32.040  1.00  0.00    -0.267 OA
HETATM    7  C   UNL     1      -8.131   0.616 -34.854  1.00  0.00     0.141 C 
HETATM    8  C   UNL     1      -7.646  -0.847 -34.911  1.00  0.00     0.115 C 
ENDROOT
BRANCH   5   9
HETATM    9  C   UNL     1     -10.549   2.125 -33.788  1.00  0.00     0.064 A 
HETATM   10  C   UNL     1     -10.878   3.322 -34.396  1.00  0.00     0.077 A 
HETATM   11  C   UNL     1     -12.083   3.492 -35.083  1.00  0.00     0.065 A 
HETATM   12  N   UNL     1     -10.186   4.534 -34.454  1.00  0.00    -0.330 N 
HETATM   13  N   UNL     1     -12.125   4.798 -35.568  1.00  0.00    -0.331 N 
HETATM   14  C   UNL     1     -13.020   2.493 -35.186  1.00  0.00     0.074 A 
HETATM   15  C   UNL     1     -10.959   5.458 -35.161  1.00  0.00     0.176 A 
HETATM   16  H   UNL     1     -12.879   5.230 -36.080  1.00  0.00     0.168 HD
HETATM   17  S   UNL     1     -10.585   7.036 -35.451  1.00  0.00    -0.041 SA
HETATM   18  C   UNL     1     -12.716   1.296 -34.540  1.00  0.00     0.119 A 
HETATM   19  F   UNL     1     -13.600   0.291 -34.584  1.00  0.00    -0.206 F 
HETATM   20  C   UNL     1     -11.513   1.106 -33.834  1.00  0.00     0.061 A 
HETATM   21  H   UNL     1      -9.315   4.724 -33.972  1.00  0.00     0.168 HD
ENDBRANCH   5   9
BRANCH   1  22
HETATM   22  C   UNL     1      -5.905  -2.328 -34.227  1.00  0.00     0.044 A 
HETATM   23  C   UNL     1      -6.641  -3.425 -34.688  1.00  0.00     0.026 A 
HETATM   24  C   UNL     1      -6.034  -4.677 -34.844  1.00  0.00     0.002 A 
HETATM   25  C   UNL     1      -4.681  -4.852 -34.546  1.00  0.00     0.003 A 
HETATM   26  C   UNL     1      -3.930  -3.777 -34.081  1.00  0.00     0.038 A 
HETATM   27  C   UNL     1      -4.547  -2.543 -33.921  1.00  0.00     0.087 A 
BRANCH  27  28
HETATM   28  O   UNL     1      -3.814  -1.501 -33.414  1.00  0.00    -0.359 OA
HETATM   29  H   UNL     1      -3.634  -1.793 -32.498  1.00  0.00     0.218 HD
ENDBRANCH  27  28
ENDBRANCH   1  22
TORSDOF 3
ENDMDL
MODEL 4
REMARK VINA RESULT:      -8.6      6.643      8.344
REMARK  3 active torsions:
REMARK  status: ('A' for Active; 'I' for Inactive)
REMARK    1  A    between atoms: C_3  and  N_4 
REMARK       I    between atoms: N_7  and  C_8 
REMARK    2  A    between atoms: C_8  and  C_9 
REMARK    3  A    between atoms: C_23  and  O_24 
ROOT
HETATM    1  N   UNL     1      -5.658   1.885 -32.203  1.00  0.00    -0.278 NA
HETATM    2  C   UNL     1      -6.502   3.087 -31.973  1.00  0.00     0.115 C 
HETATM    3  C   UNL     1      -5.889   3.978 -30.877  1.00  0.00     0.141 C 
HETATM    4  N   UNL     1      -4.493   4.320 -31.186  1.00  0.00    -0.346 N 
HETATM    5  C   UNL     1      -4.027   5.571 -30.793  1.00  0.00     0.256 C 
HETATM    6  O   UNL     1      -4.714   6.363 -30.149  1.00  0.00    -0.267 OA
HETATM    7  C   UNL     1      -3.650   3.142 -31.446  1.00  0.00     0.141 C 
HETATM    8  C   UNL     1      -4.253   2.249 -32.548  1.00  0.00     0.115 C 
ENDROOT
BRANCH   5   9
HETATM    9  C   UNL     1      -2.672   6.013 -31.187  1.00  0.00     0.064 A 
HETATM   10  C   UNL     1      -1.743   6.369 -30.227  1.00  0.00     0.077 A 
HETATM   11  C   UNL     1      -0.464   6.815 -30.570  1.00  0.00     0.065 A 
HETATM   12  N   UNL     1      -1.840   6.397 -28.833  1.00  0.00    -0.330 N 
HETATM   13  N   UNL     1       0.223   7.105 -29.392  1.00  0.00    -0.331 N 
HETATM   14  C   UNL     1      -0.052   6.942 -31.874  1.00  0.00     0.074 A 
HETATM   15  C   UNL     1      -0.634   6.869 -28.310  1.00  0.00     0.176 A 
HETATM   16  H   UNL     1       1.159   7.474 -29.312  1.00  0.00     0.168 HD
HETATM   17  S   UNL     1      -0.283   7.121 -26.721  1.00  0.00    -0.041 SA
HETATM   18  C   UNL     1      -0.996   6.624 -32.850  1.00  0.00     0.119 A 
HETATM   19  F   UNL     1      -0.663   6.750 -34.141  1.00  0.00    -0.206 F 
HETATM   20  C   UNL     1      -2.293   6.183 -32.527  1.00  0.00     0.061 A 
HETATM   21  H   UNL     1      -2.685   6.200 -28.310  1.00  0.00     0.168 HD
ENDBRANCH   5   9
BRANCH   1  22
HETATM   22  C   UNL     1      -6.171   0.965 -33.153  1.00  0.00     0.044 A 
HETATM   23  C   UNL     1      -6.651   1.314 -34.420  1.00  0.00     0.026 A 
HETATM   24  C   UNL     1      -7.100   0.330 -35.310  1.00  0.00     0.002 A 
HETATM   25  C   UNL     1      -7.073  -1.019 -34.948  1.00  0.00     0.003 A 
HETATM   26  C   UNL     1      -6.605  -1.389 -33.691  1.00  0.00     0.038 A 
HETATM   27  C   UNL     1      -6.173  -0.402 -32.815  1.00  0.00     0.087 A 
BRANCH  27  28
HETATM   28  O   UNL     1      -5.761  -0.770 -31.560  1.00  0.00    -0.359 OA
HETATM   29  H   UNL     1      -6.116  -0.050 -31.000  1.00  0.00     0.218 HD
ENDBRANCH  27  28
ENDBRANCH   1  22
TORSDOF 3
ENDMDL
MODEL 5
REMARK VINA RESULT:      -7.9      1.526      1.666
REMARK  3 active torsions:
REMARK  status: ('A' for Active; 'I' for Inactive)
REMARK    1  A    between atoms: C_3  and  N_4 
REMARK       I    between atoms: N_7  and  C_8 
REMARK    2  A    between atoms: C_8  and  C_9 
REMARK    3  A    between atoms: C_23  and  O_24 
ROOT
HETATM    1  N   UNL     1      -6.135  -0.107 -32.883  1.00  0.00    -0.278 NA
HETATM    2  C   UNL     1      -6.681  -0.197 -31.503  1.00  0.00     0.115 C 
HETATM    3  C   UNL     1      -6.728   1.195 -30.847  1.00  0.00     0.141 C 
HETATM    4  N   UNL     1      -7.462   2.155 -31.683  1.00  0.00    -0.346 N 
HETATM    5  C   UNL     1      -8.203   3.144 -31.042  1.00  0.00     0.256 C 
HETATM    6  O   UNL     1      -8.211   3.279 -29.820  1.00  0.00    -0.267 OA
HETATM    7  C   UNL     1      -6.953   2.234 -33.062  1.00  0.00     0.141 C 
HETATM    8  C   UNL     1      -6.911   0.845 -33.729  1.00  0.00     0.115 C 
ENDROOT
BRANCH   5   9
HETATM    9  C   UNL     1      -9.058   4.056 -31.832  1.00  0.00     0.064 A 
HETATM   10  C   UNL     1     -10.176   3.578 -32.488  1.00  0.00     0.077 A 
HETATM   11  C   UNL     1     -10.988   4.410 -33.262  1.00  0.00     0.065 A 
HETATM   12  N   UNL     1     -10.707   2.287 -32.559  1.00  0.00    -0.330 N 
HETATM   13  N   UNL     1     -12.017   3.637 -33.797  1.00  0.00    -0.331 N 
HETATM   14  C   UNL     1     -10.722   5.747 -33.434  1.00  0.00     0.074 A 
HETATM   15  C   UNL     1     -11.835   2.312 -33.382  1.00  0.00     0.176 A 
HETATM   16  H   UNL     1     -12.746   3.947 -34.422  1.00  0.00     0.168 HD
HETATM   17  S   UNL     1     -12.772   1.025 -33.806  1.00  0.00    -0.041 SA
HETATM   18  C   UNL     1      -9.573   6.230 -32.810  1.00  0.00     0.119 A 
HETATM   19  F   UNL     1      -9.246   7.520 -32.959  1.00  0.00    -0.206 F 
HETATM   20  C   UNL     1      -8.735   5.407 -32.034  1.00  0.00     0.061 A 
HETATM   21  H   UNL     1     -10.276   1.463 -32.156  1.00  0.00     0.168 HD
ENDBRANCH   5   9
BRANCH   1  22
HETATM   22  C   UNL     1      -5.992  -1.350 -33.552  1.00  0.00     0.044 A 
HETATM   23  C   UNL     1      -7.046  -2.073 -34.123  1.00  0.00     0.026 A 
HETATM   24  C   UNL     1      -6.803  -3.272 -34.803  1.00  0.00     0.002 A 
HETATM   25  C   UNL     1      -5.503  -3.767 -34.927  1.00  0.00     0.003 A 
HETATM   26  C   UNL     1      -4.439  -3.068 -34.362  1.00  0.00     0.038 A 
HETATM   27  C   UNL     1      -4.696  -1.886 -33.682  1.00  0.00     0.087 A 
BRANCH  27  28
HETATM   28  O   UNL     1      -3.651  -1.229 -33.085  1.00  0.00    -0.359 OA
HETATM   29  H   UNL     1      -4.069  -0.844 -32.288  1.00  0.00     0.218 HD
ENDBRANCH  27  28
ENDBRANCH   1  22
TORSDOF 3
ENDMDL
MODEL 6
REMARK VINA RESULT:      -7.8      6.786      8.639
REMARK  3 active torsions:
REMARK  status: ('A' for Active; 'I' for Inactive)
REMARK    1  A    between atoms: C_3  and  N_4 
REMARK       I    between atoms: N_7  and  C_8 
REMARK    2  A    between atoms: C_8  and  C_9 
REMARK    3  A    between atoms: C_23  and  O_24 
ROOT
HETATM    1  N   UNL     1      -5.596   2.325 -32.577  1.00  0.00    -0.278 NA
HETATM    2  C   UNL     1      -5.434   3.338 -33.653  1.00  0.00     0.115 C 
HETATM    3  C   UNL     1      -5.177   4.732 -33.052  1.00  0.00     0.141 C 
HETATM    4  N   UNL     1      -4.039   4.710 -32.121  1.00  0.00    -0.346 N 
HETATM    5  C   UNL     1      -3.236   5.844 -32.048  1.00  0.00     0.256 C 
HETATM    6  O   UNL     1      -3.481   6.872 -32.678  1.00  0.00    -0.267 OA
HETATM    7  C   UNL     1      -4.170   3.692 -31.066  1.00  0.00     0.141 C 
HETATM    8  C   UNL     1      -4.420   2.292 -31.661  1.00  0.00     0.115 C 
ENDROOT
BRANCH   5   9
HETATM    9  C   UNL     1      -2.010   5.830 -31.221  1.00  0.00     0.064 A 
HETATM   10  C   UNL     1      -1.962   6.522 -30.026  1.00  0.00     0.077 A 
HETATM   11  C   UNL     1      -0.809   6.548 -29.236  1.00  0.00     0.065 A 
HETATM   12  N   UNL     1      -2.929   7.301 -29.385  1.00  0.00    -0.330 N 
HETATM   13  N   UNL     1      -1.071   7.331 -28.113  1.00  0.00    -0.331 N 
HETATM   14  C   UNL     1       0.349   5.906 -29.601  1.00  0.00     0.074 A 
HETATM   15  C   UNL     1      -2.380   7.820 -28.211  1.00  0.00     0.176 A 
HETATM   16  H   UNL     1      -0.426   7.563 -27.372  1.00  0.00     0.168 HD
HETATM   17  S   UNL     1      -3.119   8.834 -27.144  1.00  0.00    -0.041 SA
HETATM   18  C   UNL     1       0.323   5.241 -30.825  1.00  0.00     0.119 A 
HETATM   19  F   UNL     1       1.429   4.615 -31.248  1.00  0.00    -0.206 F 
HETATM   20  C   UNL     1      -0.824   5.209 -31.641  1.00  0.00     0.061 A 
HETATM   21  H   UNL     1      -3.839   7.523 -29.772  1.00  0.00     0.168 HD
ENDBRANCH   5   9
BRANCH   1  22
HETATM   22  C   UNL     1      -5.901   1.015 -33.028  1.00  0.00     0.044 A 
HETATM   23  C   UNL     1      -4.949   0.029 -33.311  1.00  0.00     0.026 A 
HETATM   24  C   UNL     1      -5.346  -1.253 -33.711  1.00  0.00     0.002 A 
HETATM   25  C   UNL     1      -6.701  -1.571 -33.830  1.00  0.00     0.003 A 
HETATM   26  C   UNL     1      -7.665  -0.605 -33.560  1.00  0.00     0.038 A 
HETATM   27  C   UNL     1      -7.257   0.665 -33.174  1.00  0.00     0.087 A 
BRANCH  27  28
HETATM   28  O   UNL     1      -8.211   1.626 -32.958  1.00  0.00    -0.359 OA
HETATM   29  H   UNL     1      -9.045   1.129 -33.082  1.00  0.00     0.218 HD
ENDBRANCH  27  28
ENDBRANCH   1  22
TORSDOF 3
ENDMDL
MODEL 7
REMARK VINA RESULT:      -7.8      5.330      7.807
REMARK  3 active torsions:
REMARK  status: ('A' for Active; 'I' for Inactive)
REMARK    1  A    between atoms: C_3  and  N_4 
REMARK       I    between atoms: N_7  and  C_8 
REMARK    2  A    between atoms: C_8  and  C_9 
REMARK    3  A    between atoms: C_23  and  O_24 
ROOT
HETATM    1  N   UNL     1      -3.609   5.218 -31.874  1.00  0.00    -0.278 NA
HETATM    2  C   UNL     1      -4.400   4.831 -30.676  1.00  0.00     0.115 C 
HETATM    3  C   UNL     1      -5.827   4.417 -31.079  1.00  0.00     0.141 C 
HETATM    4  N   UNL     1      -5.808   3.367 -32.107  1.00  0.00    -0.346 N 
HETATM    5  C   UNL     1      -6.822   2.414 -32.082  1.00  0.00     0.256 C 
HETATM    6  O   UNL     1      -7.755   2.458 -31.282  1.00  0.00    -0.267 OA
HETATM    7  C   UNL     1      -5.005   3.722 -33.288  1.00  0.00     0.141 C 
HETATM    8  C   UNL     1      -3.571   4.130 -32.893  1.00  0.00     0.115 C 
ENDROOT
BRANCH   5   9
HETATM    9  C   UNL     1      -6.782   1.267 -33.015  1.00  0.00     0.064 A 
HETATM   10  C   UNL     1      -5.760   0.340 -32.943  1.00  0.00     0.077 A 
HETATM   11  C   UNL     1      -5.680  -0.739 -33.827  1.00  0.00     0.065 A 
HETATM   12  N   UNL     1      -4.658   0.264 -32.086  1.00  0.00    -0.330 N 
HETATM   13  N   UNL     1      -4.542  -1.479 -33.508  1.00  0.00    -0.331 N 
HETATM   14  C   UNL     1      -6.599  -0.941 -34.828  1.00  0.00     0.074 A 
HETATM   15  C   UNL     1      -3.890  -0.847 -32.441  1.00  0.00     0.176 A 
HETATM   16  H   UNL     1      -4.199  -2.299 -33.985  1.00  0.00     0.168 HD
HETATM   17  S   UNL     1      -2.472  -1.323 -31.753  1.00  0.00    -0.041 SA
HETATM   18  C   UNL     1      -7.610   0.012 -34.935  1.00  0.00     0.119 A 
HETATM   19  F   UNL     1      -8.523  -0.116 -35.906  1.00  0.00    -0.206 F 
HETATM   20  C   UNL     1      -7.703   1.112 -34.062  1.00  0.00     0.061 A 
HETATM   21  H   UNL     1      -4.417   0.964 -31.393  1.00  0.00     0.168 HD
ENDBRANCH   5   9
BRANCH   1  22
HETATM   22  C   UNL     1      -2.294   5.677 -31.601  1.00  0.00     0.044 A 
HETATM   23  C   UNL     1      -1.213   4.849 -31.278  1.00  0.00     0.026 A 
HETATM   24  C   UNL     1       0.061   5.390 -31.066  1.00  0.00     0.002 A 
HETATM   25  C   UNL     1       0.277   6.765 -31.179  1.00  0.00     0.003 A 
HETATM   26  C   UNL     1      -0.785   7.608 -31.494  1.00  0.00     0.038 A 
HETATM   27  C   UNL     1      -2.045   7.060 -31.691  1.00  0.00     0.087 A 
BRANCH  27  28
HETATM   28  O   UNL     1      -3.096   7.902 -31.951  1.00  0.00    -0.359 OA
HETATM   29  H   UNL     1      -2.867   8.697 -31.428  1.00  0.00     0.218 HD
ENDBRANCH  27  28
ENDBRANCH   1  22
TORSDOF 3
ENDMDL
MODEL 8
REMARK VINA RESULT:      -7.7      6.677      8.400
REMARK  3 active torsions:
REMARK  status: ('A' for Active; 'I' for Inactive)
REMARK    1  A    between atoms: C_3  and  N_4 
REMARK       I    between atoms: N_7  and  C_8 
REMARK    2  A    between atoms: C_8  and  C_9 
REMARK    3  A    between atoms: C_23  and  O_24 
ROOT
HETATM    1  N   UNL     1      -1.306   5.634 -31.441  1.00  0.00    -0.278 NA
HETATM    2  C   UNL     1      -1.419   6.484 -32.656  1.00  0.00     0.115 C 
HETATM    3  C   UNL     1      -2.056   5.693 -33.813  1.00  0.00     0.141 C 
HETATM    4  N   UNL     1      -3.342   5.105 -33.414  1.00  0.00    -0.346 N 
HETATM    5  C   UNL     1      -4.340   5.005 -34.379  1.00  0.00     0.256 C 
HETATM    6  O   UNL     1      -4.162   5.327 -35.553  1.00  0.00    -0.267 OA
HETATM    7  C   UNL     1      -3.253   4.283 -32.196  1.00  0.00     0.141 C 
HETATM    8  C   UNL     1      -2.624   5.071 -31.029  1.00  0.00     0.115 C 
ENDROOT
BRANCH   5   9
HETATM    9  C   UNL     1      -5.691   4.536 -34.001  1.00  0.00     0.064 A 
HETATM   10  C   UNL     1      -6.561   5.373 -33.329  1.00  0.00     0.077 A 
HETATM   11  C   UNL     1      -7.833   4.950 -32.935  1.00  0.00     0.065 A 
HETATM   12  N   UNL     1      -6.404   6.693 -32.898  1.00  0.00    -0.330 N 
HETATM   13  N   UNL     1      -8.457   6.007 -32.276  1.00  0.00    -0.331 N 
HETATM   14  C   UNL     1      -8.294   3.678 -33.176  1.00  0.00     0.074 A 
HETATM   15  C   UNL     1      -7.565   7.086 -32.229  1.00  0.00     0.176 A 
HETATM   16  H   UNL     1      -9.372   6.001 -31.850  1.00  0.00     0.168 HD
HETATM   17  S   UNL     1      -7.837   8.539 -31.503  1.00  0.00    -0.041 SA
HETATM   18  C   UNL     1      -7.408   2.814 -33.816  1.00  0.00     0.119 A 
HETATM   19  F   UNL     1      -7.790   1.553 -34.057  1.00  0.00    -0.206 F 
HETATM   20  C   UNL     1      -6.118   3.216 -34.212  1.00  0.00     0.061 A 
HETATM   21  H   UNL     1      -5.547   7.228 -32.977  1.00  0.00     0.168 HD
ENDBRANCH   5   9
BRANCH   1  22
HETATM   22  C   UNL     1      -0.672   6.254 -30.333  1.00  0.00     0.044 A 
HETATM   23  C   UNL     1      -0.853   7.590 -29.957  1.00  0.00     0.026 A 
HETATM   24  C   UNL     1      -0.217   8.104 -28.821  1.00  0.00     0.002 A 
HETATM   25  C   UNL     1       0.606   7.291 -28.039  1.00  0.00     0.003 A 
HETATM   26  C   UNL     1       0.806   5.960 -28.397  1.00  0.00     0.038 A 
HETATM   27  C   UNL     1       0.178   5.466 -29.532  1.00  0.00     0.087 A 
BRANCH  27  28
HETATM   28  O   UNL     1       0.418   4.170 -29.907  1.00  0.00    -0.359 OA
HETATM   29  H   UNL     1      -0.297   3.680 -29.453  1.00  0.00     0.218 HD
ENDBRANCH  27  28
ENDBRANCH   1  22
TORSDOF 3
ENDMDL
MODEL 9
REMARK VINA RESULT:      -7.7      5.826      7.861
REMARK  3 active torsions:
REMARK  status: ('A' for Active; 'I' for Inactive)
REMARK    1  A    between atoms: C_3  and  N_4 
REMARK       I    between atoms: N_7  and  C_8 
REMARK    2  A    between atoms: C_8  and  C_9 
REMARK    3  A    between atoms: C_23  and  O_24 
ROOT
HETATM    1  N   UNL     1      -2.219   5.457 -31.892  1.00  0.00    -0.278 NA
HETATM    2  C   UNL     1      -3.289   6.202 -32.605  1.00  0.00     0.115 C 
HETATM    3  C   UNL     1      -3.974   5.299 -33.648  1.00  0.00     0.141 C 
HETATM    4  N   UNL     1      -4.462   4.054 -33.038  1.00  0.00    -0.346 N 
HETATM    5  C   UNL     1      -5.634   3.497 -33.544  1.00  0.00     0.256 C 
HETATM    6  O   UNL     1      -6.229   3.969 -34.511  1.00  0.00    -0.267 OA
HETATM    7  C   UNL     1      -3.421   3.319 -32.303  1.00  0.00     0.141 C 
HETATM    8  C   UNL     1      -2.736   4.213 -31.250  1.00  0.00     0.115 C 
ENDROOT
BRANCH   5   9
HETATM    9  C   UNL     1      -6.234   2.315 -32.887  1.00  0.00     0.064 A 
HETATM   10  C   UNL     1      -7.428   2.426 -32.200  1.00  0.00     0.077 A 
HETATM   11  C   UNL     1      -8.006   1.334 -31.548  1.00  0.00     0.065 A 
HETATM   12  N   UNL     1      -8.255   3.532 -31.984  1.00  0.00    -0.330 N 
HETATM   13  N   UNL     1      -9.187   1.765 -30.944  1.00  0.00    -0.331 N 
HETATM   14  C   UNL     1      -7.423   0.091 -31.534  1.00  0.00     0.074 A 
HETATM   15  C   UNL     1      -9.335   3.135 -31.192  1.00  0.00     0.176 A 
HETATM   16  H   UNL     1      -9.813   1.214 -30.376  1.00  0.00     0.168 HD
HETATM   17  S   UNL     1     -10.551   4.096 -30.635  1.00  0.00    -0.041 SA
HETATM   18  C   UNL     1      -6.198  -0.021 -32.189  1.00  0.00     0.119 A 
HETATM   19  F   UNL     1      -5.567  -1.202 -32.191  1.00  0.00    -0.206 F 
HETATM   20  C   UNL     1      -5.592   1.069 -32.844  1.00  0.00     0.061 A 
HETATM   21  H   UNL     1      -8.040   4.479 -32.276  1.00  0.00     0.168 HD
ENDBRANCH   5   9
BRANCH   1  22
HETATM   22  C   UNL     1      -1.482   6.222 -30.951  1.00  0.00     0.044 A 
HETATM   23  C   UNL     1      -1.995   7.308 -30.232  1.00  0.00     0.026 A 
HETATM   24  C   UNL     1      -1.204   7.978 -29.290  1.00  0.00     0.002 A 
HETATM   25  C   UNL     1       0.109   7.571 -29.048  1.00  0.00     0.003 A 
HETATM   26  C   UNL     1       0.643   6.496 -29.755  1.00  0.00     0.038 A 
HETATM   27  C   UNL     1      -0.149   5.848 -30.693  1.00  0.00     0.087 A 
BRANCH  27  28
HETATM   28  O   UNL     1       0.399   4.824 -31.421  1.00  0.00    -0.359 OA
HETATM   29  H   UNL     1       1.350   4.888 -31.198  1.00  0.00     0.218 HD
ENDBRANCH  27  28
ENDBRANCH   1  22
TORSDOF 3
ENDMDL
MODEL 10
REMARK VINA RESULT:      -7.7      2.740      3.209
REMARK  3 active torsions:
REMARK  status: ('A' for Active; 'I' for Inactive)
REMARK    1  A    between atoms: C_3  and  N_4 
REMARK       I    between atoms: N_7  and  C_8 
REMARK    2  A    between atoms: C_8  and  C_9 
REMARK    3  A    between atoms: C_23  and  O_24 
ROOT
HETATM    1  N   UNL     1      -6.237  -0.353 -33.437  1.00  0.00    -0.278 NA
HETATM    2  C   UNL     1      -6.942  -0.241 -32.133  1.00  0.00     0.115 C 
HETATM    3  C   UNL     1      -7.039   1.232 -31.694  1.00  0.00     0.141 C 
HETATM    4  N   UNL     1      -7.651   2.062 -32.741  1.00  0.00    -0.346 N 
HETATM    5  C   UNL     1      -8.443   3.135 -32.342  1.00  0.00     0.256 C 
HETATM    6  O   UNL     1      -8.592   3.446 -31.161  1.00  0.00    -0.267 OA
HETATM    7  C   UNL     1      -6.982   1.940 -34.047  1.00  0.00     0.141 C 
HETATM    8  C   UNL     1      -6.889   0.469 -34.497  1.00  0.00     0.115 C 
ENDROOT
BRANCH   5   9
HETATM    9  C   UNL     1      -9.181   3.926 -33.350  1.00  0.00     0.064 A 
HETATM   10  C   UNL     1      -9.178   5.307 -33.298  1.00  0.00     0.077 A 
HETATM   11  C   UNL     1      -9.887   6.080 -34.220  1.00  0.00     0.065 A 
HETATM   12  N   UNL     1      -8.560   6.183 -32.401  1.00  0.00    -0.330 N 
HETATM   13  N   UNL     1      -9.697   7.423 -33.898  1.00  0.00    -0.331 N 
HETATM   14  C   UNL     1     -10.641   5.523 -35.225  1.00  0.00     0.074 A 
HETATM   15  C   UNL     1      -8.892   7.493 -32.754  1.00  0.00     0.176 A 
HETATM   16  H   UNL     1     -10.104   8.221 -34.362  1.00  0.00     0.168 HD
HETATM   17  S   UNL     1      -8.440   8.868 -31.968  1.00  0.00    -0.041 SA
HETATM   18  C   UNL     1     -10.684   4.130 -35.260  1.00  0.00     0.119 A 
HETATM   19  F   UNL     1     -11.420   3.526 -36.201  1.00  0.00    -0.206 F 
HETATM   20  C   UNL     1      -9.985   3.332 -34.334  1.00  0.00     0.061 A 
HETATM   21  H   UNL     1      -8.044   5.896 -31.578  1.00  0.00     0.168 HD
ENDBRANCH   5   9
BRANCH   1  22
HETATM   22  C   UNL     1      -6.040  -1.680 -33.900  1.00  0.00     0.044 A 
HETATM   23  C   UNL     1      -7.052  -2.507 -34.399  1.00  0.00     0.026 A 
HETATM   24  C   UNL     1      -6.756  -3.790 -34.874  1.00  0.00     0.002 A 
HETATM   25  C   UNL     1      -5.443  -4.266 -34.862  1.00  0.00     0.003 A 
HETATM   26  C   UNL     1      -4.420  -3.463 -34.365  1.00  0.00     0.038 A 
HETATM   27  C   UNL     1      -4.730  -2.197 -33.887  1.00  0.00     0.087 A 
BRANCH  27  28
HETATM   28  O   UNL     1      -3.726  -1.431 -33.352  1.00  0.00    -0.359 OA
HETATM   29  H   UNL     1      -3.942  -1.433 -32.398  1.00  0.00     0.218 HD
ENDBRANCH  27  28
ENDBRANCH   1  22
TORSDOF 3
ENDMDL
