MODEL 1
REMARK VINA RESULT:      -8.6      0.000      0.000
REMARK  5 active torsions:
REMARK  status: ('A' for Active; 'I' for Inactive)
REMARK    1  A    between atoms: C_7  and  S_8 
REMARK    2  A    between atoms: S_8  and  C_9 
REMARK    3  A    between atoms: C_9  and  C_10 
REMARK       I    between atoms: C_10  and  N_11 
REMARK    4  A    between atoms: N_11  and  N_12 
REMARK       I    between atoms: N_12  and  C_13 
REMARK       I    between atoms: C_13  and  N_14 
REMARK    5  A    between atoms: N_14  and  C_15 
ROOT
HETATM    1  C   UNL     1      -9.165   0.413 -32.448  1.00  0.00     0.245 C 
HETATM    2  N   UNL     1      -9.435   1.759 -32.353  1.00  0.00    -0.265 N 
HETATM    3  O   UNL     1     -10.056  -0.404 -32.705  1.00  0.00    -0.271 OA
HETATM    4  H   UNL     1      -8.720   2.475 -32.225  1.00  0.00     0.190 HD
ENDROOT
BRANCH   1   5
HETATM    5  C   UNL     1      -7.715  -0.010 -32.352  1.00  0.00     0.184 C 
BRANCH   5   6
HETATM    6  S   UNL     1      -6.726   0.443 -33.805  1.00  0.00    -0.118 SA
BRANCH   6   7
HETATM    7  C   UNL     1      -5.518  -0.824 -33.722  1.00  0.00     0.035 A 
HETATM    8  C   UNL     1      -4.253  -0.688 -33.191  1.00  0.00     0.023 A 
HETATM    9  C   UNL     1      -3.552   0.483 -32.603  1.00  0.00     0.069 C 
HETATM   10  N   UNL     1      -3.648  -1.918 -33.277  1.00  0.00    -0.358 N 
HETATM   11  H   UNL     1      -2.712  -2.131 -32.961  1.00  0.00     0.166 HD
HETATM   12  C   UNL     1      -4.497  -2.839 -33.850  1.00  0.00     0.044 A 
HETATM   13  C   UNL     1      -5.682  -2.170 -34.162  1.00  0.00     0.009 A 
HETATM   14  C   UNL     1      -4.302  -4.200 -34.114  1.00  0.00     0.030 A 
HETATM   15  C   UNL     1      -6.717  -2.900 -34.787  1.00  0.00     0.015 A 
HETATM   16  C   UNL     1      -6.537  -4.262 -35.059  1.00  0.00     0.001 A 
HETATM   17  C   UNL     1      -5.347  -4.900 -34.722  1.00  0.00     0.002 A 
ENDBRANCH   6   7
ENDBRANCH   5   6
ENDBRANCH   1   5
BRANCH   2  18
HETATM   18  N   UNL     1     -10.747   2.186 -32.620  1.00  0.00    -0.249 N 
HETATM   19  C   UNL     1     -10.968   2.896 -33.767  1.00  0.00     0.339 C 
HETATM   20  N   UNL     1     -12.263   3.127 -34.130  1.00  0.00    -0.308 N 
HETATM   21  O   UNL     1     -10.048   3.282 -34.491  1.00  0.00    -0.245 OA
HETATM   22  H   UNL     1     -12.320   3.477 -35.079  1.00  0.00     0.170 HD
HETATM   23  H   UNL     1     -11.452   1.497 -32.362  1.00  0.00     0.192 HD
BRANCH  20  24
HETATM   24  C   UNL     1     -13.484   2.934 -33.455  1.00  0.00     0.036 A 
HETATM   25  C   UNL     1     -14.062   3.862 -32.583  1.00  0.00     0.029 A 
HETATM   26  C   UNL     1     -15.262   3.569 -31.927  1.00  0.00     0.002 A 
HETATM   27  C   UNL     1     -15.908   2.358 -32.155  1.00  0.00     0.000 A 
HETATM   28  C   UNL     1     -15.366   1.445 -33.055  1.00  0.00     0.002 A 
HETATM   29  C   UNL     1     -14.167   1.738 -33.710  1.00  0.00     0.029 A 
ENDBRANCH  20  24
ENDBRANCH   2  18
TORSDOF 5
ENDMDL
MODEL 2
REMARK VINA RESULT:      -8.5      5.738      8.764
REMARK  5 active torsions:
REMARK  status: ('A' for Active; 'I' for Inactive)
REMARK    1  A    between atoms: C_7  and  S_8 
REMARK    2  A    between atoms: S_8  and  C_9 
REMARK    3  A    between atoms: C_9  and  C_10 
REMARK       I    between atoms: C_10  and  N_11 
REMARK    4  A    between atoms: N_11  and  N_12 
REMARK       I    between atoms: N_12  and  C_13 
REMARK       I    between atoms: C_13  and  N_14 
REMARK    5  A    between atoms: N_14  and  C_15 
ROOT
HETATM    1  C   UNL     1      -4.526   3.372 -32.348  1.00  0.00     0.245 C 
HETATM    2  N   UNL     1      -3.259   3.431 -32.882  1.00  0.00    -0.265 N 
HETATM    3  O   UNL     1      -4.889   4.160 -31.468  1.00  0.00    -0.271 OA
HETATM    4  H   UNL     1      -2.944   2.857 -33.664  1.00  0.00     0.190 HD
ENDROOT
BRANCH   1   5
HETATM    5  C   UNL     1      -5.494   2.390 -32.971  1.00  0.00     0.184 C 
BRANCH   5   6
HETATM    6  S   UNL     1      -6.081   1.115 -31.820  1.00  0.00    -0.118 SA
BRANCH   6   7
HETATM    7  C   UNL     1      -5.114  -0.232 -32.386  1.00  0.00     0.035 A 
HETATM    8  C   UNL     1      -3.823  -0.511 -31.989  1.00  0.00     0.023 A 
HETATM    9  C   UNL     1      -2.902   0.198 -31.063  1.00  0.00     0.069 C 
HETATM   10  N   UNL     1      -3.449  -1.669 -32.627  1.00  0.00    -0.358 N 
HETATM   11  H   UNL     1      -2.553  -2.124 -32.529  1.00  0.00     0.166 HD
HETATM   12  C   UNL     1      -4.470  -2.137 -33.423  1.00  0.00     0.044 A 
HETATM   13  C   UNL     1      -5.531  -1.237 -33.308  1.00  0.00     0.009 A 
HETATM   14  C   UNL     1      -4.530  -3.280 -34.230  1.00  0.00     0.030 A 
HETATM   15  C   UNL     1      -6.704  -1.486 -34.053  1.00  0.00     0.015 A 
HETATM   16  C   UNL     1      -6.779  -2.624 -34.865  1.00  0.00     0.001 A 
HETATM   17  C   UNL     1      -5.707  -3.508 -34.947  1.00  0.00     0.002 A 
ENDBRANCH   6   7
ENDBRANCH   5   6
ENDBRANCH   1   5
BRANCH   2  18
HETATM   18  N   UNL     1      -2.407   4.457 -32.439  1.00  0.00    -0.249 N 
HETATM   19  C   UNL     1      -1.729   5.177 -33.384  1.00  0.00     0.339 C 
HETATM   20  N   UNL     1      -1.071   6.300 -32.972  1.00  0.00    -0.308 N 
HETATM   21  O   UNL     1      -1.738   4.871 -34.577  1.00  0.00    -0.245 OA
HETATM   22  H   UNL     1      -0.777   6.861 -33.763  1.00  0.00     0.170 HD
HETATM   23  H   UNL     1      -2.783   4.976 -31.648  1.00  0.00     0.192 HD
BRANCH  20  24
HETATM   24  C   UNL     1      -0.777   6.810 -31.693  1.00  0.00     0.036 A 
HETATM   25  C   UNL     1       0.368   6.491 -30.957  1.00  0.00     0.029 A 
HETATM   26  C   UNL     1       0.558   7.019 -29.675  1.00  0.00     0.002 A 
HETATM   27  C   UNL     1      -0.380   7.887 -29.127  1.00  0.00     0.000 A 
HETATM   28  C   UNL     1      -1.502   8.247 -29.869  1.00  0.00     0.002 A 
HETATM   29  C   UNL     1      -1.692   7.720 -31.148  1.00  0.00     0.029 A 
ENDBRANCH  20  24
ENDBRANCH   2  18
TORSDOF 5
ENDMDL
MODEL 3
REMARK VINA RESULT:      -8.5      1.468      2.084
REMARK  5 active torsions:
REMARK  status: ('A' for Active; 'I' for Inactive)
REMARK    1  A    between atoms: C_7  and  S_8 
REMARK    2  A    between atoms: S_8  and  C_9 
REMARK    3  A    between atoms: C_9  and  C_10 
REMARK       I    between atoms: C_10  and  N_11 
REMARK    4  A    between atoms: N_11  and  N_12 
REMARK       I    between atoms: N_12  and  C_13 
REMARK       I    between atoms: C_13  and  N_14 
REMARK    5  A    between atoms: N_14  and  C_15 
ROOT
HETATM    1  C   UNL     1      -8.274   1.284 -31.745  1.00  0.00     0.245 C 
HETATM    2  N   UNL     1      -9.190   0.663 -32.562  1.00  0.00    -0.265 N 
HETATM    3  O   UNL     1      -8.512   2.382 -31.231  1.00  0.00    -0.271 OA
HETATM    4  H   UNL     1      -9.070  -0.277 -32.941  1.00  0.00     0.190 HD
ENDROOT
BRANCH   1   5
HETATM    5  C   UNL     1      -7.020   0.510 -31.399  1.00  0.00     0.184 C 
BRANCH   5   6
HETATM    6  S   UNL     1      -5.602   0.907 -32.461  1.00  0.00    -0.118 SA
BRANCH   6   7
HETATM    7  C   UNL     1      -5.519  -0.585 -33.377  1.00  0.00     0.035 A 
HETATM    8  C   UNL     1      -6.219  -0.851 -34.534  1.00  0.00     0.023 A 
HETATM    9  C   UNL     1      -7.210  -0.046 -35.294  1.00  0.00     0.069 C 
HETATM   10  N   UNL     1      -5.836  -2.102 -34.954  1.00  0.00    -0.358 N 
HETATM   11  H   UNL     1      -6.178  -2.568 -35.783  1.00  0.00     0.166 HD
HETATM   12  C   UNL     1      -4.908  -2.642 -34.092  1.00  0.00     0.044 A 
HETATM   13  C   UNL     1      -4.702  -1.713 -33.071  1.00  0.00     0.009 A 
HETATM   14  C   UNL     1      -4.244  -3.874 -34.142  1.00  0.00     0.030 A 
HETATM   15  C   UNL     1      -3.799  -2.044 -32.038  1.00  0.00     0.015 A 
HETATM   16  C   UNL     1      -3.128  -3.272 -32.072  1.00  0.00     0.001 A 
HETATM   17  C   UNL     1      -3.347  -4.170 -33.113  1.00  0.00     0.002 A 
ENDBRANCH   6   7
ENDBRANCH   5   6
ENDBRANCH   1   5
BRANCH   2  18
HETATM   18  N   UNL     1     -10.434   1.289 -32.747  1.00  0.00    -0.249 N 
HETATM   19  C   UNL     1     -10.575   2.131 -33.816  1.00  0.00     0.339 C 
HETATM   20  N   UNL     1     -11.832   2.571 -34.116  1.00  0.00    -0.308 N 
HETATM   21  O   UNL     1      -9.623   2.455 -34.529  1.00  0.00    -0.245 OA
HETATM   22  H   UNL     1     -11.856   3.015 -35.025  1.00  0.00     0.170 HD
HETATM   23  H   UNL     1     -11.224   0.682 -32.533  1.00  0.00     0.192 HD
BRANCH  20  24
HETATM   24  C   UNL     1     -13.056   2.483 -33.424  1.00  0.00     0.036 A 
HETATM   25  C   UNL     1     -13.399   3.267 -32.318  1.00  0.00     0.029 A 
HETATM   26  C   UNL     1     -14.625   3.084 -31.671  1.00  0.00     0.002 A 
HETATM   27  C   UNL     1     -15.529   2.134 -32.135  1.00  0.00     0.000 A 
HETATM   28  C   UNL     1     -15.217   1.378 -33.262  1.00  0.00     0.002 A 
HETATM   29  C   UNL     1     -13.992   1.561 -33.909  1.00  0.00     0.029 A 
ENDBRANCH  20  24
ENDBRANCH   2  18
TORSDOF 5
ENDMDL
MODEL 4
REMARK VINA RESULT:      -8.5      5.476      9.490
REMARK  5 active torsions:
REMARK  status: ('A' for Active; 'I' for Inactive)
REMARK    1  A    between atoms: C_7  and  S_8 
REMARK    2  A    between atoms: S_8  and  C_9 
REMARK    3  A    between atoms: C_9  and  C_10 
REMARK       I    between atoms: C_10  and  N_11 
REMARK    4  A    between atoms: N_11  and  N_12 
REMARK       I    between atoms: N_12  and  C_13 
REMARK       I    between atoms: C_13  and  N_14 
REMARK    5  A    between atoms: N_14  and  C_15 
ROOT
HETATM    1  C   UNL     1      -3.747   2.793 -31.829  1.00  0.00     0.245 C 
HETATM    2  N   UNL     1      -3.499   4.127 -32.061  1.00  0.00    -0.265 N 
HETATM    3  O   UNL     1      -2.938   2.086 -31.220  1.00  0.00    -0.271 OA
HETATM    4  H   UNL     1      -4.172   4.766 -32.486  1.00  0.00     0.190 HD
ENDROOT
BRANCH   1   5
HETATM    5  C   UNL     1      -5.105   2.261 -32.237  1.00  0.00     0.184 C 
BRANCH   5   6
HETATM    6  S   UNL     1      -5.758   0.993 -31.114  1.00  0.00    -0.118 SA
BRANCH   6   7
HETATM    7  C   UNL     1      -6.559  -0.029 -32.291  1.00  0.00     0.035 A 
HETATM    8  C   UNL     1      -7.892   0.043 -32.636  1.00  0.00     0.023 A 
HETATM    9  C   UNL     1      -8.992   0.911 -32.142  1.00  0.00     0.069 C 
HETATM   10  N   UNL     1      -8.102  -0.894 -33.619  1.00  0.00    -0.358 N 
HETATM   11  H   UNL     1      -8.986  -1.071 -34.075  1.00  0.00     0.166 HD
HETATM   12  C   UNL     1      -6.935  -1.565 -33.909  1.00  0.00     0.044 A 
HETATM   13  C   UNL     1      -5.944  -1.053 -33.069  1.00  0.00     0.009 A 
HETATM   14  C   UNL     1      -6.688  -2.577 -34.844  1.00  0.00     0.030 A 
HETATM   15  C   UNL     1      -4.645  -1.598 -33.159  1.00  0.00     0.015 A 
HETATM   16  C   UNL     1      -4.382  -2.612 -34.088  1.00  0.00     0.001 A 
HETATM   17  C   UNL     1      -5.391  -3.090 -34.920  1.00  0.00     0.002 A 
ENDBRANCH   6   7
ENDBRANCH   5   6
ENDBRANCH   1   5
BRANCH   2  18
HETATM   18  N   UNL     1      -2.322   4.677 -31.528  1.00  0.00    -0.249 N 
HETATM   19  C   UNL     1      -1.359   5.098 -32.404  1.00  0.00     0.339 C 
HETATM   20  N   UNL     1      -0.315   5.819 -31.900  1.00  0.00    -0.308 N 
HETATM   21  O   UNL     1      -1.434   4.888 -33.616  1.00  0.00    -0.245 OA
HETATM   22  H   UNL     1       0.225   6.247 -32.642  1.00  0.00     0.170 HD
HETATM   23  H   UNL     1      -2.487   5.263 -30.711  1.00  0.00     0.192 HD
BRANCH  20  24
HETATM   24  C   UNL     1       0.099   6.090 -30.581  1.00  0.00     0.036 A 
HETATM   25  C   UNL     1       0.527   5.119 -29.670  1.00  0.00     0.029 A 
HETATM   26  C   UNL     1       0.886   5.478 -28.367  1.00  0.00     0.002 A 
HETATM   27  C   UNL     1       0.844   6.810 -27.969  1.00  0.00     0.000 A 
HETATM   28  C   UNL     1       0.463   7.791 -28.880  1.00  0.00     0.002 A 
HETATM   29  C   UNL     1       0.104   7.432 -30.182  1.00  0.00     0.029 A 
ENDBRANCH  20  24
ENDBRANCH   2  18
TORSDOF 5
ENDMDL
MODEL 5
REMARK VINA RESULT:      -8.3      5.884      9.615
REMARK  5 active torsions:
REMARK  status: ('A' for Active; 'I' for Inactive)
REMARK    1  A    between atoms: C_7  and  S_8 
REMARK    2  A    between atoms: S_8  and  C_9 
REMARK    3  A    between atoms: C_9  and  C_10 
REMARK       I    between atoms: C_10  and  N_11 
REMARK    4  A    between atoms: N_11  and  N_12 
REMARK       I    between atoms: N_12  and  C_13 
REMARK       I    between atoms: C_13  and  N_14 
REMARK    5  A    between atoms: N_14  and  C_15 
ROOT
HETATM    1  C   UNL     1      -4.061   4.576 -33.568  1.00  0.00     0.245 C 
HETATM    2  N   UNL     1      -3.602   5.861 -33.388  1.00  0.00    -0.265 N 
HETATM    3  O   UNL     1      -3.443   3.606 -33.118  1.00  0.00    -0.271 OA
HETATM    4  H   UNL     1      -4.119   6.695 -33.669  1.00  0.00     0.190 HD
ENDROOT
BRANCH   1   5
HETATM    5  C   UNL     1      -5.414   4.411 -34.226  1.00  0.00     0.184 C 
BRANCH   5   6
HETATM    6  S   UNL     1      -6.770   4.149 -33.047  1.00  0.00    -0.118 SA
BRANCH   6   7
HETATM    7  C   UNL     1      -6.461   2.473 -32.640  1.00  0.00     0.035 A 
HETATM    8  C   UNL     1      -5.977   2.021 -31.431  1.00  0.00     0.023 A 
HETATM    9  C   UNL     1      -5.564   2.746 -30.202  1.00  0.00     0.069 C 
HETATM   10  N   UNL     1      -5.925   0.650 -31.508  1.00  0.00    -0.358 N 
HETATM   11  H   UNL     1      -5.614   0.037 -30.768  1.00  0.00     0.166 HD
HETATM   12  C   UNL     1      -6.363   0.215 -32.739  1.00  0.00     0.044 A 
HETATM   13  C   UNL     1      -6.690   1.348 -33.486  1.00  0.00     0.009 A 
HETATM   14  C   UNL     1      -6.491  -1.086 -33.239  1.00  0.00     0.030 A 
HETATM   15  C   UNL     1      -7.151   1.167 -34.808  1.00  0.00     0.015 A 
HETATM   16  C   UNL     1      -7.283  -0.127 -35.324  1.00  0.00     0.001 A 
HETATM   17  C   UNL     1      -6.961  -1.236 -34.547  1.00  0.00     0.002 A 
ENDBRANCH   6   7
ENDBRANCH   5   6
ENDBRANCH   1   5
BRANCH   2  18
HETATM   18  N   UNL     1      -2.439   6.041 -32.621  1.00  0.00    -0.249 N 
HETATM   19  C   UNL     1      -1.558   7.011 -33.013  1.00  0.00     0.339 C 
HETATM   20  N   UNL     1      -0.542   7.327 -32.159  1.00  0.00    -0.308 N 
HETATM   21  O   UNL     1      -1.684   7.626 -34.074  1.00  0.00    -0.245 OA
HETATM   22  H   UNL     1      -0.074   8.179 -32.446  1.00  0.00     0.170 HD
HETATM   23  H   UNL     1      -2.600   5.945 -31.619  1.00  0.00     0.192 HD
BRANCH  20  24
HETATM   24  C   UNL     1      -0.076   6.721 -30.976  1.00  0.00     0.036 A 
HETATM   25  C   UNL     1       0.498   5.447 -30.911  1.00  0.00     0.029 A 
HETATM   26  C   UNL     1       0.899   4.910 -29.684  1.00  0.00     0.002 A 
HETATM   27  C   UNL     1       0.754   5.649 -28.514  1.00  0.00     0.000 A 
HETATM   28  C   UNL     1       0.226   6.935 -28.571  1.00  0.00     0.002 A 
HETATM   29  C   UNL     1      -0.175   7.471 -29.798  1.00  0.00     0.029 A 
ENDBRANCH  20  24
ENDBRANCH   2  18
TORSDOF 5
ENDMDL
MODEL 6
REMARK VINA RESULT:      -8.1      6.325      9.695
REMARK  5 active torsions:
REMARK  status: ('A' for Active; 'I' for Inactive)
REMARK    1  A    between atoms: C_7  and  S_8 
REMARK    2  A    between atoms: S_8  and  C_9 
REMARK    3  A    between atoms: C_9  and  C_10 
REMARK       I    between atoms: C_10  and  N_11 
REMARK    4  A    between atoms: N_11  and  N_12 
REMARK       I    between atoms: N_12  and  C_13 
REMARK       I    between atoms: C_13  and  N_14 
REMARK    5  A    between atoms: N_14  and  C_15 
ROOT
HETATM    1  C   UNL     1      -2.811   4.032 -31.691  1.00  0.00     0.245 C 
HETATM    2  N   UNL     1      -3.484   4.864 -30.826  1.00  0.00    -0.265 N 
HETATM    3  O   UNL     1      -1.587   4.110 -31.836  1.00  0.00    -0.271 OA
HETATM    4  H   UNL     1      -4.479   4.781 -30.614  1.00  0.00     0.190 HD
ENDROOT
BRANCH   1   5
HETATM    5  C   UNL     1      -3.613   2.935 -32.358  1.00  0.00     0.184 C 
BRANCH   5   6
HETATM    6  S   UNL     1      -3.592   1.362 -31.452  1.00  0.00    -0.118 SA
BRANCH   6   7
HETATM    7  C   UNL     1      -5.132   0.717 -31.985  1.00  0.00     0.035 A 
HETATM    8  C   UNL     1      -6.370   1.213 -31.633  1.00  0.00     0.023 A 
HETATM    9  C   UNL     1      -6.766   2.333 -30.740  1.00  0.00     0.069 C 
HETATM   10  N   UNL     1      -7.307   0.458 -32.296  1.00  0.00    -0.358 N 
HETATM   11  H   UNL     1      -8.307   0.589 -32.240  1.00  0.00     0.166 HD
HETATM   12  C   UNL     1      -6.697  -0.510 -33.064  1.00  0.00     0.044 A 
HETATM   13  C   UNL     1      -5.320  -0.384 -32.870  1.00  0.00     0.009 A 
HETATM   14  C   UNL     1      -7.260  -1.478 -33.904  1.00  0.00     0.030 A 
HETATM   15  C   UNL     1      -4.466  -1.287 -33.540  1.00  0.00     0.015 A 
HETATM   16  C   UNL     1      -5.012  -2.261 -34.383  1.00  0.00     0.001 A 
HETATM   17  C   UNL     1      -6.390  -2.350 -34.563  1.00  0.00     0.002 A 
ENDBRANCH   6   7
ENDBRANCH   5   6
ENDBRANCH   1   5
BRANCH   2  18
HETATM   18  N   UNL     1      -2.726   5.768 -30.063  1.00  0.00    -0.249 N 
HETATM   19  C   UNL     1      -3.344   6.904 -29.618  1.00  0.00     0.339 C 
HETATM   20  N   UNL     1      -2.677   7.673 -28.708  1.00  0.00    -0.308 N 
HETATM   21  O   UNL     1      -4.482   7.217 -29.971  1.00  0.00    -0.245 OA
HETATM   22  H   UNL     1      -3.290   8.367 -28.297  1.00  0.00     0.170 HD
HETATM   23  H   UNL     1      -2.086   5.310 -29.417  1.00  0.00     0.192 HD
BRANCH  20  24
HETATM   24  C   UNL     1      -1.350   7.644 -28.235  1.00  0.00     0.036 A 
HETATM   25  C   UNL     1      -0.255   8.188 -28.913  1.00  0.00     0.029 A 
HETATM   26  C   UNL     1       1.034   8.080 -28.383  1.00  0.00     0.002 A 
HETATM   27  C   UNL     1       1.239   7.449 -27.161  1.00  0.00     0.000 A 
HETATM   28  C   UNL     1       0.151   6.943 -26.455  1.00  0.00     0.002 A 
HETATM   29  C   UNL     1      -1.137   7.051 -26.985  1.00  0.00     0.029 A 
ENDBRANCH  20  24
ENDBRANCH   2  18
TORSDOF 5
ENDMDL
MODEL 7
REMARK VINA RESULT:      -7.9      4.563      8.373
REMARK  5 active torsions:
REMARK  status: ('A' for Active; 'I' for Inactive)
REMARK    1  A    between atoms: C_7  and  S_8 
REMARK    2  A    between atoms: S_8  and  C_9 
REMARK    3  A    between atoms: C_9  and  C_10 
REMARK       I    between atoms: C_10  and  N_11 
REMARK    4  A    between atoms: N_11  and  N_12 
REMARK       I    between atoms: N_12  and  C_13 
REMARK       I    between atoms: C_13  and  N_14 
REMARK    5  A    between atoms: N_14  and  C_15 
ROOT
HETATM    1  C   UNL     1      -6.769   2.192 -32.651  1.00  0.00     0.245 C 
HETATM    2  N   UNL     1      -6.006   1.251 -31.997  1.00  0.00    -0.265 N 
HETATM    3  O   UNL     1      -7.098   2.043 -33.832  1.00  0.00    -0.271 OA
HETATM    4  H   UNL     1      -5.780   1.292 -31.003  1.00  0.00     0.190 HD
ENDROOT
BRANCH   1   5
HETATM    5  C   UNL     1      -7.295   3.348 -31.828  1.00  0.00     0.184 C 
BRANCH   5   6
HETATM    6  S   UNL     1      -6.892   4.977 -32.519  1.00  0.00    -0.118 SA
BRANCH   6   7
HETATM    7  C   UNL     1      -5.201   5.058 -32.064  1.00  0.00     0.035 A 
HETATM    8  C   UNL     1      -4.721   5.056 -30.771  1.00  0.00     0.023 A 
HETATM    9  C   UNL     1      -5.420   5.024 -29.461  1.00  0.00     0.069 C 
HETATM   10  N   UNL     1      -3.349   5.083 -30.854  1.00  0.00    -0.358 N 
HETATM   11  H   UNL     1      -2.718   5.083 -30.065  1.00  0.00     0.166 HD
HETATM   12  C   UNL     1      -2.941   5.102 -32.169  1.00  0.00     0.044 A 
HETATM   13  C   UNL     1      -4.093   5.108 -32.959  1.00  0.00     0.009 A 
HETATM   14  C   UNL     1      -1.650   5.117 -32.710  1.00  0.00     0.030 A 
HETATM   15  C   UNL     1      -3.941   5.150 -34.362  1.00  0.00     0.015 A 
HETATM   16  C   UNL     1      -2.656   5.166 -34.919  1.00  0.00     0.001 A 
HETATM   17  C   UNL     1      -1.529   5.146 -34.102  1.00  0.00     0.002 A 
ENDBRANCH   6   7
ENDBRANCH   5   6
ENDBRANCH   1   5
BRANCH   2  18
HETATM   18  N   UNL     1      -5.662   0.083 -32.699  1.00  0.00    -0.249 N 
HETATM   19  C   UNL     1      -4.334  -0.173 -32.903  1.00  0.00     0.339 C 
HETATM   20  N   UNL     1      -3.993  -1.400 -33.393  1.00  0.00    -0.308 N 
HETATM   21  O   UNL     1      -3.454   0.641 -32.615  1.00  0.00    -0.245 OA
HETATM   22  H   UNL     1      -2.996  -1.559 -33.319  1.00  0.00     0.170 HD
HETATM   23  H   UNL     1      -6.253  -0.713 -32.466  1.00  0.00     0.192 HD
BRANCH  20  24
HETATM   24  C   UNL     1      -4.762  -2.453 -33.928  1.00  0.00     0.036 A 
HETATM   25  C   UNL     1      -6.062  -2.313 -34.423  1.00  0.00     0.029 A 
HETATM   26  C   UNL     1      -6.763  -3.424 -34.902  1.00  0.00     0.002 A 
HETATM   27  C   UNL     1      -6.165  -4.680 -34.912  1.00  0.00     0.000 A 
HETATM   28  C   UNL     1      -4.855  -4.824 -34.463  1.00  0.00     0.002 A 
HETATM   29  C   UNL     1      -4.155  -3.714 -33.985  1.00  0.00     0.029 A 
ENDBRANCH  20  24
ENDBRANCH   2  18
TORSDOF 5
ENDMDL
MODEL 8
REMARK VINA RESULT:      -7.9      3.934      8.160
REMARK  5 active torsions:
REMARK  status: ('A' for Active; 'I' for Inactive)
REMARK    1  A    between atoms: C_7  and  S_8 
REMARK    2  A    between atoms: S_8  and  C_9 
REMARK    3  A    between atoms: C_9  and  C_10 
REMARK       I    between atoms: C_10  and  N_11 
REMARK    4  A    between atoms: N_11  and  N_12 
REMARK       I    between atoms: N_12  and  C_13 
REMARK       I    between atoms: C_13  and  N_14 
REMARK    5  A    between atoms: N_14  and  C_15 
ROOT
HETATM    1  C   UNL     1      -7.392   4.100 -32.319  1.00  0.00     0.245 C 
HETATM    2  N   UNL     1      -6.490   4.197 -31.285  1.00  0.00    -0.265 N 
HETATM    3  O   UNL     1      -7.034   4.210 -33.496  1.00  0.00    -0.271 OA
HETATM    4  H   UNL     1      -6.726   4.032 -30.306  1.00  0.00     0.190 HD
ENDROOT
BRANCH   1   5
HETATM    5  C   UNL     1      -8.815   3.727 -31.963  1.00  0.00     0.184 C 
BRANCH   5   6
HETATM    6  S   UNL     1      -8.995   2.020 -31.372  1.00  0.00    -0.118 SA
BRANCH   6   7
HETATM    7  C   UNL     1      -8.601   1.173 -32.855  1.00  0.00     0.035 A 
HETATM    8  C   UNL     1      -9.310   1.257 -34.035  1.00  0.00     0.023 A 
HETATM    9  C   UNL     1     -10.548   1.997 -34.390  1.00  0.00     0.069 C 
HETATM   10  N   UNL     1      -8.646   0.482 -34.955  1.00  0.00    -0.358 N 
HETATM   11  H   UNL     1      -8.927   0.352 -35.917  1.00  0.00     0.166 HD
HETATM   12  C   UNL     1      -7.530  -0.095 -34.392  1.00  0.00     0.044 A 
HETATM   13  C   UNL     1      -7.486   0.307 -33.056  1.00  0.00     0.009 A 
HETATM   14  C   UNL     1      -6.568  -0.937 -34.962  1.00  0.00     0.030 A 
HETATM   15  C   UNL     1      -6.434  -0.173 -32.247  1.00  0.00     0.015 A 
HETATM   16  C   UNL     1      -5.464  -1.017 -32.801  1.00  0.00     0.001 A 
HETATM   17  C   UNL     1      -5.531  -1.388 -34.142  1.00  0.00     0.002 A 
ENDBRANCH   6   7
ENDBRANCH   5   6
ENDBRANCH   1   5
BRANCH   2  18
HETATM   18  N   UNL     1      -5.133   4.363 -31.612  1.00  0.00    -0.249 N 
HETATM   19  C   UNL     1      -4.272   3.345 -31.305  1.00  0.00     0.339 C 
HETATM   20  N   UNL     1      -3.005   3.414 -31.806  1.00  0.00    -0.308 N 
HETATM   21  O   UNL     1      -4.620   2.366 -30.642  1.00  0.00    -0.245 OA
HETATM   22  H   UNL     1      -2.519   2.533 -31.693  1.00  0.00     0.170 HD
HETATM   23  H   UNL     1      -4.990   4.832 -32.504  1.00  0.00     0.192 HD
BRANCH  20  24
HETATM   24  C   UNL     1      -2.300   4.444 -32.461  1.00  0.00     0.036 A 
HETATM   25  C   UNL     1      -2.227   4.596 -33.848  1.00  0.00     0.029 A 
HETATM   26  C   UNL     1      -1.472   5.630 -34.411  1.00  0.00     0.002 A 
HETATM   27  C   UNL     1      -0.802   6.534 -33.593  1.00  0.00     0.000 A 
HETATM   28  C   UNL     1      -0.903   6.420 -32.210  1.00  0.00     0.002 A 
HETATM   29  C   UNL     1      -1.658   5.387 -31.648  1.00  0.00     0.029 A 
ENDBRANCH  20  24
ENDBRANCH   2  18
TORSDOF 5
ENDMDL
MODEL 9
REMARK VINA RESULT:      -7.8      2.151      9.179
REMARK  5 active torsions:
REMARK  status: ('A' for Active; 'I' for Inactive)
REMARK    1  A    between atoms: C_7  and  S_8 
REMARK    2  A    between atoms: S_8  and  C_9 
REMARK    3  A    between atoms: C_9  and  C_10 
REMARK       I    between atoms: C_10  and  N_11 
REMARK    4  A    between atoms: N_11  and  N_12 
REMARK       I    between atoms: N_12  and  C_13 
REMARK       I    between atoms: C_13  and  N_14 
REMARK    5  A    between atoms: N_14  and  C_15 
ROOT
HETATM    1  C   UNL     1      -8.182   1.144 -33.150  1.00  0.00     0.245 C 
HETATM    2  N   UNL     1      -7.356   0.420 -32.321  1.00  0.00    -0.265 N 
HETATM    3  O   UNL     1      -8.150   0.996 -34.376  1.00  0.00    -0.271 OA
HETATM    4  H   UNL     1      -7.405   0.449 -31.302  1.00  0.00     0.190 HD
ENDROOT
BRANCH   1   5
HETATM    5  C   UNL     1      -9.218   2.031 -32.492  1.00  0.00     0.184 C 
BRANCH   5   6
HETATM    6  S   UNL     1     -10.115   3.093 -33.659  1.00  0.00    -0.118 SA
BRANCH   6   7
HETATM    7  C   UNL     1     -11.685   3.093 -32.879  1.00  0.00     0.035 A 
HETATM    8  C   UNL     1     -12.027   3.843 -31.774  1.00  0.00     0.023 A 
HETATM    9  C   UNL     1     -11.237   4.783 -30.938  1.00  0.00     0.069 C 
HETATM   10  N   UNL     1     -13.352   3.588 -31.513  1.00  0.00    -0.358 N 
HETATM   11  H   UNL     1     -13.886   4.000 -30.761  1.00  0.00     0.166 HD
HETATM   12  C   UNL     1     -13.865   2.693 -32.425  1.00  0.00     0.044 A 
HETATM   13  C   UNL     1     -12.827   2.345 -33.291  1.00  0.00     0.009 A 
HETATM   14  C   UNL     1     -15.158   2.171 -32.543  1.00  0.00     0.030 A 
HETATM   15  C   UNL     1     -13.095   1.412 -34.315  1.00  0.00     0.015 A 
HETATM   16  C   UNL     1     -14.384   0.880 -34.447  1.00  0.00     0.001 A 
HETATM   17  C   UNL     1     -15.399   1.259 -33.573  1.00  0.00     0.002 A 
ENDBRANCH   6   7
ENDBRANCH   5   6
ENDBRANCH   1   5
BRANCH   2  18
HETATM   18  N   UNL     1      -6.515  -0.540 -32.908  1.00  0.00    -0.249 N 
HETATM   19  C   UNL     1      -5.221  -0.183 -33.169  1.00  0.00     0.339 C 
HETATM   20  N   UNL     1      -4.354  -1.170 -33.540  1.00  0.00    -0.308 N 
HETATM   21  O   UNL     1      -4.817   0.973 -33.033  1.00  0.00    -0.245 OA
HETATM   22  H   UNL     1      -3.396  -0.843 -33.514  1.00  0.00     0.170 HD
HETATM   23  H   UNL     1      -6.669  -1.481 -32.548  1.00  0.00     0.192 HD
BRANCH  20  24
HETATM   24  C   UNL     1      -4.551  -2.517 -33.901  1.00  0.00     0.036 A 
HETATM   25  C   UNL     1      -5.522  -2.961 -34.804  1.00  0.00     0.029 A 
HETATM   26  C   UNL     1      -5.669  -4.326 -35.074  1.00  0.00     0.002 A 
HETATM   27  C   UNL     1      -4.833  -5.256 -34.464  1.00  0.00     0.000 A 
HETATM   28  C   UNL     1      -3.833  -4.821 -33.598  1.00  0.00     0.002 A 
HETATM   29  C   UNL     1      -3.687  -3.459 -33.328  1.00  0.00     0.029 A 
ENDBRANCH  20  24
ENDBRANCH   2  18
TORSDOF 5
ENDMDL
MODEL 10
REMARK VINA RESULT:      -7.7      2.507      8.257
REMARK  5 active torsions:
REMARK  status: ('A' for Active; 'I' for Inactive)
REMARK    1  A    between atoms: C_7  and  S_8 
REMARK    2  A    between atoms: S_8  and  C_9 
REMARK    3  A    between atoms: C_9  and  C_10 
REMARK       I    between atoms: C_10  and  N_11 
REMARK    4  A    between atoms: N_11  and  N_12 
REMARK       I    between atoms: N_12  and  C_13 
REMARK       I    between atoms: C_13  and  N_14 
REMARK    5  A    between atoms: N_14  and  C_15 
ROOT
HETATM    1  C   UNL     1      -9.561   3.227 -30.763  1.00  0.00     0.245 C 
HETATM    2  N   UNL     1      -9.661   1.854 -30.768  1.00  0.00    -0.265 N 
HETATM    3  O   UNL     1      -8.508   3.795 -31.071  1.00  0.00    -0.271 OA
HETATM    4  H   UNL     1     -10.529   1.346 -30.602  1.00  0.00     0.190 HD
ENDROOT
BRANCH   1   5
HETATM    5  C   UNL     1     -10.826   4.011 -30.490  1.00  0.00     0.184 C 
BRANCH   5   6
HETATM    6  S   UNL     1     -11.396   4.992 -31.907  1.00  0.00    -0.118 SA
BRANCH   6   7
HETATM    7  C   UNL     1     -11.703   3.689 -33.038  1.00  0.00     0.035 A 
HETATM    8  C   UNL     1     -10.833   3.261 -34.018  1.00  0.00     0.023 A 
HETATM    9  C   UNL     1      -9.489   3.746 -34.422  1.00  0.00     0.069 C 
HETATM   10  N   UNL     1     -11.433   2.197 -34.648  1.00  0.00    -0.358 N 
HETATM   11  H   UNL     1     -11.031   1.670 -35.410  1.00  0.00     0.166 HD
HETATM   12  C   UNL     1     -12.666   1.935 -34.093  1.00  0.00     0.044 A 
HETATM   13  C   UNL     1     -12.874   2.877 -33.084  1.00  0.00     0.009 A 
HETATM   14  C   UNL     1     -13.602   0.944 -34.410  1.00  0.00     0.030 A 
HETATM   15  C   UNL     1     -14.091   2.833 -32.370  1.00  0.00     0.015 A 
HETATM   16  C   UNL     1     -15.038   1.849 -32.675  1.00  0.00     0.001 A 
HETATM   17  C   UNL     1     -14.792   0.916 -33.679  1.00  0.00     0.002 A 
ENDBRANCH   6   7
ENDBRANCH   5   6
ENDBRANCH   1   5
BRANCH   2  18
HETATM   18  N   UNL     1      -8.544   1.117 -31.196  1.00  0.00    -0.249 N 
HETATM   19  C   UNL     1      -8.676   0.352 -32.322  1.00  0.00     0.339 C 
HETATM   20  N   UNL     1      -7.543  -0.193 -32.855  1.00  0.00    -0.308 N 
HETATM   21  O   UNL     1      -9.760   0.187 -32.884  1.00  0.00    -0.245 OA
HETATM   22  H   UNL     1      -7.716  -0.565 -33.781  1.00  0.00     0.170 HD
HETATM   23  H   UNL     1      -7.664   1.618 -31.082  1.00  0.00     0.192 HD
BRANCH  20  24
HETATM   24  C   UNL     1      -6.222  -0.290 -32.374  1.00  0.00     0.036 A 
HETATM   25  C   UNL     1      -5.783   0.236 -31.155  1.00  0.00     0.029 A 
HETATM   26  C   UNL     1      -4.442   0.124 -30.775  1.00  0.00     0.002 A 
HETATM   27  C   UNL     1      -3.532  -0.534 -31.598  1.00  0.00     0.000 A 
HETATM   28  C   UNL     1      -3.967  -1.101 -32.793  1.00  0.00     0.002 A 
HETATM   29  C   UNL     1      -5.308  -0.988 -33.171  1.00  0.00     0.029 A 
ENDBRANCH  20  24
ENDBRANCH   2  18
TORSDOF 5
ENDMDL
