MODEL 1
REMARK VINA RESULT:      -8.4      0.000      0.000
REMARK  5 active torsions:
REMARK  status: ('A' for Active; 'I' for Inactive)
REMARK    1  A    between atoms: C_2  and  C_3 
REMARK    2  A    between atoms: C_6  and  C_7 
REMARK    3  A    between atoms: C_9  and  C_10 
REMARK    4  A    between atoms: C_10  and  N_11 
REMARK       I    between atoms: N_11  and  C_12 
REMARK       I    between atoms: C_12  and  N_13 
REMARK    5  A    between atoms: N_13  and  C_14 
ROOT
HETATM    1  N   UNL     1      -3.892   1.908 -32.225  1.00  0.00    -0.338 N 
HETATM    2  C   UNL     1      -3.462   0.782 -31.601  1.00  0.00     0.321 C 
HETATM    3  N   UNL     1      -4.202  -0.350 -31.779  1.00  0.00    -0.308 N 
HETATM    4  O   UNL     1      -2.492   0.761 -30.846  1.00  0.00    -0.247 OA
HETATM    5  H   UNL     1      -4.822   1.899 -32.615  1.00  0.00     0.164 HD
HETATM    6  H   UNL     1      -4.039  -1.009 -31.026  1.00  0.00     0.170 HD
ENDROOT
BRANCH   1   7
HETATM    7  C   UNL     1      -3.190   3.164 -32.147  1.00  0.00     0.167 C 
BRANCH   7   8
HETATM    8  C   UNL     1      -3.692   4.064 -33.210  1.00  0.00     0.018 A 
HETATM    9  C   UNL     1      -2.956   4.943 -34.054  1.00  0.00     0.072 A 
HETATM   10  N   UNL     1      -3.763   5.617 -34.882  1.00  0.00    -0.132 NA
HETATM   11  O   UNL     1      -5.043   5.187 -34.596  1.00  0.00    -0.217 OA
HETATM   12  C   UNL     1      -5.000   4.261 -33.602  1.00  0.00     0.088 A 
BRANCH   9  13
HETATM   13  C   UNL     1      -1.484   5.176 -34.109  1.00  0.00     0.058 C 
HETATM   14  C   UNL     1      -1.116   6.629 -33.846  1.00  0.00     0.011 C 
ENDBRANCH   9  13
BRANCH  12  15
HETATM   15  C   UNL     1      -6.304   3.698 -33.174  1.00  0.00     0.063 C 
HETATM   16  C   UNL     1      -6.911   2.815 -34.252  1.00  0.00     0.012 C 
ENDBRANCH  12  15
ENDBRANCH   7   8
ENDBRANCH   1   7
BRANCH   3  17
HETATM   17  C   UNL     1      -5.240  -0.659 -32.685  1.00  0.00     0.047 A 
HETATM   18  C   UNL     1      -6.610  -0.292 -32.524  1.00  0.00     0.001 A 
HETATM   19  C   UNL     1      -7.551  -0.778 -33.470  1.00  0.00    -0.024 A 
HETATM   20  C   UNL     1      -7.108   0.585 -31.527  1.00  0.00     0.014 A 
HETATM   21  C   UNL     1      -8.917  -0.481 -33.330  1.00  0.00     0.012 A 
HETATM   22  C   UNL     1      -7.115  -1.531 -34.569  1.00  0.00     0.012 A 
HETATM   23  C   UNL     1      -9.375   0.330 -32.295  1.00  0.00     0.001 A 
HETATM   24  C   UNL     1      -8.468   0.879 -31.403  1.00  0.00     0.001 A 
HETATM   25  C   UNL     1      -5.765  -1.796 -34.766  1.00  0.00     0.003 A 
HETATM   26  C   UNL     1      -4.833  -1.353 -33.833  1.00  0.00     0.030 A 
ENDBRANCH   3  17
TORSDOF 5
ENDMDL
MODEL 2
REMARK VINA RESULT:      -8.4      0.781      2.419
REMARK  5 active torsions:
REMARK  status: ('A' for Active; 'I' for Inactive)
REMARK    1  A    between atoms: C_2  and  C_3 
REMARK    2  A    between atoms: C_6  and  C_7 
REMARK    3  A    between atoms: C_9  and  C_10 
REMARK    4  A    between atoms: C_10  and  N_11 
REMARK       I    between atoms: N_11  and  C_12 
REMARK       I    between atoms: C_12  and  N_13 
REMARK    5  A    between atoms: N_13  and  C_14 
ROOT
HETATM    1  N   UNL     1      -3.800   2.096 -32.191  1.00  0.00    -0.338 N 
HETATM    2  C   UNL     1      -3.430   1.055 -31.403  1.00  0.00     0.321 C 
HETATM    3  N   UNL     1      -4.285  -0.005 -31.327  1.00  0.00    -0.308 N 
HETATM    4  O   UNL     1      -2.409   1.061 -30.720  1.00  0.00    -0.247 OA
HETATM    5  H   UNL     1      -4.756   2.119 -32.515  1.00  0.00     0.164 HD
HETATM    6  H   UNL     1      -4.126  -0.537 -30.480  1.00  0.00     0.170 HD
ENDROOT
BRANCH   1   7
HETATM    7  C   UNL     1      -2.979   3.263 -32.386  1.00  0.00     0.167 C 
BRANCH   7   8
HETATM    8  C   UNL     1      -3.635   4.157 -33.367  1.00  0.00     0.018 A 
HETATM    9  C   UNL     1      -3.034   4.996 -34.348  1.00  0.00     0.072 A 
HETATM   10  N   UNL     1      -3.956   5.678 -35.039  1.00  0.00    -0.132 NA
HETATM   11  O   UNL     1      -5.176   5.293 -34.524  1.00  0.00    -0.217 OA
HETATM   12  C   UNL     1      -4.986   4.386 -33.530  1.00  0.00     0.088 A 
BRANCH   9  13
HETATM   13  C   UNL     1      -1.590   5.184 -34.664  1.00  0.00     0.058 C 
HETATM   14  C   UNL     1      -1.021   6.456 -34.053  1.00  0.00     0.011 C 
ENDBRANCH   9  13
BRANCH  12  15
HETATM   15  C   UNL     1      -6.209   3.871 -32.869  1.00  0.00     0.063 C 
HETATM   16  C   UNL     1      -7.363   3.742 -33.851  1.00  0.00     0.012 C 
ENDBRANCH  12  15
ENDBRANCH   7   8
ENDBRANCH   1   7
BRANCH   3  17
HETATM   17  C   UNL     1      -5.418  -0.352 -32.096  1.00  0.00     0.047 A 
HETATM   18  C   UNL     1      -5.439  -1.330 -33.136  1.00  0.00     0.001 A 
HETATM   19  C   UNL     1      -6.632  -1.480 -33.891  1.00  0.00    -0.024 A 
HETATM   20  C   UNL     1      -4.381  -2.224 -33.437  1.00  0.00     0.014 A 
HETATM   21  C   UNL     1      -6.690  -2.398 -34.953  1.00  0.00     0.012 A 
HETATM   22  C   UNL     1      -7.773  -0.736 -33.558  1.00  0.00     0.012 A 
HETATM   23  C   UNL     1      -5.602  -3.212 -35.261  1.00  0.00     0.001 A 
HETATM   24  C   UNL     1      -4.452  -3.138 -34.492  1.00  0.00     0.001 A 
HETATM   25  C   UNL     1      -7.765   0.140 -32.479  1.00  0.00     0.003 A 
HETATM   26  C   UNL     1      -6.596   0.323 -31.747  1.00  0.00     0.030 A 
ENDBRANCH   3  17
TORSDOF 5
ENDMDL
MODEL 3
REMARK VINA RESULT:      -8.3      0.427      2.604
REMARK  5 active torsions:
REMARK  status: ('A' for Active; 'I' for Inactive)
REMARK    1  A    between atoms: C_2  and  C_3 
REMARK    2  A    between atoms: C_6  and  C_7 
REMARK    3  A    between atoms: C_9  and  C_10 
REMARK    4  A    between atoms: C_10  and  N_11 
REMARK       I    between atoms: N_11  and  C_12 
REMARK       I    between atoms: C_12  and  N_13 
REMARK    5  A    between atoms: N_13  and  C_14 
ROOT
HETATM    1  N   UNL     1      -3.830   1.939 -32.263  1.00  0.00    -0.338 N 
HETATM    2  C   UNL     1      -3.454   0.809 -31.611  1.00  0.00     0.321 C 
HETATM    3  N   UNL     1      -4.243  -0.292 -31.766  1.00  0.00    -0.308 N 
HETATM    4  O   UNL     1      -2.489   0.763 -30.851  1.00  0.00    -0.247 OA
HETATM    5  H   UNL     1      -4.759   1.963 -32.658  1.00  0.00     0.164 HD
HETATM    6  H   UNL     1      -4.114  -0.939 -30.997  1.00  0.00     0.170 HD
ENDROOT
BRANCH   1   7
HETATM    7  C   UNL     1      -3.072   3.163 -32.212  1.00  0.00     0.167 C 
BRANCH   7   8
HETATM    8  C   UNL     1      -3.624   4.114 -33.203  1.00  0.00     0.018 A 
HETATM    9  C   UNL     1      -4.987   4.372 -33.527  1.00  0.00     0.072 A 
HETATM   10  N   UNL     1      -5.094   5.288 -34.497  1.00  0.00    -0.132 NA
HETATM   11  O   UNL     1      -3.802   5.648 -34.822  1.00  0.00    -0.217 OA
HETATM   12  C   UNL     1      -2.928   4.950 -34.051  1.00  0.00     0.088 A 
BRANCH   9  13
HETATM   13  C   UNL     1      -6.220   3.773 -32.941  1.00  0.00     0.058 C 
HETATM   14  C   UNL     1      -7.129   3.164 -33.999  1.00  0.00     0.011 C 
ENDBRANCH   9  13
BRANCH  12  15
HETATM   15  C   UNL     1      -1.488   5.223 -34.282  1.00  0.00     0.063 C 
HETATM   16  C   UNL     1      -1.107   6.626 -33.837  1.00  0.00     0.012 C 
ENDBRANCH  12  15
ENDBRANCH   7   8
ENDBRANCH   1   7
BRANCH   3  17
HETATM   17  C   UNL     1      -5.291  -0.575 -32.669  1.00  0.00     0.047 A 
HETATM   18  C   UNL     1      -6.658  -0.206 -32.486  1.00  0.00     0.001 A 
HETATM   19  C   UNL     1      -7.610  -0.666 -33.435  1.00  0.00    -0.024 A 
HETATM   20  C   UNL     1      -7.143   0.649 -31.464  1.00  0.00     0.014 A 
HETATM   21  C   UNL     1      -8.973  -0.367 -33.275  1.00  0.00     0.012 A 
HETATM   22  C   UNL     1      -7.188  -1.394 -34.556  1.00  0.00     0.012 A 
HETATM   23  C   UNL     1      -9.418   0.422 -32.217  1.00  0.00     0.001 A 
HETATM   24  C   UNL     1      -8.501   0.945 -31.321  1.00  0.00     0.001 A 
HETATM   25  C   UNL     1      -5.841  -1.660 -34.771  1.00  0.00     0.003 A 
HETATM   26  C   UNL     1      -4.898  -1.243 -33.837  1.00  0.00     0.030 A 
ENDBRANCH   3  17
TORSDOF 5
ENDMDL
MODEL 4
REMARK VINA RESULT:      -8.3      1.596      3.426
REMARK  5 active torsions:
REMARK  status: ('A' for Active; 'I' for Inactive)
REMARK    1  A    between atoms: C_2  and  C_3 
REMARK    2  A    between atoms: C_6  and  C_7 
REMARK    3  A    between atoms: C_9  and  C_10 
REMARK    4  A    between atoms: C_10  and  N_11 
REMARK       I    between atoms: N_11  and  C_12 
REMARK       I    between atoms: C_12  and  N_13 
REMARK    5  A    between atoms: N_13  and  C_14 
ROOT
HETATM    1  N   UNL     1      -4.217   3.016 -31.687  1.00  0.00    -0.338 N 
HETATM    2  C   UNL     1      -4.942   2.538 -30.644  1.00  0.00     0.321 C 
HETATM    3  N   UNL     1      -5.290   1.219 -30.679  1.00  0.00    -0.308 N 
HETATM    4  O   UNL     1      -5.345   3.248 -29.725  1.00  0.00    -0.247 OA
HETATM    5  H   UNL     1      -4.144   2.436 -32.510  1.00  0.00     0.164 HD
HETATM    6  H   UNL     1      -6.097   1.044 -30.093  1.00  0.00     0.170 HD
ENDROOT
BRANCH   1   7
HETATM    7  C   UNL     1      -3.758   4.379 -31.763  1.00  0.00     0.167 C 
BRANCH   7   8
HETATM    8  C   UNL     1      -3.679   4.783 -33.185  1.00  0.00     0.018 A 
HETATM    9  C   UNL     1      -4.704   4.769 -34.173  1.00  0.00     0.072 A 
HETATM   10  N   UNL     1      -4.246   5.187 -35.359  1.00  0.00    -0.132 NA
HETATM   11  O   UNL     1      -2.912   5.484 -35.167  1.00  0.00    -0.217 OA
HETATM   12  C   UNL     1      -2.575   5.245 -33.872  1.00  0.00     0.088 A 
BRANCH   9  13
HETATM   13  C   UNL     1      -6.133   4.368 -34.036  1.00  0.00     0.058 C 
HETATM   14  C   UNL     1      -6.973   5.435 -33.349  1.00  0.00     0.011 C 
ENDBRANCH   9  13
BRANCH  12  15
HETATM   15  C   UNL     1      -1.165   5.516 -33.502  1.00  0.00     0.063 C 
HETATM   16  C   UNL     1      -0.973   6.952 -33.044  1.00  0.00     0.012 C 
ENDBRANCH  12  15
ENDBRANCH   7   8
ENDBRANCH   1   7
BRANCH   3  17
HETATM   17  C   UNL     1      -4.852   0.156 -31.498  1.00  0.00     0.047 A 
HETATM   18  C   UNL     1      -5.568  -0.373 -32.613  1.00  0.00     0.001 A 
HETATM   19  C   UNL     1      -5.044  -1.520 -33.265  1.00  0.00    -0.024 A 
HETATM   20  C   UNL     1      -6.738   0.198 -33.177  1.00  0.00     0.014 A 
HETATM   21  C   UNL     1      -5.734  -2.105 -34.341  1.00  0.00     0.012 A 
HETATM   22  C   UNL     1      -3.813  -2.057 -32.860  1.00  0.00     0.012 A 
HETATM   23  C   UNL     1      -6.918  -1.552 -34.822  1.00  0.00     0.001 A 
HETATM   24  C   UNL     1      -7.412  -0.389 -34.252  1.00  0.00     0.001 A 
HETATM   25  C   UNL     1      -3.079  -1.470 -31.836  1.00  0.00     0.003 A 
HETATM   26  C   UNL     1      -3.593  -0.364 -31.166  1.00  0.00     0.030 A 
ENDBRANCH   3  17
TORSDOF 5
ENDMDL
MODEL 5
REMARK VINA RESULT:      -8.1      3.506      5.371
REMARK  5 active torsions:
REMARK  status: ('A' for Active; 'I' for Inactive)
REMARK    1  A    between atoms: C_2  and  C_3 
REMARK    2  A    between atoms: C_6  and  C_7 
REMARK    3  A    between atoms: C_9  and  C_10 
REMARK    4  A    between atoms: C_10  and  N_11 
REMARK       I    between atoms: N_11  and  C_12 
REMARK       I    between atoms: C_12  and  N_13 
REMARK    5  A    between atoms: N_13  and  C_14 
ROOT
HETATM    1  N   UNL     1      -5.370   1.092 -31.355  1.00  0.00    -0.338 N 
HETATM    2  C   UNL     1      -5.859   1.019 -30.090  1.00  0.00     0.321 C 
HETATM    3  N   UNL     1      -6.957   1.774 -29.802  1.00  0.00    -0.308 N 
HETATM    4  O   UNL     1      -5.320   0.366 -29.200  1.00  0.00    -0.247 OA
HETATM    5  H   UNL     1      -5.715   1.834 -31.946  1.00  0.00     0.164 HD
HETATM    6  H   UNL     1      -7.025   1.945 -28.805  1.00  0.00     0.170 HD
ENDROOT
BRANCH   1   7
HETATM    7  C   UNL     1      -4.236   0.325 -31.803  1.00  0.00     0.167 C 
BRANCH   7   8
HETATM    8  C   UNL     1      -4.682  -0.638 -32.835  1.00  0.00     0.018 A 
HETATM    9  C   UNL     1      -4.274  -1.988 -33.029  1.00  0.00     0.072 A 
HETATM   10  N   UNL     1      -4.883  -2.536 -34.088  1.00  0.00    -0.132 NA
HETATM   11  O   UNL     1      -5.702  -1.553 -34.604  1.00  0.00    -0.217 OA
HETATM   12  C   UNL     1      -5.584  -0.424 -33.857  1.00  0.00     0.088 A 
BRANCH   9  13
HETATM   13  C   UNL     1      -3.310  -2.800 -32.233  1.00  0.00     0.058 C 
HETATM   14  C   UNL     1      -3.273  -4.256 -32.675  1.00  0.00     0.011 C 
ENDBRANCH   9  13
BRANCH  12  15
HETATM   15  C   UNL     1      -6.405   0.734 -34.286  1.00  0.00     0.063 C 
HETATM   16  C   UNL     1      -7.410   0.341 -35.356  1.00  0.00     0.012 C 
ENDBRANCH  12  15
ENDBRANCH   7   8
ENDBRANCH   1   7
BRANCH   3  17
HETATM   17  C   UNL     1      -7.856   2.477 -30.633  1.00  0.00     0.047 A 
HETATM   18  C   UNL     1      -8.762   1.877 -31.559  1.00  0.00     0.001 A 
HETATM   19  C   UNL     1      -9.520   2.730 -32.405  1.00  0.00    -0.024 A 
HETATM   20  C   UNL     1      -9.024   0.487 -31.659  1.00  0.00     0.014 A 
HETATM   21  C   UNL     1     -10.393   2.187 -33.362  1.00  0.00     0.012 A 
HETATM   22  C   UNL     1      -9.425   4.122 -32.265  1.00  0.00     0.012 A 
HETATM   23  C   UNL     1     -10.572   0.811 -33.476  1.00  0.00     0.001 A 
HETATM   24  C   UNL     1      -9.901  -0.040 -32.612  1.00  0.00     0.001 A 
HETATM   25  C   UNL     1      -8.613   4.689 -31.290  1.00  0.00     0.003 A 
HETATM   26  C   UNL     1      -7.840   3.870 -30.474  1.00  0.00     0.030 A 
ENDBRANCH   3  17
TORSDOF 5
ENDMDL
MODEL 6
REMARK VINA RESULT:      -7.9      1.582      3.612
REMARK  5 active torsions:
REMARK  status: ('A' for Active; 'I' for Inactive)
REMARK    1  A    between atoms: C_2  and  C_3 
REMARK    2  A    between atoms: C_6  and  C_7 
REMARK    3  A    between atoms: C_9  and  C_10 
REMARK    4  A    between atoms: C_10  and  N_11 
REMARK       I    between atoms: N_11  and  C_12 
REMARK       I    between atoms: C_12  and  N_13 
REMARK    5  A    between atoms: N_13  and  C_14 
ROOT
HETATM    1  N   UNL     1      -4.671   2.618 -32.124  1.00  0.00    -0.338 N 
HETATM    2  C   UNL     1      -5.437   2.167 -31.098  1.00  0.00     0.321 C 
HETATM    3  N   UNL     1      -6.439   1.295 -31.404  1.00  0.00    -0.308 N 
HETATM    4  O   UNL     1      -5.307   2.560 -29.940  1.00  0.00    -0.247 OA
HETATM    5  H   UNL     1      -5.000   2.445 -33.062  1.00  0.00     0.164 HD
HETATM    6  H   UNL     1      -7.155   1.301 -30.687  1.00  0.00     0.170 HD
ENDROOT
BRANCH   1   7
HETATM    7  C   UNL     1      -3.562   3.517 -31.938  1.00  0.00     0.167 C 
BRANCH   7   8
HETATM    8  C   UNL     1      -3.457   4.405 -33.118  1.00  0.00     0.018 A 
HETATM    9  C   UNL     1      -4.418   4.643 -34.141  1.00  0.00     0.072 A 
HETATM   10  N   UNL     1      -3.952   5.497 -35.060  1.00  0.00    -0.132 NA
HETATM   11  O   UNL     1      -2.679   5.835 -34.652  1.00  0.00    -0.217 OA
HETATM   12  C   UNL     1      -2.385   5.187 -33.495  1.00  0.00     0.088 A 
BRANCH   9  13
HETATM   13  C   UNL     1      -5.792   4.082 -34.287  1.00  0.00     0.058 C 
HETATM   14  C   UNL     1      -6.856   4.987 -33.683  1.00  0.00     0.011 C 
ENDBRANCH   9  13
BRANCH  12  15
HETATM   15  C   UNL     1      -1.041   5.444 -32.922  1.00  0.00     0.063 C 
HETATM   16  C   UNL     1      -0.780   6.933 -32.758  1.00  0.00     0.012 C 
ENDBRANCH  12  15
ENDBRANCH   7   8
ENDBRANCH   1   7
BRANCH   3  17
HETATM   17  C   UNL     1      -6.721   0.567 -32.581  1.00  0.00     0.047 A 
HETATM   18  C   UNL     1      -5.948  -0.525 -33.079  1.00  0.00     0.001 A 
HETATM   19  C   UNL     1      -6.300  -1.078 -34.338  1.00  0.00    -0.024 A 
HETATM   20  C   UNL     1      -4.887  -1.158 -32.382  1.00  0.00     0.014 A 
HETATM   21  C   UNL     1      -5.544  -2.125 -34.891  1.00  0.00     0.012 A 
HETATM   22  C   UNL     1      -7.428  -0.604 -35.023  1.00  0.00     0.012 A 
HETATM   23  C   UNL     1      -4.465  -2.675 -34.204  1.00  0.00     0.001 A 
HETATM   24  C   UNL     1      -4.147  -2.204 -32.940  1.00  0.00     0.001 A 
HETATM   25  C   UNL     1      -8.229   0.393 -34.477  1.00  0.00     0.003 A 
HETATM   26  C   UNL     1      -7.881   0.967 -33.259  1.00  0.00     0.030 A 
ENDBRANCH   3  17
TORSDOF 5
ENDMDL
MODEL 7
REMARK VINA RESULT:      -7.8      4.305      6.811
REMARK  5 active torsions:
REMARK  status: ('A' for Active; 'I' for Inactive)
REMARK    1  A    between atoms: C_2  and  C_3 
REMARK    2  A    between atoms: C_6  and  C_7 
REMARK    3  A    between atoms: C_9  and  C_10 
REMARK    4  A    between atoms: C_10  and  N_11 
REMARK       I    between atoms: N_11  and  C_12 
REMARK       I    between atoms: C_12  and  N_13 
REMARK    5  A    between atoms: N_13  and  C_14 
ROOT
HETATM    1  N   UNL     1     -10.138   3.035 -32.367  1.00  0.00    -0.338 N 
HETATM    2  C   UNL     1      -9.126   3.900 -32.638  1.00  0.00     0.321 C 
HETATM    3  N   UNL     1      -7.855   3.464 -32.408  1.00  0.00    -0.308 N 
HETATM    4  O   UNL     1      -9.314   5.056 -33.009  1.00  0.00    -0.247 OA
HETATM    5  H   UNL     1      -9.913   2.207 -31.835  1.00  0.00     0.164 HD
HETATM    6  H   UNL     1      -7.223   4.245 -32.283  1.00  0.00     0.170 HD
ENDROOT
BRANCH   1   7
HETATM    7  C   UNL     1     -11.524   3.355 -32.592  1.00  0.00     0.167 C 
BRANCH   7   8
HETATM    8  C   UNL     1     -11.916   2.883 -33.939  1.00  0.00     0.018 A 
HETATM    9  C   UNL     1     -12.109   3.643 -35.128  1.00  0.00     0.072 A 
HETATM   10  N   UNL     1     -12.486   2.865 -36.150  1.00  0.00    -0.132 NA
HETATM   11  O   UNL     1     -12.542   1.581 -35.648  1.00  0.00    -0.217 OA
HETATM   12  C   UNL     1     -12.202   1.592 -34.332  1.00  0.00     0.088 A 
BRANCH   9  13
HETATM   13  C   UNL     1     -11.946   5.109 -35.340  1.00  0.00     0.058 C 
HETATM   14  C   UNL     1     -13.220   5.767 -35.853  1.00  0.00     0.011 C 
ENDBRANCH   9  13
BRANCH  12  15
HETATM   15  C   UNL     1     -12.216   0.280 -33.641  1.00  0.00     0.063 C 
HETATM   16  C   UNL     1     -13.606  -0.334 -33.636  1.00  0.00     0.012 C 
ENDBRANCH  12  15
ENDBRANCH   7   8
ENDBRANCH   1   7
BRANCH   3  17
HETATM   17  C   UNL     1      -7.339   2.176 -32.142  1.00  0.00     0.047 A 
HETATM   18  C   UNL     1      -7.219   1.123 -33.099  1.00  0.00     0.001 A 
HETATM   19  C   UNL     1      -6.786  -0.150 -32.644  1.00  0.00    -0.024 A 
HETATM   20  C   UNL     1      -7.431   1.261 -34.494  1.00  0.00     0.014 A 
HETATM   21  C   UNL     1      -6.693  -1.230 -33.539  1.00  0.00     0.012 A 
HETATM   22  C   UNL     1      -6.415  -0.328 -31.304  1.00  0.00     0.012 A 
HETATM   23  C   UNL     1      -6.977  -1.070 -34.892  1.00  0.00     0.001 A 
HETATM   24  C   UNL     1      -7.329   0.181 -35.375  1.00  0.00     0.001 A 
HETATM   25  C   UNL     1      -6.443   0.733 -30.407  1.00  0.00     0.003 A 
HETATM   26  C   UNL     1      -6.894   1.980 -30.827  1.00  0.00     0.030 A 
ENDBRANCH   3  17
TORSDOF 5
ENDMDL
MODEL 8
REMARK VINA RESULT:      -7.8      1.778      4.008
REMARK  5 active torsions:
REMARK  status: ('A' for Active; 'I' for Inactive)
REMARK    1  A    between atoms: C_2  and  C_3 
REMARK    2  A    between atoms: C_6  and  C_7 
REMARK    3  A    between atoms: C_9  and  C_10 
REMARK    4  A    between atoms: C_10  and  N_11 
REMARK       I    between atoms: N_11  and  C_12 
REMARK       I    between atoms: C_12  and  N_13 
REMARK    5  A    between atoms: N_13  and  C_14 
ROOT
HETATM    1  N   UNL     1      -4.972   1.635 -31.791  1.00  0.00    -0.338 N 
HETATM    2  C   UNL     1      -3.740   1.065 -31.829  1.00  0.00     0.321 C 
HETATM    3  N   UNL     1      -3.639  -0.161 -32.418  1.00  0.00    -0.308 N 
HETATM    4  O   UNL     1      -2.750   1.571 -31.305  1.00  0.00    -0.247 OA
HETATM    5  H   UNL     1      -5.763   1.050 -32.015  1.00  0.00     0.164 HD
HETATM    6  H   UNL     1      -2.815  -0.651 -32.090  1.00  0.00     0.170 HD
ENDROOT
BRANCH   1   7
HETATM    7  C   UNL     1      -5.216   2.938 -31.227  1.00  0.00     0.167 C 
BRANCH   7   8
HETATM    8  C   UNL     1      -5.410   3.911 -32.325  1.00  0.00     0.018 A 
HETATM    9  C   UNL     1      -6.537   4.076 -33.179  1.00  0.00     0.072 A 
HETATM   10  N   UNL     1      -6.333   5.050 -34.074  1.00  0.00    -0.132 NA
HETATM   11  O   UNL     1      -5.069   5.542 -33.818  1.00  0.00    -0.217 OA
HETATM   12  C   UNL     1      -4.520   4.865 -32.776  1.00  0.00     0.088 A 
BRANCH   9  13
HETATM   13  C   UNL     1      -7.828   3.332 -33.183  1.00  0.00     0.058 C 
HETATM   14  C   UNL     1      -8.951   4.121 -33.841  1.00  0.00     0.011 C 
ENDBRANCH   9  13
BRANCH  12  15
HETATM   15  C   UNL     1      -3.153   5.275 -32.375  1.00  0.00     0.063 C 
HETATM   16  C   UNL     1      -2.091   4.540 -33.178  1.00  0.00     0.012 C 
ENDBRANCH  12  15
ENDBRANCH   7   8
ENDBRANCH   1   7
BRANCH   3  17
HETATM   17  C   UNL     1      -4.541  -0.894 -33.219  1.00  0.00     0.047 A 
HETATM   18  C   UNL     1      -4.460  -2.294 -33.481  1.00  0.00     0.001 A 
HETATM   19  C   UNL     1      -5.382  -2.860 -34.401  1.00  0.00    -0.024 A 
HETATM   20  C   UNL     1      -3.571  -3.194 -32.840  1.00  0.00     0.014 A 
HETATM   21  C   UNL     1      -5.315  -4.225 -34.726  1.00  0.00     0.012 A 
HETATM   22  C   UNL     1      -6.387  -2.063 -34.967  1.00  0.00     0.012 A 
HETATM   23  C   UNL     1      -4.381  -5.063 -34.123  1.00  0.00     0.001 A 
HETATM   24  C   UNL     1      -3.519  -4.552 -33.166  1.00  0.00     0.001 A 
HETATM   25  C   UNL     1      -6.515  -0.722 -34.624  1.00  0.00     0.003 A 
HETATM   26  C   UNL     1      -5.602  -0.144 -33.748  1.00  0.00     0.030 A 
ENDBRANCH   3  17
TORSDOF 5
ENDMDL
MODEL 9
REMARK VINA RESULT:      -7.7      3.875      6.566
REMARK  5 active torsions:
REMARK  status: ('A' for Active; 'I' for Inactive)
REMARK    1  A    between atoms: C_2  and  C_3 
REMARK    2  A    between atoms: C_6  and  C_7 
REMARK    3  A    between atoms: C_9  and  C_10 
REMARK    4  A    between atoms: C_10  and  N_11 
REMARK       I    between atoms: N_11  and  C_12 
REMARK       I    between atoms: C_12  and  N_13 
REMARK    5  A    between atoms: N_13  and  C_14 
ROOT
HETATM    1  N   UNL     1      -8.937   2.648 -33.299  1.00  0.00    -0.338 N 
HETATM    2  C   UNL     1      -7.903   3.322 -33.866  1.00  0.00     0.321 C 
HETATM    3  N   UNL     1      -6.756   2.623 -34.098  1.00  0.00    -0.308 N 
HETATM    4  O   UNL     1      -7.941   4.526 -34.109  1.00  0.00    -0.247 OA
HETATM    5  H   UNL     1      -8.741   1.740 -32.905  1.00  0.00     0.164 HD
HETATM    6  H   UNL     1      -5.961   3.247 -34.168  1.00  0.00     0.170 HD
ENDROOT
BRANCH   1   7
HETATM    7  C   UNL     1     -10.214   3.256 -33.027  1.00  0.00     0.167 C 
BRANCH   7   8
HETATM    8  C   UNL     1     -11.129   2.983 -34.159  1.00  0.00     0.018 A 
HETATM    9  C   UNL     1     -11.880   1.805 -34.433  1.00  0.00     0.072 A 
HETATM   10  N   UNL     1     -12.579   1.924 -35.568  1.00  0.00    -0.132 NA
HETATM   11  O   UNL     1     -12.299   3.184 -36.055  1.00  0.00    -0.217 OA
HETATM   12  C   UNL     1     -11.438   3.815 -35.215  1.00  0.00     0.088 A 
BRANCH   9  13
HETATM   13  C   UNL     1     -11.965   0.542 -33.645  1.00  0.00     0.058 C 
HETATM   14  C   UNL     1     -13.347  -0.091 -33.710  1.00  0.00     0.011 C 
ENDBRANCH   9  13
BRANCH  12  15
HETATM   15  C   UNL     1     -11.034   5.189 -35.601  1.00  0.00     0.063 C 
HETATM   16  C   UNL     1     -12.037   6.223 -35.116  1.00  0.00     0.012 C 
ENDBRANCH  12  15
ENDBRANCH   7   8
ENDBRANCH   1   7
BRANCH   3  17
HETATM   17  C   UNL     1      -6.480   1.238 -34.070  1.00  0.00     0.047 A 
HETATM   18  C   UNL     1      -5.522   0.606 -33.221  1.00  0.00     0.001 A 
HETATM   19  C   UNL     1      -5.283  -0.782 -33.396  1.00  0.00    -0.024 A 
HETATM   20  C   UNL     1      -4.832   1.240 -32.157  1.00  0.00     0.014 A 
HETATM   21  C   UNL     1      -4.319  -1.441 -32.614  1.00  0.00     0.012 A 
HETATM   22  C   UNL     1      -6.033  -1.512 -34.329  1.00  0.00     0.012 A 
HETATM   23  C   UNL     1      -3.611  -0.766 -31.623  1.00  0.00     0.001 A 
HETATM   24  C   UNL     1      -3.880   0.572 -31.382  1.00  0.00     0.001 A 
HETATM   25  C   UNL     1      -7.032  -0.902 -35.078  1.00  0.00     0.003 A 
HETATM   26  C   UNL     1      -7.259   0.464 -34.942  1.00  0.00     0.030 A 
ENDBRANCH   3  17
TORSDOF 5
ENDMDL
MODEL 10
REMARK VINA RESULT:      -7.7      2.285      4.154
REMARK  5 active torsions:
REMARK  status: ('A' for Active; 'I' for Inactive)
REMARK    1  A    between atoms: C_2  and  C_3 
REMARK    2  A    between atoms: C_6  and  C_7 
REMARK    3  A    between atoms: C_9  and  C_10 
REMARK    4  A    between atoms: C_10  and  N_11 
REMARK       I    between atoms: N_11  and  C_12 
REMARK       I    between atoms: C_12  and  N_13 
REMARK    5  A    between atoms: N_13  and  C_14 
ROOT
HETATM    1  N   UNL     1      -6.785   2.603 -32.686  1.00  0.00    -0.338 N 
HETATM    2  C   UNL     1      -7.303   2.023 -31.574  1.00  0.00     0.321 C 
HETATM    3  N   UNL     1      -6.813   0.800 -31.222  1.00  0.00    -0.308 N 
HETATM    4  O   UNL     1      -8.223   2.518 -30.925  1.00  0.00    -0.247 OA
HETATM    5  H   UNL     1      -6.222   2.026 -33.293  1.00  0.00     0.164 HD
HETATM    6  H   UNL     1      -7.474   0.301 -30.638  1.00  0.00     0.170 HD
ENDROOT
BRANCH   1   7
HETATM    7  C   UNL     1      -7.189   3.904 -33.154  1.00  0.00     0.167 C 
BRANCH   7   8
HETATM    8  C   UNL     1      -6.160   4.896 -32.769  1.00  0.00     0.018 A 
HETATM    9  C   UNL     1      -6.078   5.679 -31.583  1.00  0.00     0.072 A 
HETATM   10  N   UNL     1      -5.010   6.486 -31.603  1.00  0.00    -0.132 NA
HETATM   11  O   UNL     1      -4.373   6.242 -32.802  1.00  0.00    -0.217 OA
HETATM   12  C   UNL     1      -5.056   5.294 -33.495  1.00  0.00     0.088 A 
BRANCH   9  13
HETATM   13  C   UNL     1      -6.990   5.695 -30.404  1.00  0.00     0.058 C 
HETATM   14  C   UNL     1      -8.261   6.491 -30.663  1.00  0.00     0.011 C 
ENDBRANCH   9  13
BRANCH  12  15
HETATM   15  C   UNL     1      -4.498   4.917 -34.816  1.00  0.00     0.063 C 
HETATM   16  C   UNL     1      -3.039   5.326 -34.943  1.00  0.00     0.012 C 
ENDBRANCH  12  15
ENDBRANCH   7   8
ENDBRANCH   1   7
BRANCH   3  17
HETATM   17  C   UNL     1      -5.684   0.079 -31.667  1.00  0.00     0.047 A 
HETATM   18  C   UNL     1      -5.677  -0.857 -32.745  1.00  0.00     0.001 A 
HETATM   19  C   UNL     1      -4.483  -1.584 -32.994  1.00  0.00    -0.024 A 
HETATM   20  C   UNL     1      -6.753  -1.075 -33.643  1.00  0.00     0.014 A 
HETATM   21  C   UNL     1      -4.439  -2.549 -34.016  1.00  0.00     0.012 A 
HETATM   22  C   UNL     1      -3.329  -1.319 -32.244  1.00  0.00     0.012 A 
HETATM   23  C   UNL     1      -5.542  -2.782 -34.833  1.00  0.00     0.001 A 
HETATM   24  C   UNL     1      -6.694  -2.033 -34.659  1.00  0.00     0.001 A 
HETATM   25  C   UNL     1      -3.324  -0.333 -31.264  1.00  0.00     0.003 A 
HETATM   26  C   UNL     1      -4.493   0.368 -30.985  1.00  0.00     0.030 A 
ENDBRANCH   3  17
TORSDOF 5
ENDMDL
