MODEL 1
REMARK VINA RESULT:      -8.2      0.000      0.000
REMARK  4 active torsions:
REMARK  status: ('A' for Active; 'I' for Inactive)
REMARK    1  A    between atoms: C_2  and  O_3 
REMARK    2  A    between atoms: O_3  and  C_4 
REMARK    3  A    between atoms: C_7  and  C_8 
REMARK       I    between atoms: C_8  and  N_9 
REMARK    4  A    between atoms: N_9  and  C_10 
ROOT
HETATM    1  C   UNL     1      -7.973   0.035 -32.999  1.00  0.00     0.262 C 
HETATM    2  N   UNL     1      -7.388  -0.747 -33.980  1.00  0.00    -0.321 N 
HETATM    3  O   UNL     1      -7.577   0.095 -31.840  1.00  0.00    -0.267 OA
HETATM    4  H   UNL     1      -7.832  -0.751 -34.892  1.00  0.00     0.169 HD
ENDROOT
BRANCH   1   5
HETATM    5  C   UNL     1      -9.159   0.850 -33.402  1.00  0.00     0.112 A 
HETATM    6  C   UNL     1     -10.480   0.413 -33.219  1.00  0.00     0.168 A 
HETATM    7  C   UNL     1     -11.571   1.199 -33.618  1.00  0.00     0.108 A 
HETATM    8  F   UNL     1     -10.699  -0.791 -32.664  1.00  0.00    -0.202 F 
HETATM    9  C   UNL     1     -11.335   2.436 -34.221  1.00  0.00     0.043 A 
HETATM   10  C   UNL     1     -10.033   2.890 -34.405  1.00  0.00     0.046 A 
HETATM   11  C   UNL     1      -8.959   2.103 -33.996  1.00  0.00     0.135 A 
HETATM   12  F   UNL     1      -7.730   2.591 -34.214  1.00  0.00    -0.205 F 
BRANCH   7  13
HETATM   13  O   UNL     1     -12.899   0.887 -33.505  1.00  0.00    -0.348 OA
BRANCH  13  14
HETATM   14  C   UNL     1     -13.785   1.377 -34.510  1.00  0.00     0.171 C 
HETATM   15  C   UNL     1     -15.119   0.674 -34.331  1.00  0.00     0.034 C 
ENDBRANCH  13  14
ENDBRANCH   7  13
ENDBRANCH   1   5
BRANCH   2  16
HETATM   16  C   UNL     1      -6.235  -1.558 -33.880  1.00  0.00     0.064 A 
HETATM   17  C   UNL     1      -6.079  -2.876 -34.337  1.00  0.00     0.088 A 
HETATM   18  C   UNL     1      -4.901  -3.604 -34.171  1.00  0.00     0.014 A 
HETATM   19  N   UNL     1      -6.920  -3.738 -34.996  1.00  0.00    -0.275 N 
HETATM   20  C   UNL     1      -5.164  -4.864 -34.754  1.00  0.00     0.152 A 
HETATM   21  C   UNL     1      -3.802  -3.013 -33.526  1.00  0.00     0.015 A 
HETATM   22  N   UNL     1      -6.396  -4.951 -35.257  1.00  0.00    -0.186 NA
HETATM   23  C   UNL     1      -3.923  -1.703 -33.065  1.00  0.00     0.003 A 
HETATM   24  C   UNL     1      -5.115  -0.996 -33.237  1.00  0.00     0.032 A 
HETATM   25  H   UNL     1      -7.873  -3.530 -35.290  1.00  0.00     0.189 HD
ENDBRANCH   2  16
TORSDOF 4
ENDMDL
MODEL 2
REMARK VINA RESULT:      -8.1      2.830      7.590
REMARK  4 active torsions:
REMARK  status: ('A' for Active; 'I' for Inactive)
REMARK    1  A    between atoms: C_2  and  O_3 
REMARK    2  A    between atoms: O_3  and  C_4 
REMARK    3  A    between atoms: C_7  and  C_8 
REMARK       I    between atoms: C_8  and  N_9 
REMARK    4  A    between atoms: N_9  and  C_10 
ROOT
HETATM    1  C   UNL     1      -9.283   0.948 -33.779  1.00  0.00     0.262 C 
HETATM    2  N   UNL     1     -10.457   0.378 -33.317  1.00  0.00    -0.321 N 
HETATM    3  O   UNL     1      -9.229   1.995 -34.415  1.00  0.00    -0.267 OA
HETATM    4  H   UNL     1     -10.381  -0.514 -32.842  1.00  0.00     0.169 HD
ENDROOT
BRANCH   1   5
HETATM    5  C   UNL     1      -8.012   0.223 -33.469  1.00  0.00     0.112 A 
HETATM    6  C   UNL     1      -7.343  -0.574 -34.409  1.00  0.00     0.168 A 
HETATM    7  C   UNL     1      -6.157  -1.248 -34.083  1.00  0.00     0.108 A 
HETATM    8  F   UNL     1      -7.860  -0.704 -35.643  1.00  0.00    -0.202 F 
HETATM    9  C   UNL     1      -5.641  -1.133 -32.790  1.00  0.00     0.043 A 
HETATM   10  C   UNL     1      -6.287  -0.341 -31.845  1.00  0.00     0.046 A 
HETATM   11  C   UNL     1      -7.459   0.330 -32.186  1.00  0.00     0.135 A 
HETATM   12  F   UNL     1      -8.039   1.065 -31.228  1.00  0.00    -0.205 F 
BRANCH   7  13
HETATM   13  O   UNL     1      -5.415  -2.059 -34.899  1.00  0.00    -0.348 OA
BRANCH  13  14
HETATM   14  C   UNL     1      -5.326  -3.441 -34.561  1.00  0.00     0.171 C 
HETATM   15  C   UNL     1      -6.617  -4.108 -35.002  1.00  0.00     0.034 C 
ENDBRANCH  13  14
ENDBRANCH   7  13
ENDBRANCH   1   5
BRANCH   2  16
HETATM   16  C   UNL     1     -11.773   0.881 -33.422  1.00  0.00     0.064 A 
HETATM   17  C   UNL     1     -12.193   2.209 -33.253  1.00  0.00     0.088 A 
HETATM   18  C   UNL     1     -13.527   2.604 -33.356  1.00  0.00     0.014 A 
HETATM   19  N   UNL     1     -11.517   3.370 -32.972  1.00  0.00    -0.275 N 
HETATM   20  C   UNL     1     -13.517   3.996 -33.111  1.00  0.00     0.152 A 
HETATM   21  C   UNL     1     -14.516   1.650 -33.648  1.00  0.00     0.015 A 
HETATM   22  N   UNL     1     -12.292   4.467 -32.874  1.00  0.00    -0.186 NA
HETATM   23  C   UNL     1     -14.130   0.322 -33.826  1.00  0.00     0.003 A 
HETATM   24  C   UNL     1     -12.790  -0.051 -33.712  1.00  0.00     0.032 A 
HETATM   25  H   UNL     1     -10.510   3.455 -32.840  1.00  0.00     0.189 HD
ENDBRANCH   2  16
TORSDOF 4
ENDMDL
MODEL 3
REMARK VINA RESULT:      -8.1      1.313      2.201
REMARK  4 active torsions:
REMARK  status: ('A' for Active; 'I' for Inactive)
REMARK    1  A    between atoms: C_2  and  O_3 
REMARK    2  A    between atoms: O_3  and  C_4 
REMARK    3  A    between atoms: C_7  and  C_8 
REMARK       I    between atoms: C_8  and  N_9 
REMARK    4  A    between atoms: N_9  and  C_10 
ROOT
HETATM    1  C   UNL     1      -8.040   0.155 -32.985  1.00  0.00     0.262 C 
HETATM    2  N   UNL     1      -7.380  -0.509 -34.006  1.00  0.00    -0.321 N 
HETATM    3  O   UNL     1      -7.773   0.026 -31.795  1.00  0.00    -0.267 OA
HETATM    4  H   UNL     1      -7.719  -0.358 -34.949  1.00  0.00     0.169 HD
ENDROOT
BRANCH   1   5
HETATM    5  C   UNL     1      -9.140   1.085 -33.385  1.00  0.00     0.112 A 
HETATM    6  C   UNL     1     -10.497   0.767 -33.228  1.00  0.00     0.168 A 
HETATM    7  C   UNL     1     -11.506   1.658 -33.623  1.00  0.00     0.108 A 
HETATM    8  F   UNL     1     -10.835  -0.424 -32.704  1.00  0.00    -0.202 F 
HETATM    9  C   UNL     1     -11.149   2.882 -34.194  1.00  0.00     0.043 A 
HETATM   10  C   UNL     1      -9.808   3.218 -34.350  1.00  0.00     0.046 A 
HETATM   11  C   UNL     1      -8.817   2.326 -33.947  1.00  0.00     0.135 A 
HETATM   12  F   UNL     1      -7.546   2.704 -34.137  1.00  0.00    -0.205 F 
BRANCH   7  13
HETATM   13  O   UNL     1     -12.858   1.468 -33.533  1.00  0.00    -0.348 OA
BRANCH  13  14
HETATM   14  C   UNL     1     -13.480   0.641 -34.515  1.00  0.00     0.171 C 
HETATM   15  C   UNL     1     -14.978   0.686 -34.274  1.00  0.00     0.034 C 
ENDBRANCH  13  14
ENDBRANCH   7  13
ENDBRANCH   1   5
BRANCH   2  16
HETATM   16  C   UNL     1      -6.279  -1.389 -33.908  1.00  0.00     0.064 A 
HETATM   17  C   UNL     1      -5.161  -1.264 -33.070  1.00  0.00     0.088 A 
HETATM   18  C   UNL     1      -4.109  -2.180 -33.063  1.00  0.00     0.014 A 
HETATM   19  N   UNL     1      -4.803  -0.330 -32.130  1.00  0.00    -0.275 N 
HETATM   20  C   UNL     1      -3.199  -1.686 -32.101  1.00  0.00     0.152 A 
HETATM   21  C   UNL     1      -4.147  -3.292 -33.920  1.00  0.00     0.015 A 
HETATM   22  N   UNL     1      -3.618  -0.556 -31.530  1.00  0.00    -0.186 NA
HETATM   23  C   UNL     1      -5.248  -3.448 -34.762  1.00  0.00     0.003 A 
HETATM   24  C   UNL     1      -6.287  -2.515 -34.755  1.00  0.00     0.032 A 
HETATM   25  H   UNL     1      -5.351   0.487 -31.863  1.00  0.00     0.189 HD
ENDBRANCH   2  16
TORSDOF 4
ENDMDL
MODEL 4
REMARK VINA RESULT:      -8.0      2.555      7.096
REMARK  4 active torsions:
REMARK  status: ('A' for Active; 'I' for Inactive)
REMARK    1  A    between atoms: C_2  and  O_3 
REMARK    2  A    between atoms: O_3  and  C_4 
REMARK    3  A    between atoms: C_7  and  C_8 
REMARK       I    between atoms: C_8  and  N_9 
REMARK    4  A    between atoms: N_9  and  C_10 
ROOT
HETATM    1  C   UNL     1      -8.746   0.407 -32.834  1.00  0.00     0.262 C 
HETATM    2  N   UNL     1      -9.102   1.190 -33.919  1.00  0.00    -0.321 N 
HETATM    3  O   UNL     1      -9.471   0.199 -31.868  1.00  0.00    -0.267 OA
HETATM    4  H   UNL     1      -8.401   1.328 -34.639  1.00  0.00     0.169 HD
ENDROOT
BRANCH   1   5
HETATM    5  C   UNL     1      -7.387  -0.216 -32.868  1.00  0.00     0.112 A 
HETATM    6  C   UNL     1      -6.962  -1.056 -33.907  1.00  0.00     0.168 A 
HETATM    7  C   UNL     1      -5.683  -1.632 -33.904  1.00  0.00     0.108 A 
HETATM    8  F   UNL     1      -7.805  -1.324 -34.918  1.00  0.00    -0.202 F 
HETATM    9  C   UNL     1      -4.821  -1.373 -32.835  1.00  0.00     0.043 A 
HETATM   10  C   UNL     1      -5.223  -0.536 -31.798  1.00  0.00     0.046 A 
HETATM   11  C   UNL     1      -6.493   0.036 -31.820  1.00  0.00     0.135 A 
HETATM   12  F   UNL     1      -6.823   0.821 -30.785  1.00  0.00    -0.205 F 
BRANCH   7  13
HETATM   13  O   UNL     1      -5.151  -2.471 -34.845  1.00  0.00    -0.348 OA
BRANCH  13  14
HETATM   14  C   UNL     1      -5.182  -3.872 -34.582  1.00  0.00     0.171 C 
HETATM   15  C   UNL     1      -6.391  -4.449 -35.296  1.00  0.00     0.034 C 
ENDBRANCH  13  14
ENDBRANCH   7  13
ENDBRANCH   1   5
BRANCH   2  16
HETATM   16  C   UNL     1     -10.334   1.838 -34.163  1.00  0.00     0.064 A 
HETATM   17  C   UNL     1     -11.622   1.320 -33.965  1.00  0.00     0.088 A 
HETATM   18  C   UNL     1     -12.783   2.036 -34.258  1.00  0.00     0.014 A 
HETATM   19  N   UNL     1     -12.078   0.116 -33.489  1.00  0.00    -0.275 N 
HETATM   20  C   UNL     1     -13.845   1.163 -33.929  1.00  0.00     0.152 A 
HETATM   21  C   UNL     1     -12.688   3.340 -34.771  1.00  0.00     0.015 A 
HETATM   22  N   UNL     1     -13.418  -0.011 -33.460  1.00  0.00    -0.186 NA
HETATM   23  C   UNL     1     -11.420   3.885 -34.975  1.00  0.00     0.003 A 
HETATM   24  C   UNL     1     -10.272   3.148 -34.679  1.00  0.00     0.032 A 
HETATM   25  H   UNL     1     -11.495  -0.655 -33.167  1.00  0.00     0.189 HD
ENDBRANCH   2  16
TORSDOF 4
ENDMDL
MODEL 5
REMARK VINA RESULT:      -8.0      5.707      8.033
REMARK  4 active torsions:
REMARK  status: ('A' for Active; 'I' for Inactive)
REMARK    1  A    between atoms: C_2  and  O_3 
REMARK    2  A    between atoms: O_3  and  C_4 
REMARK    3  A    between atoms: C_7  and  C_8 
REMARK       I    between atoms: C_8  and  N_9 
REMARK    4  A    between atoms: N_9  and  C_10 
ROOT
HETATM    1  C   UNL     1      -3.588   2.404 -32.083  1.00  0.00     0.262 C 
HETATM    2  N   UNL     1      -3.580   3.461 -32.978  1.00  0.00    -0.321 N 
HETATM    3  O   UNL     1      -2.762   2.253 -31.190  1.00  0.00    -0.267 OA
HETATM    4  H   UNL     1      -4.288   3.455 -33.704  1.00  0.00     0.169 HD
ENDROOT
BRANCH   1   5
HETATM    5  C   UNL     1      -4.685   1.399 -32.234  1.00  0.00     0.112 A 
HETATM    6  C   UNL     1      -4.516   0.189 -32.922  1.00  0.00     0.168 A 
HETATM    7  C   UNL     1      -5.569  -0.729 -33.053  1.00  0.00     0.108 A 
HETATM    8  F   UNL     1      -3.325  -0.088 -33.478  1.00  0.00    -0.202 F 
HETATM    9  C   UNL     1      -6.813  -0.423 -32.498  1.00  0.00     0.043 A 
HETATM   10  C   UNL     1      -6.998   0.770 -31.806  1.00  0.00     0.046 A 
HETATM   11  C   UNL     1      -5.941   1.668 -31.676  1.00  0.00     0.135 A 
HETATM   12  F   UNL     1      -6.188   2.804 -31.010  1.00  0.00    -0.205 F 
BRANCH   7  13
HETATM   13  O   UNL     1      -5.539  -1.934 -33.702  1.00  0.00    -0.348 OA
BRANCH  13  14
HETATM   14  C   UNL     1      -6.727  -2.361 -34.367  1.00  0.00     0.171 C 
HETATM   15  C   UNL     1      -6.485  -3.768 -34.884  1.00  0.00     0.034 C 
ENDBRANCH  13  14
ENDBRANCH   7  13
ENDBRANCH   1   5
BRANCH   2  16
HETATM   16  C   UNL     1      -2.700   4.565 -33.020  1.00  0.00     0.064 A 
HETATM   17  C   UNL     1      -2.382   5.441 -31.970  1.00  0.00     0.088 A 
HETATM   18  C   UNL     1      -1.513   6.521 -32.118  1.00  0.00     0.014 A 
HETATM   19  N   UNL     1      -2.775   5.499 -30.656  1.00  0.00    -0.275 N 
HETATM   20  C   UNL     1      -1.478   7.139 -30.848  1.00  0.00     0.152 A 
HETATM   21  C   UNL     1      -0.908   6.765 -33.363  1.00  0.00     0.015 A 
HETATM   22  N   UNL     1      -2.248   6.519 -29.953  1.00  0.00    -0.186 NA
HETATM   23  C   UNL     1      -1.200   5.909 -34.425  1.00  0.00     0.003 A 
HETATM   24  C   UNL     1      -2.078   4.837 -34.255  1.00  0.00     0.032 A 
HETATM   25  H   UNL     1      -3.409   4.847 -30.196  1.00  0.00     0.189 HD
ENDBRANCH   2  16
TORSDOF 4
ENDMDL
MODEL 6
REMARK VINA RESULT:      -7.9      6.028      8.103
REMARK  4 active torsions:
REMARK  status: ('A' for Active; 'I' for Inactive)
REMARK    1  A    between atoms: C_2  and  O_3 
REMARK    2  A    between atoms: O_3  and  C_4 
REMARK    3  A    between atoms: C_7  and  C_8 
REMARK       I    between atoms: C_8  and  N_9 
REMARK    4  A    between atoms: N_9  and  C_10 
ROOT
HETATM    1  C   UNL     1      -3.821   3.067 -31.695  1.00  0.00     0.262 C 
HETATM    2  N   UNL     1      -2.855   3.400 -32.629  1.00  0.00    -0.321 N 
HETATM    3  O   UNL     1      -4.169   3.798 -30.774  1.00  0.00    -0.267 OA
HETATM    4  H   UNL     1      -2.618   2.695 -33.319  1.00  0.00     0.169 HD
ENDROOT
BRANCH   1   5
HETATM    5  C   UNL     1      -4.470   1.728 -31.842  1.00  0.00     0.112 A 
HETATM    6  C   UNL     1      -5.755   1.562 -32.379  1.00  0.00     0.168 A 
HETATM    7  C   UNL     1      -6.340   0.292 -32.494  1.00  0.00     0.108 A 
HETATM    8  F   UNL     1      -6.444   2.645 -32.776  1.00  0.00    -0.202 F 
HETATM    9  C   UNL     1      -5.630  -0.827 -32.052  1.00  0.00     0.043 A 
HETATM   10  C   UNL     1      -4.351  -0.683 -31.523  1.00  0.00     0.046 A 
HETATM   11  C   UNL     1      -3.780   0.584 -31.423  1.00  0.00     0.135 A 
HETATM   12  F   UNL     1      -2.552   0.656 -30.893  1.00  0.00    -0.205 F 
BRANCH   7  13
HETATM   13  O   UNL     1      -7.581  -0.006 -32.988  1.00  0.00    -0.348 OA
BRANCH  13  14
HETATM   14  C   UNL     1      -7.653  -0.798 -34.171  1.00  0.00     0.171 C 
HETATM   15  C   UNL     1      -7.432   0.123 -35.358  1.00  0.00     0.034 C 
ENDBRANCH  13  14
ENDBRANCH   7  13
ENDBRANCH   1   5
BRANCH   2  16
HETATM   16  C   UNL     1      -2.137   4.611 -32.752  1.00  0.00     0.064 A 
HETATM   17  C   UNL     1      -1.340   5.231 -31.778  1.00  0.00     0.088 A 
HETATM   18  C   UNL     1      -0.686   6.444 -31.990  1.00  0.00     0.014 A 
HETATM   19  N   UNL     1      -1.003   4.885 -30.493  1.00  0.00    -0.275 N 
HETATM   20  C   UNL     1      -0.013   6.715 -30.777  1.00  0.00     0.152 A 
HETATM   21  C   UNL     1      -0.809   7.096 -33.229  1.00  0.00     0.015 A 
HETATM   22  N   UNL     1      -0.206   5.766 -29.860  1.00  0.00    -0.186 NA
HETATM   23  C   UNL     1      -1.591   6.503 -34.220  1.00  0.00     0.003 A 
HETATM   24  C   UNL     1      -2.241   5.290 -33.982  1.00  0.00     0.032 A 
HETATM   25  H   UNL     1      -1.301   4.040 -30.007  1.00  0.00     0.189 HD
ENDBRANCH   2  16
TORSDOF 4
ENDMDL
MODEL 7
REMARK VINA RESULT:      -7.8      1.856      3.465
REMARK  4 active torsions:
REMARK  status: ('A' for Active; 'I' for Inactive)
REMARK    1  A    between atoms: C_2  and  O_3 
REMARK    2  A    between atoms: O_3  and  C_4 
REMARK    3  A    between atoms: C_7  and  C_8 
REMARK       I    between atoms: C_8  and  N_9 
REMARK    4  A    between atoms: N_9  and  C_10 
ROOT
HETATM    1  C   UNL     1      -8.716   0.289 -33.249  1.00  0.00     0.262 C 
HETATM    2  N   UNL     1      -8.015  -0.349 -34.257  1.00  0.00    -0.321 N 
HETATM    3  O   UNL     1      -8.368   0.309 -32.074  1.00  0.00    -0.267 OA
HETATM    4  H   UNL     1      -8.425  -0.336 -35.184  1.00  0.00     0.169 HD
ENDROOT
BRANCH   1   5
HETATM    5  C   UNL     1      -9.975   0.995 -33.643  1.00  0.00     0.112 A 
HETATM    6  C   UNL     1      -9.979   2.268 -34.232  1.00  0.00     0.168 A 
HETATM    7  C   UNL     1     -11.179   2.906 -34.581  1.00  0.00     0.108 A 
HETATM    8  F   UNL     1      -8.810   2.892 -34.450  1.00  0.00    -0.202 F 
HETATM    9  C   UNL     1     -12.392   2.264 -34.325  1.00  0.00     0.043 A 
HETATM   10  C   UNL     1     -12.407   0.998 -33.748  1.00  0.00     0.046 A 
HETATM   11  C   UNL     1     -11.208   0.373 -33.414  1.00  0.00     0.135 A 
HETATM   12  F   UNL     1     -11.292  -0.840 -32.849  1.00  0.00    -0.205 F 
BRANCH   7  13
HETATM   13  O   UNL     1     -11.322   4.143 -35.150  1.00  0.00    -0.348 OA
BRANCH  13  14
HETATM   14  C   UNL     1     -12.050   5.130 -34.422  1.00  0.00     0.171 C 
HETATM   15  C   UNL     1     -11.122   5.703 -33.367  1.00  0.00     0.034 C 
ENDBRANCH  13  14
ENDBRANCH   7  13
ENDBRANCH   1   5
BRANCH   2  16
HETATM   16  C   UNL     1      -6.780  -1.031 -34.168  1.00  0.00     0.064 A 
HETATM   17  C   UNL     1      -5.587  -0.560 -33.600  1.00  0.00     0.088 A 
HETATM   18  C   UNL     1      -4.408  -1.305 -33.580  1.00  0.00     0.014 A 
HETATM   19  N   UNL     1      -5.254   0.618 -32.978  1.00  0.00    -0.275 N 
HETATM   20  C   UNL     1      -3.461  -0.476 -32.939  1.00  0.00     0.152 A 
HETATM   21  C   UNL     1      -4.388  -2.593 -34.141  1.00  0.00     0.015 A 
HETATM   22  N   UNL     1      -3.972   0.700 -32.571  1.00  0.00    -0.186 NA
HETATM   23  C   UNL     1      -5.560  -3.092 -34.708  1.00  0.00     0.003 A 
HETATM   24  C   UNL     1      -6.727  -2.325 -34.722  1.00  0.00     0.032 A 
HETATM   25  H   UNL     1      -5.884   1.400 -32.807  1.00  0.00     0.189 HD
ENDBRANCH   2  16
TORSDOF 4
ENDMDL
MODEL 8
REMARK VINA RESULT:      -7.6      5.334      8.256
REMARK  4 active torsions:
REMARK  status: ('A' for Active; 'I' for Inactive)
REMARK    1  A    between atoms: C_2  and  O_3 
REMARK    2  A    between atoms: O_3  and  C_4 
REMARK    3  A    between atoms: C_7  and  C_8 
REMARK       I    between atoms: C_8  and  N_9 
REMARK    4  A    between atoms: N_9  and  C_10 
ROOT
HETATM    1  C   UNL     1      -4.342   1.862 -31.772  1.00  0.00     0.262 C 
HETATM    2  N   UNL     1      -3.610   2.810 -32.465  1.00  0.00    -0.321 N 
HETATM    3  O   UNL     1      -5.052   2.113 -30.804  1.00  0.00    -0.267 OA
HETATM    4  H   UNL     1      -3.022   2.476 -33.221  1.00  0.00     0.169 HD
ENDROOT
BRANCH   1   5
HETATM    5  C   UNL     1      -4.247   0.449 -32.253  1.00  0.00     0.112 A 
HETATM    6  C   UNL     1      -5.085  -0.071 -33.250  1.00  0.00     0.168 A 
HETATM    7  C   UNL     1      -4.976  -1.405 -33.673  1.00  0.00     0.108 A 
HETATM    8  F   UNL     1      -6.020   0.722 -33.799  1.00  0.00    -0.202 F 
HETATM    9  C   UNL     1      -4.021  -2.232 -33.078  1.00  0.00     0.043 A 
HETATM   10  C   UNL     1      -3.175  -1.732 -32.092  1.00  0.00     0.046 A 
HETATM   11  C   UNL     1      -3.290  -0.403 -31.688  1.00  0.00     0.135 A 
HETATM   12  F   UNL     1      -2.456   0.013 -30.726  1.00  0.00    -0.205 F 
BRANCH   7  13
HETATM   13  O   UNL     1      -5.732  -2.035 -34.623  1.00  0.00    -0.348 OA
BRANCH  13  14
HETATM   14  C   UNL     1      -5.344  -3.350 -35.017  1.00  0.00     0.171 C 
HETATM   15  C   UNL     1      -6.596  -4.209 -35.051  1.00  0.00     0.034 C 
ENDBRANCH  13  14
ENDBRANCH   7  13
ENDBRANCH   1   5
BRANCH   2  16
HETATM   16  C   UNL     1      -3.568   4.207 -32.257  1.00  0.00     0.064 A 
HETATM   17  C   UNL     1      -2.596   4.934 -31.554  1.00  0.00     0.088 A 
HETATM   18  C   UNL     1      -2.656   6.318 -31.385  1.00  0.00     0.014 A 
HETATM   19  N   UNL     1      -1.446   4.563 -30.904  1.00  0.00    -0.275 N 
HETATM   20  C   UNL     1      -1.511   6.643 -30.623  1.00  0.00     0.152 A 
HETATM   21  C   UNL     1      -3.724   7.042 -31.939  1.00  0.00     0.015 A 
HETATM   22  N   UNL     1      -0.770   5.575 -30.325  1.00  0.00    -0.186 NA
HETATM   23  C   UNL     1      -4.704   6.349 -32.648  1.00  0.00     0.003 A 
HETATM   24  C   UNL     1      -4.627   4.963 -32.799  1.00  0.00     0.032 A 
HETATM   25  H   UNL     1      -1.082   3.613 -30.834  1.00  0.00     0.189 HD
ENDBRANCH   2  16
TORSDOF 4
ENDMDL
MODEL 9
REMARK VINA RESULT:      -7.6     13.335     14.623
REMARK  4 active torsions:
REMARK  status: ('A' for Active; 'I' for Inactive)
REMARK    1  A    between atoms: C_2  and  O_3 
REMARK    2  A    between atoms: O_3  and  C_4 
REMARK    3  A    between atoms: C_7  and  C_8 
REMARK       I    between atoms: C_8  and  N_9 
REMARK    4  A    between atoms: N_9  and  C_10 
ROOT
HETATM    1  C   UNL     1      -4.350 -12.937 -38.447  1.00  0.00     0.262 C 
HETATM    2  N   UNL     1      -3.701 -14.094 -38.842  1.00  0.00    -0.321 N 
HETATM    3  O   UNL     1      -3.776 -11.908 -38.108  1.00  0.00    -0.267 OA
HETATM    4  H   UNL     1      -4.281 -14.898 -39.056  1.00  0.00     0.169 HD
ENDROOT
BRANCH   1   5
HETATM    5  C   UNL     1      -5.845 -12.967 -38.445  1.00  0.00     0.112 A 
HETATM    6  C   UNL     1      -6.616 -12.484 -39.513  1.00  0.00     0.168 A 
HETATM    7  C   UNL     1      -8.018 -12.518 -39.475  1.00  0.00     0.108 A 
HETATM    8  F   UNL     1      -5.995 -11.965 -40.586  1.00  0.00    -0.202 F 
HETATM    9  C   UNL     1      -8.656 -13.032 -38.344  1.00  0.00     0.043 A 
HETATM   10  C   UNL     1      -7.908 -13.522 -37.278  1.00  0.00     0.046 A 
HETATM   11  C   UNL     1      -6.517 -13.490 -37.333  1.00  0.00     0.135 A 
HETATM   12  F   UNL     1      -5.856 -13.965 -36.269  1.00  0.00    -0.205 F 
BRANCH   7  13
HETATM   13  O   UNL     1      -8.882 -12.075 -40.439  1.00  0.00    -0.348 OA
BRANCH  13  14
HETATM   14  C   UNL     1     -10.274 -12.318 -40.248  1.00  0.00     0.171 C 
HETATM   15  C   UNL     1     -11.017 -11.041 -40.593  1.00  0.00     0.034 C 
ENDBRANCH  13  14
ENDBRANCH   7  13
ENDBRANCH   1   5
BRANCH   2  16
HETATM   16  C   UNL     1      -2.313 -14.313 -38.988  1.00  0.00     0.064 A 
HETATM   17  C   UNL     1      -1.423 -14.811 -38.024  1.00  0.00     0.088 A 
HETATM   18  C   UNL     1      -0.058 -14.971 -38.259  1.00  0.00     0.014 A 
HETATM   19  N   UNL     1      -1.596 -15.234 -36.729  1.00  0.00    -0.275 N 
HETATM   20  C   UNL     1       0.466 -15.478 -37.048  1.00  0.00     0.152 A 
HETATM   21  C   UNL     1       0.478 -14.631 -39.513  1.00  0.00     0.015 A 
HETATM   22  N   UNL     1      -0.469 -15.638 -36.111  1.00  0.00    -0.186 NA
HETATM   23  C   UNL     1      -0.381 -14.139 -40.494  1.00  0.00     0.003 A 
HETATM   24  C   UNL     1      -1.744 -13.982 -40.234  1.00  0.00     0.032 A 
HETATM   25  H   UNL     1      -2.481 -15.263 -36.226  1.00  0.00     0.189 HD
ENDBRANCH   2  16
TORSDOF 4
ENDMDL
MODEL 10
REMARK VINA RESULT:      -7.5     10.637     12.721
REMARK  4 active torsions:
REMARK  status: ('A' for Active; 'I' for Inactive)
REMARK    1  A    between atoms: C_2  and  O_3 
REMARK    2  A    between atoms: O_3  and  C_4 
REMARK    3  A    between atoms: C_7  and  C_8 
REMARK       I    between atoms: C_8  and  N_9 
REMARK    4  A    between atoms: N_9  and  C_10 
ROOT
HETATM    1  C   UNL     1      -1.105   7.156 -29.525  1.00  0.00     0.262 C 
HETATM    2  N   UNL     1      -0.491   6.868 -30.732  1.00  0.00    -0.321 N 
HETATM    3  O   UNL     1      -2.292   6.955 -29.292  1.00  0.00    -0.267 OA
HETATM    4  H   UNL     1       0.487   7.121 -30.823  1.00  0.00     0.169 HD
ENDROOT
BRANCH   1   5
HETATM    5  C   UNL     1      -0.246   7.745 -28.453  1.00  0.00     0.112 A 
HETATM    6  C   UNL     1      -0.370   9.075 -28.026  1.00  0.00     0.168 A 
HETATM    7  C   UNL     1       0.459   9.601 -27.023  1.00  0.00     0.108 A 
HETATM    8  F   UNL     1      -1.293   9.864 -28.602  1.00  0.00    -0.202 F 
HETATM    9  C   UNL     1       1.435   8.783 -26.449  1.00  0.00     0.043 A 
HETATM   10  C   UNL     1       1.568   7.459 -26.854  1.00  0.00     0.046 A 
HETATM   11  C   UNL     1       0.733   6.949 -27.845  1.00  0.00     0.135 A 
HETATM   12  F   UNL     1       0.921   5.670 -28.200  1.00  0.00    -0.205 F 
BRANCH   7  13
HETATM   13  O   UNL     1       0.447  10.875 -26.524  1.00  0.00    -0.348 OA
BRANCH  13  14
HETATM   14  C   UNL     1       0.124  11.047 -25.146  1.00  0.00     0.171 C 
HETATM   15  C   UNL     1      -1.373  10.848 -24.995  1.00  0.00     0.034 C 
ENDBRANCH  13  14
ENDBRANCH   7  13
ENDBRANCH   1   5
BRANCH   2  16
HETATM   16  C   UNL     1      -1.053   6.261 -31.877  1.00  0.00     0.064 A 
HETATM   17  C   UNL     1      -1.768   5.055 -31.937  1.00  0.00     0.088 A 
HETATM   18  C   UNL     1      -2.267   4.524 -33.127  1.00  0.00     0.014 A 
HETATM   19  N   UNL     1      -2.143   4.147 -30.978  1.00  0.00    -0.275 N 
HETATM   20  C   UNL     1      -2.900   3.317 -32.753  1.00  0.00     0.152 A 
HETATM   21  C   UNL     1      -2.065   5.212 -34.335  1.00  0.00     0.015 A 
HETATM   22  N   UNL     1      -2.825   3.082 -31.442  1.00  0.00    -0.186 NA
HETATM   23  C   UNL     1      -1.363   6.416 -34.308  1.00  0.00     0.003 A 
HETATM   24  C   UNL     1      -0.868   6.925 -33.106  1.00  0.00     0.032 A 
HETATM   25  H   UNL     1      -1.951   4.222 -29.980  1.00  0.00     0.189 HD
ENDBRANCH   2  16
TORSDOF 4
ENDMDL
