MODEL 1
REMARK VINA RESULT:      -8.3      0.000      0.000
REMARK  5 active torsions:
REMARK  status: ('A' for Active; 'I' for Inactive)
REMARK    1  A    between atoms: C_6  and  N_7 
REMARK       I    between atoms: N_7  and  C_8 
REMARK    2  A    between atoms: C_8  and  C_9 
REMARK    3  A    between atoms: C_9  and  O_10 
REMARK    4  A    between atoms: O_10  and  C_11 
REMARK    5  A    between atoms: C_20  and  C_21 
ROOT
HETATM    1  C   UNL     1      -6.725  -1.511 -34.554  1.00  0.00     0.073 C 
HETATM    2  C   UNL     1      -6.585  -0.838 -33.238  1.00  0.00     0.065 A 
HETATM    3  N   UNL     1      -5.576  -1.168 -32.422  1.00  0.00    -0.177 NA
HETATM    4  N   UNL     1      -5.758  -0.386 -31.346  1.00  0.00    -0.262 N 
HETATM    5  H   UNL     1      -5.055  -0.412 -30.614  1.00  0.00     0.191 HD
HETATM    6  C   UNL     1      -6.869   0.412 -31.418  1.00  0.00     0.137 A 
HETATM    7  C   UNL     1      -7.423   0.157 -32.661  1.00  0.00     0.046 A 
ENDROOT
BRANCH   6   8
HETATM    8  N   UNL     1      -7.258   1.341 -30.472  1.00  0.00    -0.309 N 
HETATM    9  C   UNL     1      -6.804   2.617 -30.279  1.00  0.00     0.247 C 
HETATM   10  O   UNL     1      -7.389   3.334 -29.462  1.00  0.00    -0.271 OA
HETATM   11  H   UNL     1      -7.966   1.052 -29.803  1.00  0.00     0.170 HD
BRANCH   9  12
HETATM   12  C   UNL     1      -5.511   3.088 -30.938  1.00  0.00     0.278 C 
BRANCH  12  13
HETATM   13  O   UNL     1      -5.741   3.669 -32.213  1.00  0.00    -0.339 OA
BRANCH  13  14
HETATM   14  C   UNL     1      -4.621   4.066 -32.899  1.00  0.00     0.108 A 
HETATM   15  C   UNL     1      -4.847   4.788 -34.079  1.00  0.00     0.152 A 
HETATM   16  F   UNL     1      -6.103   5.057 -34.467  1.00  0.00    -0.203 F 
HETATM   17  C   UNL     1      -3.795   5.248 -34.863  1.00  0.00     0.087 A 
HETATM   18  C   UNL     1      -2.496   4.967 -34.466  1.00  0.00     0.119 A 
HETATM   19  F   UNL     1      -1.470   5.402 -35.208  1.00  0.00    -0.206 F 
HETATM   20  C   UNL     1      -2.242   4.235 -33.311  1.00  0.00     0.045 A 
HETATM   21  C   UNL     1      -3.305   3.780 -32.525  1.00  0.00     0.043 A 
ENDBRANCH  13  14
ENDBRANCH  12  13
ENDBRANCH   9  12
ENDBRANCH   6   8
BRANCH   7  22
HETATM   22  C   UNL     1      -8.650   0.751 -33.161  1.00  0.00    -0.020 A 
HETATM   23  C   UNL     1      -8.618   1.961 -33.864  1.00  0.00     0.014 A 
HETATM   24  C   UNL     1      -9.801   2.517 -34.361  1.00  0.00     0.020 A 
HETATM   25  C   UNL     1     -11.015   1.862 -34.158  1.00  0.00     0.011 A 
HETATM   26 BR   UNL     1     -12.613   2.611 -34.836  1.00  0.00    -0.051 Br
HETATM   27  C   UNL     1     -11.060   0.657 -33.461  1.00  0.00     0.020 A 
HETATM   28  C   UNL     1      -9.877   0.101 -32.967  1.00  0.00     0.014 A 
ENDBRANCH   7  22
TORSDOF 5
ENDMDL
MODEL 2
REMARK VINA RESULT:      -7.9      4.027      6.897
REMARK  5 active torsions:
REMARK  status: ('A' for Active; 'I' for Inactive)
REMARK    1  A    between atoms: C_6  and  N_7 
REMARK       I    between atoms: N_7  and  C_8 
REMARK    2  A    between atoms: C_8  and  C_9 
REMARK    3  A    between atoms: C_9  and  O_10 
REMARK    4  A    between atoms: O_10  and  C_11 
REMARK    5  A    between atoms: C_20  and  C_21 
ROOT
HETATM    1  C   UNL     1      -7.479   5.603 -30.753  1.00  0.00     0.073 C 
HETATM    2  C   UNL     1      -6.985   4.260 -30.359  1.00  0.00     0.065 A 
HETATM    3  N   UNL     1      -7.657   3.541 -29.452  1.00  0.00    -0.177 NA
HETATM    4  N   UNL     1      -6.940   2.411 -29.335  1.00  0.00    -0.262 N 
HETATM    5  H   UNL     1      -7.308   1.671 -28.745  1.00  0.00     0.191 HD
HETATM    6  C   UNL     1      -5.807   2.387 -30.105  1.00  0.00     0.137 A 
HETATM    7  C   UNL     1      -5.819   3.580 -30.809  1.00  0.00     0.046 A 
ENDROOT
BRANCH   6   8
HETATM    8  N   UNL     1      -4.923   1.331 -30.208  1.00  0.00    -0.309 N 
HETATM    9  C   UNL     1      -4.934   0.280 -31.084  1.00  0.00     0.247 C 
HETATM   10  O   UNL     1      -3.965  -0.485 -31.100  1.00  0.00    -0.271 OA
HETATM   11  H   UNL     1      -4.160   1.298 -29.539  1.00  0.00     0.170 HD
BRANCH   9  12
HETATM   12  C   UNL     1      -6.182  -0.031 -31.906  1.00  0.00     0.278 C 
BRANCH  12  13
HETATM   13  O   UNL     1      -5.901  -0.109 -33.296  1.00  0.00    -0.339 OA
BRANCH  13  14
HETATM   14  C   UNL     1      -5.912  -1.370 -33.837  1.00  0.00     0.108 A 
HETATM   15  C   UNL     1      -4.660  -1.909 -34.163  1.00  0.00     0.152 A 
HETATM   16  F   UNL     1      -3.546  -1.199 -33.932  1.00  0.00    -0.203 F 
HETATM   17  C   UNL     1      -4.538  -3.179 -34.718  1.00  0.00     0.087 A 
HETATM   18  C   UNL     1      -5.688  -3.913 -34.962  1.00  0.00     0.119 A 
HETATM   19  F   UNL     1      -5.590  -5.138 -35.494  1.00  0.00    -0.206 F 
HETATM   20  C   UNL     1      -6.945  -3.396 -34.668  1.00  0.00     0.045 A 
HETATM   21  C   UNL     1      -7.060  -2.120 -34.107  1.00  0.00     0.043 A 
ENDBRANCH  13  14
ENDBRANCH  12  13
ENDBRANCH   9  12
ENDBRANCH   6   8
BRANCH   7  22
HETATM   22  C   UNL     1      -4.780   4.012 -31.727  1.00  0.00    -0.020 A 
HETATM   23  C   UNL     1      -5.041   4.114 -33.099  1.00  0.00     0.014 A 
HETATM   24  C   UNL     1      -4.043   4.552 -33.974  1.00  0.00     0.020 A 
HETATM   25  C   UNL     1      -2.784   4.889 -33.478  1.00  0.00     0.011 A 
HETATM   26 BR   UNL     1      -1.436   5.486 -34.662  1.00  0.00    -0.051 Br
HETATM   27  C   UNL     1      -2.511   4.793 -32.116  1.00  0.00     0.020 A 
HETATM   28  C   UNL     1      -3.511   4.358 -31.242  1.00  0.00     0.014 A 
ENDBRANCH   7  22
TORSDOF 5
ENDMDL
MODEL 3
REMARK VINA RESULT:      -7.9      1.556      1.899
REMARK  5 active torsions:
REMARK  status: ('A' for Active; 'I' for Inactive)
REMARK    1  A    between atoms: C_6  and  N_7 
REMARK       I    between atoms: N_7  and  C_8 
REMARK    2  A    between atoms: C_8  and  C_9 
REMARK    3  A    between atoms: C_9  and  O_10 
REMARK    4  A    between atoms: O_10  and  C_11 
REMARK    5  A    between atoms: C_20  and  C_21 
ROOT
HETATM    1  C   UNL     1      -5.860  -2.689 -34.967  1.00  0.00     0.073 C 
HETATM    2  C   UNL     1      -5.381  -1.956 -33.768  1.00  0.00     0.065 A 
HETATM    3  N   UNL     1      -4.244  -2.327 -33.167  1.00  0.00    -0.177 NA
HETATM    4  N   UNL     1      -4.124  -1.470 -32.140  1.00  0.00    -0.262 N 
HETATM    5  H   UNL     1      -3.279  -1.516 -31.577  1.00  0.00     0.191 HD
HETATM    6  C   UNL     1      -5.161  -0.581 -32.029  1.00  0.00     0.137 A 
HETATM    7  C   UNL     1      -5.994  -0.859 -33.100  1.00  0.00     0.046 A 
ENDROOT
BRANCH   6   8
HETATM    8  N   UNL     1      -5.261   0.431 -31.095  1.00  0.00    -0.309 N 
HETATM    9  C   UNL     1      -4.781   1.711 -31.157  1.00  0.00     0.247 C 
HETATM   10  O   UNL     1      -5.104   2.505 -30.269  1.00  0.00    -0.271 OA
HETATM   11  H   UNL     1      -5.736   0.213 -30.225  1.00  0.00     0.170 HD
BRANCH   9  12
HETATM   12  C   UNL     1      -3.746   2.102 -32.209  1.00  0.00     0.278 C 
BRANCH  12  13
HETATM   13  O   UNL     1      -4.139   3.250 -32.946  1.00  0.00    -0.339 OA
BRANCH  13  14
HETATM   14  C   UNL     1      -3.187   4.229 -33.077  1.00  0.00     0.108 A 
HETATM   15  C   UNL     1      -3.361   5.115 -34.149  1.00  0.00     0.152 A 
HETATM   16  F   UNL     1      -4.417   4.977 -34.965  1.00  0.00    -0.203 F 
HETATM   17  C   UNL     1      -2.464   6.151 -34.389  1.00  0.00     0.087 A 
HETATM   18  C   UNL     1      -1.369   6.292 -33.551  1.00  0.00     0.119 A 
HETATM   19  F   UNL     1      -0.496   7.284 -33.766  1.00  0.00    -0.206 F 
HETATM   20  C   UNL     1      -1.160   5.416 -32.491  1.00  0.00     0.045 A 
HETATM   21  C   UNL     1      -2.067   4.379 -32.254  1.00  0.00     0.043 A 
ENDBRANCH  13  14
ENDBRANCH  12  13
ENDBRANCH   9  12
ENDBRANCH   6   8
BRANCH   7  22
HETATM   22  C   UNL     1      -7.254  -0.187 -33.366  1.00  0.00    -0.020 A 
HETATM   23  C   UNL     1      -7.412   0.599 -34.513  1.00  0.00     0.014 A 
HETATM   24  C   UNL     1      -8.635   1.225 -34.775  1.00  0.00     0.020 A 
HETATM   25  C   UNL     1      -9.701   1.063 -33.890  1.00  0.00     0.011 A 
HETATM   26 BR   UNL     1     -11.355   1.905 -34.247  1.00  0.00    -0.051 Br
HETATM   27  C   UNL     1      -9.557   0.282 -32.746  1.00  0.00     0.020 A 
HETATM   28  C   UNL     1      -8.335  -0.345 -32.488  1.00  0.00     0.014 A 
ENDBRANCH   7  22
TORSDOF 5
ENDMDL
MODEL 4
REMARK VINA RESULT:      -7.8      5.061      7.767
REMARK  5 active torsions:
REMARK  status: ('A' for Active; 'I' for Inactive)
REMARK    1  A    between atoms: C_6  and  N_7 
REMARK       I    between atoms: N_7  and  C_8 
REMARK    2  A    between atoms: C_8  and  C_9 
REMARK    3  A    between atoms: C_9  and  O_10 
REMARK    4  A    between atoms: O_10  and  C_11 
REMARK    5  A    between atoms: C_20  and  C_21 
ROOT
HETATM    1  C   UNL     1      -6.827   4.976 -32.476  1.00  0.00     0.073 C 
HETATM    2  C   UNL     1      -6.259   3.685 -32.014  1.00  0.00     0.065 A 
HETATM    3  N   UNL     1      -7.057   2.622 -31.855  1.00  0.00    -0.177 NA
HETATM    4  N   UNL     1      -6.229   1.654 -31.430  1.00  0.00    -0.262 N 
HETATM    5  H   UNL     1      -6.610   0.719 -31.314  1.00  0.00     0.191 HD
HETATM    6  C   UNL     1      -4.931   2.060 -31.271  1.00  0.00     0.137 A 
HETATM    7  C   UNL     1      -4.912   3.386 -31.670  1.00  0.00     0.046 A 
ENDROOT
BRANCH   6   8
HETATM    8  N   UNL     1      -3.874   1.254 -30.894  1.00  0.00    -0.309 N 
HETATM    9  C   UNL     1      -3.313   0.199 -31.561  1.00  0.00     0.247 C 
HETATM   10  O   UNL     1      -2.277  -0.299 -31.110  1.00  0.00    -0.271 OA
HETATM   11  H   UNL     1      -3.449   1.440 -29.990  1.00  0.00     0.170 HD
BRANCH   9  12
HETATM   12  C   UNL     1      -4.036  -0.446 -32.740  1.00  0.00     0.278 C 
BRANCH  12  13
HETATM   13  O   UNL     1      -3.627  -1.790 -32.947  1.00  0.00    -0.339 OA
BRANCH  13  14
HETATM   14  C   UNL     1      -4.495  -2.573 -33.667  1.00  0.00     0.108 A 
HETATM   15  C   UNL     1      -4.135  -3.920 -33.806  1.00  0.00     0.152 A 
HETATM   16  F   UNL     1      -3.005  -4.371 -33.241  1.00  0.00    -0.203 F 
HETATM   17  C   UNL     1      -4.931  -4.816 -34.512  1.00  0.00     0.087 A 
HETATM   18  C   UNL     1      -6.097  -4.351 -35.101  1.00  0.00     0.119 A 
HETATM   19  F   UNL     1      -6.876  -5.198 -35.784  1.00  0.00    -0.206 F 
HETATM   20  C   UNL     1      -6.469  -3.014 -34.997  1.00  0.00     0.045 A 
HETATM   21  C   UNL     1      -5.666  -2.120 -34.282  1.00  0.00     0.043 A 
ENDBRANCH  13  14
ENDBRANCH  12  13
ENDBRANCH   9  12
ENDBRANCH   6   8
BRANCH   7  22
HETATM   22  C   UNL     1      -3.743   4.247 -31.631  1.00  0.00    -0.020 A 
HETATM   23  C   UNL     1      -3.676   5.315 -30.728  1.00  0.00     0.014 A 
HETATM   24  C   UNL     1      -2.539   6.126 -30.681  1.00  0.00     0.020 A 
HETATM   25  C   UNL     1      -1.466   5.869 -31.534  1.00  0.00     0.011 A 
HETATM   26 BR   UNL     1       0.073   6.963 -31.466  1.00  0.00    -0.051 Br
HETATM   27  C   UNL     1      -1.519   4.809 -32.436  1.00  0.00     0.020 A 
HETATM   28  C   UNL     1      -2.656   3.997 -32.480  1.00  0.00     0.014 A 
ENDBRANCH   7  22
TORSDOF 5
ENDMDL
MODEL 5
REMARK VINA RESULT:      -7.7      1.408      1.838
REMARK  5 active torsions:
REMARK  status: ('A' for Active; 'I' for Inactive)
REMARK    1  A    between atoms: C_6  and  N_7 
REMARK       I    between atoms: N_7  and  C_8 
REMARK    2  A    between atoms: C_8  and  C_9 
REMARK    3  A    between atoms: C_9  and  O_10 
REMARK    4  A    between atoms: O_10  and  C_11 
REMARK    5  A    between atoms: C_20  and  C_21 
ROOT
HETATM    1  C   UNL     1      -6.609  -1.681 -34.398  1.00  0.00     0.073 C 
HETATM    2  C   UNL     1      -6.492  -0.928 -33.124  1.00  0.00     0.065 A 
HETATM    3  N   UNL     1      -5.449  -1.144 -32.313  1.00  0.00    -0.177 NA
HETATM    4  N   UNL     1      -5.666  -0.317 -31.277  1.00  0.00    -0.262 N 
HETATM    5  H   UNL     1      -4.950  -0.254 -30.559  1.00  0.00     0.191 HD
HETATM    6  C   UNL     1      -6.831   0.399 -31.368  1.00  0.00     0.137 A 
HETATM    7  C   UNL     1      -7.386   0.037 -32.583  1.00  0.00     0.046 A 
ENDROOT
BRANCH   6   8
HETATM    8  N   UNL     1      -7.266   1.350 -30.465  1.00  0.00    -0.309 N 
HETATM    9  C   UNL     1      -7.084   2.706 -30.487  1.00  0.00     0.247 C 
HETATM   10  O   UNL     1      -7.682   3.394 -29.654  1.00  0.00    -0.271 OA
HETATM   11  H   UNL     1      -7.780   1.018 -29.655  1.00  0.00     0.170 HD
BRANCH   9  12
HETATM   12  C   UNL     1      -6.046   3.334 -31.413  1.00  0.00     0.278 C 
BRANCH  12  13
HETATM   13  O   UNL     1      -4.738   3.283 -30.863  1.00  0.00    -0.339 OA
BRANCH  13  14
HETATM   14  C   UNL     1      -3.783   4.011 -31.527  1.00  0.00     0.108 A 
HETATM   15  C   UNL     1      -3.549   5.304 -31.043  1.00  0.00     0.152 A 
HETATM   16  F   UNL     1      -4.237   5.755 -29.983  1.00  0.00    -0.203 F 
HETATM   17  C   UNL     1      -2.605   6.141 -31.629  1.00  0.00     0.087 A 
HETATM   18  C   UNL     1      -1.896   5.679 -32.728  1.00  0.00     0.119 A 
HETATM   19  F   UNL     1      -0.983   6.469 -33.305  1.00  0.00    -0.206 F 
HETATM   20  C   UNL     1      -2.122   4.407 -33.243  1.00  0.00     0.045 A 
HETATM   21  C   UNL     1      -3.069   3.570 -32.646  1.00  0.00     0.043 A 
ENDBRANCH  13  14
ENDBRANCH  12  13
ENDBRANCH   9  12
ENDBRANCH   6   8
BRANCH   7  22
HETATM   22  C   UNL     1      -8.660   0.519 -33.088  1.00  0.00    -0.020 A 
HETATM   23  C   UNL     1      -9.845  -0.168 -32.799  1.00  0.00     0.014 A 
HETATM   24  C   UNL     1     -11.070   0.313 -33.270  1.00  0.00     0.020 A 
HETATM   25  C   UNL     1     -11.112   1.482 -34.029  1.00  0.00     0.011 A 
HETATM   26 BR   UNL     1     -12.769   2.135 -34.661  1.00  0.00    -0.051 Br
HETATM   27  C   UNL     1      -9.941   2.176 -34.323  1.00  0.00     0.020 A 
HETATM   28  C   UNL     1      -8.717   1.695 -33.849  1.00  0.00     0.014 A 
ENDBRANCH   7  22
TORSDOF 5
ENDMDL
MODEL 6
REMARK VINA RESULT:      -7.7      3.515      5.868
REMARK  5 active torsions:
REMARK  status: ('A' for Active; 'I' for Inactive)
REMARK    1  A    between atoms: C_6  and  N_7 
REMARK       I    between atoms: N_7  and  C_8 
REMARK    2  A    between atoms: C_8  and  C_9 
REMARK    3  A    between atoms: C_9  and  O_10 
REMARK    4  A    between atoms: O_10  and  C_11 
REMARK    5  A    between atoms: C_20  and  C_21 
ROOT
HETATM    1  C   UNL     1      -3.376   0.001 -32.889  1.00  0.00     0.073 C 
HETATM    2  C   UNL     1      -4.245   0.580 -31.834  1.00  0.00     0.065 A 
HETATM    3  N   UNL     1      -5.048  -0.217 -31.118  1.00  0.00    -0.177 NA
HETATM    4  N   UNL     1      -5.678   0.623 -30.281  1.00  0.00    -0.262 N 
HETATM    5  H   UNL     1      -6.294   0.224 -29.579  1.00  0.00     0.191 HD
HETATM    6  C   UNL     1      -5.342   1.940 -30.454  1.00  0.00     0.137 A 
HETATM    7  C   UNL     1      -4.383   1.943 -31.453  1.00  0.00     0.046 A 
ENDROOT
BRANCH   6   8
HETATM    8  N   UNL     1      -5.807   2.998 -29.697  1.00  0.00    -0.309 N 
HETATM    9  C   UNL     1      -6.883   3.813 -29.923  1.00  0.00     0.247 C 
HETATM   10  O   UNL     1      -7.211   4.613 -29.043  1.00  0.00    -0.271 OA
HETATM   11  H   UNL     1      -5.282   3.235 -28.861  1.00  0.00     0.170 HD
BRANCH   9  12
HETATM   12  C   UNL     1      -7.560   3.842 -31.291  1.00  0.00     0.278 C 
BRANCH  12  13
HETATM   13  O   UNL     1      -8.453   2.752 -31.469  1.00  0.00    -0.339 OA
BRANCH  13  14
HETATM   14  C   UNL     1      -8.145   1.890 -32.492  1.00  0.00     0.108 A 
HETATM   15  C   UNL     1      -8.606   0.575 -32.347  1.00  0.00     0.152 A 
HETATM   16  F   UNL     1      -9.312   0.231 -31.259  1.00  0.00    -0.203 F 
HETATM   17  C   UNL     1      -8.360  -0.393 -33.315  1.00  0.00     0.087 A 
HETATM   18  C   UNL     1      -7.627  -0.041 -34.438  1.00  0.00     0.119 A 
HETATM   19  F   UNL     1      -7.381  -0.959 -35.381  1.00  0.00    -0.206 F 
HETATM   20  C   UNL     1      -7.139   1.252 -34.599  1.00  0.00     0.045 A 
HETATM   21  C   UNL     1      -7.394   2.221 -33.623  1.00  0.00     0.043 A 
ENDBRANCH  13  14
ENDBRANCH  12  13
ENDBRANCH   9  12
ENDBRANCH   6   8
BRANCH   7  22
HETATM   22  C   UNL     1      -3.762   3.136 -32.002  1.00  0.00    -0.020 A 
HETATM   23  C   UNL     1      -4.357   3.819 -33.069  1.00  0.00     0.014 A 
HETATM   24  C   UNL     1      -3.765   4.979 -33.579  1.00  0.00     0.020 A 
HETATM   25  C   UNL     1      -2.580   5.457 -33.021  1.00  0.00     0.011 A 
HETATM   26 BR   UNL     1      -1.784   7.028 -33.707  1.00  0.00    -0.051 Br
HETATM   27  C   UNL     1      -1.979   4.787 -31.958  1.00  0.00     0.020 A 
HETATM   28  C   UNL     1      -2.573   3.630 -31.448  1.00  0.00     0.014 A 
ENDBRANCH   7  22
TORSDOF 5
ENDMDL
MODEL 7
REMARK VINA RESULT:      -7.6      1.813      2.304
REMARK  5 active torsions:
REMARK  status: ('A' for Active; 'I' for Inactive)
REMARK    1  A    between atoms: C_6  and  N_7 
REMARK       I    between atoms: N_7  and  C_8 
REMARK    2  A    between atoms: C_8  and  C_9 
REMARK    3  A    between atoms: C_9  and  O_10 
REMARK    4  A    between atoms: O_10  and  C_11 
REMARK    5  A    between atoms: C_20  and  C_21 
ROOT
HETATM    1  C   UNL     1      -6.299  -1.575 -34.819  1.00  0.00     0.073 C 
HETATM    2  C   UNL     1      -5.906  -0.484 -33.894  1.00  0.00     0.065 A 
HETATM    3  N   UNL     1      -4.635  -0.379 -33.485  1.00  0.00    -0.177 NA
HETATM    4  N   UNL     1      -4.641   0.690 -32.672  1.00  0.00    -0.262 N 
HETATM    5  H   UNL     1      -3.753   1.008 -32.296  1.00  0.00     0.191 HD
HETATM    6  C   UNL     1      -5.877   1.260 -32.508  1.00  0.00     0.137 A 
HETATM    7  C   UNL     1      -6.727   0.526 -33.318  1.00  0.00     0.046 A 
ENDROOT
BRANCH   6   8
HETATM    8  N   UNL     1      -6.151   2.392 -31.767  1.00  0.00    -0.309 N 
HETATM    9  C   UNL     1      -6.042   3.708 -32.130  1.00  0.00     0.247 C 
HETATM   10  O   UNL     1      -6.477   4.569 -31.360  1.00  0.00    -0.271 OA
HETATM   11  H   UNL     1      -6.462   2.256 -30.810  1.00  0.00     0.170 HD
BRANCH   9  12
HETATM   12  C   UNL     1      -5.259   4.105 -33.378  1.00  0.00     0.278 C 
BRANCH  12  13
HETATM   13  O   UNL     1      -3.940   3.581 -33.372  1.00  0.00    -0.339 OA
BRANCH  13  14
HETATM   14  C   UNL     1      -2.938   4.489 -33.138  1.00  0.00     0.108 A 
HETATM   15  C   UNL     1      -2.232   4.330 -31.938  1.00  0.00     0.152 A 
HETATM   16  F   UNL     1      -2.548   3.326 -31.105  1.00  0.00    -0.203 F 
HETATM   17  C   UNL     1      -1.194   5.185 -31.586  1.00  0.00     0.087 A 
HETATM   18  C   UNL     1      -0.868   6.226 -32.443  1.00  0.00     0.119 A 
HETATM   19  F   UNL     1       0.129   7.059 -32.122  1.00  0.00    -0.206 F 
HETATM   20  C   UNL     1      -1.565   6.421 -33.631  1.00  0.00     0.045 A 
HETATM   21  C   UNL     1      -2.605   5.554 -33.980  1.00  0.00     0.043 A 
ENDBRANCH  13  14
ENDBRANCH  12  13
ENDBRANCH   9  12
ENDBRANCH   6   8
BRANCH   7  22
HETATM   22  C   UNL     1      -8.158   0.745 -33.433  1.00  0.00    -0.020 A 
HETATM   23  C   UNL     1      -8.656   1.800 -34.206  1.00  0.00     0.014 A 
HETATM   24  C   UNL     1     -10.035   1.992 -34.330  1.00  0.00     0.020 A 
HETATM   25  C   UNL     1     -10.917   1.128 -33.682  1.00  0.00     0.011 A 
HETATM   26 BR   UNL     1     -12.782   1.385 -33.855  1.00  0.00    -0.051 Br
HETATM   27  C   UNL     1     -10.435   0.074 -32.911  1.00  0.00     0.020 A 
HETATM   28  C   UNL     1      -9.056  -0.119 -32.790  1.00  0.00     0.014 A 
ENDBRANCH   7  22
TORSDOF 5
ENDMDL
MODEL 8
REMARK VINA RESULT:      -7.5      4.719      6.716
REMARK  5 active torsions:
REMARK  status: ('A' for Active; 'I' for Inactive)
REMARK    1  A    between atoms: C_6  and  N_7 
REMARK       I    between atoms: N_7  and  C_8 
REMARK    2  A    between atoms: C_8  and  C_9 
REMARK    3  A    between atoms: C_9  and  O_10 
REMARK    4  A    between atoms: O_10  and  C_11 
REMARK    5  A    between atoms: C_20  and  C_21 
ROOT
HETATM    1  C   UNL     1      -5.913   4.880 -29.780  1.00  0.00     0.073 C 
HETATM    2  C   UNL     1      -5.205   5.384 -30.984  1.00  0.00     0.065 A 
HETATM    3  N   UNL     1      -5.125   6.701 -31.209  1.00  0.00    -0.177 NA
HETATM    4  N   UNL     1      -4.439   6.793 -32.360  1.00  0.00    -0.262 N 
HETATM    5  H   UNL     1      -4.189   7.720 -32.694  1.00  0.00     0.191 HD
HETATM    6  C   UNL     1      -4.104   5.583 -32.909  1.00  0.00     0.137 A 
HETATM    7  C   UNL     1      -4.573   4.635 -32.015  1.00  0.00     0.046 A 
ENDROOT
BRANCH   6   8
HETATM    8  N   UNL     1      -3.361   5.396 -34.058  1.00  0.00    -0.309 N 
HETATM    9  C   UNL     1      -2.003   5.439 -34.223  1.00  0.00     0.247 C 
HETATM   10  O   UNL     1      -1.531   5.100 -35.312  1.00  0.00    -0.271 OA
HETATM   11  H   UNL     1      -3.872   5.218 -34.917  1.00  0.00     0.170 HD
BRANCH   9  12
HETATM   12  C   UNL     1      -1.109   6.043 -33.143  1.00  0.00     0.278 C 
BRANCH  12  13
HETATM   13  O   UNL     1      -0.768   5.097 -32.141  1.00  0.00    -0.339 OA
BRANCH  13  14
HETATM   14  C   UNL     1      -0.664   5.591 -30.865  1.00  0.00     0.108 A 
HETATM   15  C   UNL     1       0.495   5.238 -30.162  1.00  0.00     0.152 A 
HETATM   16  F   UNL     1       1.424   4.468 -30.749  1.00  0.00    -0.203 F 
HETATM   17  C   UNL     1       0.718   5.676 -28.861  1.00  0.00     0.087 A 
HETATM   18  C   UNL     1      -0.243   6.467 -28.250  1.00  0.00     0.119 A 
HETATM   19  F   UNL     1      -0.046   6.899 -26.998  1.00  0.00    -0.206 F 
HETATM   20  C   UNL     1      -1.413   6.816 -28.916  1.00  0.00     0.045 A 
HETATM   21  C   UNL     1      -1.628   6.376 -30.226  1.00  0.00     0.043 A 
ENDBRANCH  13  14
ENDBRANCH  12  13
ENDBRANCH   9  12
ENDBRANCH   6   8
BRANCH   7  22
HETATM   22  C   UNL     1      -4.480   3.198 -32.205  1.00  0.00    -0.020 A 
HETATM   23  C   UNL     1      -3.414   2.476 -31.656  1.00  0.00     0.014 A 
HETATM   24  C   UNL     1      -3.342   1.090 -31.824  1.00  0.00     0.020 A 
HETATM   25  C   UNL     1      -4.337   0.425 -32.540  1.00  0.00     0.011 A 
HETATM   26 BR   UNL     1      -4.242  -1.449 -32.762  1.00  0.00    -0.051 Br
HETATM   27  C   UNL     1      -5.403   1.131 -33.090  1.00  0.00     0.020 A 
HETATM   28  C   UNL     1      -5.475   2.517 -32.919  1.00  0.00     0.014 A 
ENDBRANCH   7  22
TORSDOF 5
ENDMDL
MODEL 9
REMARK VINA RESULT:      -7.5      3.863      6.003
REMARK  5 active torsions:
REMARK  status: ('A' for Active; 'I' for Inactive)
REMARK    1  A    between atoms: C_6  and  N_7 
REMARK       I    between atoms: N_7  and  C_8 
REMARK    2  A    between atoms: C_8  and  C_9 
REMARK    3  A    between atoms: C_9  and  O_10 
REMARK    4  A    between atoms: O_10  and  C_11 
REMARK    5  A    between atoms: C_20  and  C_21 
ROOT
HETATM    1  C   UNL     1     -10.159   3.899 -34.807  1.00  0.00     0.073 C 
HETATM    2  C   UNL     1      -9.819   3.149 -33.572  1.00  0.00     0.065 A 
HETATM    3  N   UNL     1     -10.754   2.415 -32.957  1.00  0.00    -0.177 NA
HETATM    4  N   UNL     1     -10.115   1.893 -31.897  1.00  0.00    -0.262 N 
HETATM    5  H   UNL     1     -10.618   1.229 -31.316  1.00  0.00     0.191 HD
HETATM    6  C   UNL     1      -8.809   2.293 -31.781  1.00  0.00     0.137 A 
HETATM    7  C   UNL     1      -8.576   3.102 -32.881  1.00  0.00     0.046 A 
ENDROOT
BRANCH   6   8
HETATM    8  N   UNL     1      -7.919   1.870 -30.814  1.00  0.00    -0.309 N 
HETATM    9  C   UNL     1      -6.950   0.906 -30.897  1.00  0.00     0.247 C 
HETATM   10  O   UNL     1      -6.162   0.781 -29.956  1.00  0.00    -0.271 OA
HETATM   11  H   UNL     1      -7.984   2.307 -29.900  1.00  0.00     0.170 HD
BRANCH   9  12
HETATM   12  C   UNL     1      -6.945  -0.091 -32.052  1.00  0.00     0.278 C 
BRANCH  12  13
HETATM   13  O   UNL     1      -5.763   0.000 -32.833  1.00  0.00    -0.339 OA
BRANCH  13  14
HETATM   14  C   UNL     1      -5.147  -1.191 -33.124  1.00  0.00     0.108 A 
HETATM   15  C   UNL     1      -4.120  -1.579 -32.254  1.00  0.00     0.152 A 
HETATM   16  F   UNL     1      -3.801  -0.803 -31.207  1.00  0.00    -0.203 F 
HETATM   17  C   UNL     1      -3.418  -2.766 -32.441  1.00  0.00     0.087 A 
HETATM   18  C   UNL     1      -3.742  -3.568 -33.526  1.00  0.00     0.119 A 
HETATM   19  F   UNL     1      -3.079  -4.714 -33.721  1.00  0.00    -0.206 F 
HETATM   20  C   UNL     1      -4.743  -3.197 -34.417  1.00  0.00     0.045 A 
HETATM   21  C   UNL     1      -5.447  -2.004 -34.221  1.00  0.00     0.043 A 
ENDBRANCH  13  14
ENDBRANCH  12  13
ENDBRANCH   9  12
ENDBRANCH   6   8
BRANCH   7  22
HETATM   22  C   UNL     1      -7.328   3.791 -33.154  1.00  0.00    -0.020 A 
HETATM   23  C   UNL     1      -7.038   5.011 -32.532  1.00  0.00     0.014 A 
HETATM   24  C   UNL     1      -5.825   5.658 -32.782  1.00  0.00     0.020 A 
HETATM   25  C   UNL     1      -4.899   5.085 -33.653  1.00  0.00     0.011 A 
HETATM   26 BR   UNL     1      -3.256   5.958 -33.986  1.00  0.00    -0.051 Br
HETATM   27  C   UNL     1      -5.173   3.871 -34.277  1.00  0.00     0.020 A 
HETATM   28  C   UNL     1      -6.386   3.224 -34.024  1.00  0.00     0.014 A 
ENDBRANCH   7  22
TORSDOF 5
ENDMDL
MODEL 10
REMARK VINA RESULT:      -7.4      3.559      6.006
REMARK  5 active torsions:
REMARK  status: ('A' for Active; 'I' for Inactive)
REMARK    1  A    between atoms: C_6  and  N_7 
REMARK       I    between atoms: N_7  and  C_8 
REMARK    2  A    between atoms: C_8  and  C_9 
REMARK    3  A    between atoms: C_9  and  O_10 
REMARK    4  A    between atoms: O_10  and  C_11 
REMARK    5  A    between atoms: C_20  and  C_21 
ROOT
HETATM    1  C   UNL     1      -5.073  -0.502 -33.048  1.00  0.00     0.073 C 
HETATM    2  C   UNL     1      -5.596   0.227 -31.866  1.00  0.00     0.065 A 
HETATM    3  N   UNL     1      -6.406  -0.396 -31.001  1.00  0.00    -0.177 NA
HETATM    4  N   UNL     1      -6.685   0.542 -30.081  1.00  0.00    -0.262 N 
HETATM    5  H   UNL     1      -7.234   0.268 -29.272  1.00  0.00     0.191 HD
HETATM    6  C   UNL     1      -6.117   1.762 -30.339  1.00  0.00     0.137 A 
HETATM    7  C   UNL     1      -5.374   1.582 -31.493  1.00  0.00     0.046 A 
ENDROOT
BRANCH   6   8
HETATM    8  N   UNL     1      -6.204   2.879 -29.532  1.00  0.00    -0.309 N 
HETATM    9  C   UNL     1      -7.144   3.874 -29.537  1.00  0.00     0.247 C 
HETATM   10  O   UNL     1      -7.118   4.713 -28.631  1.00  0.00    -0.271 OA
HETATM   11  H   UNL     1      -5.470   3.012 -28.843  1.00  0.00     0.170 HD
BRANCH   9  12
HETATM   12  C   UNL     1      -8.098   4.035 -30.717  1.00  0.00     0.278 C 
BRANCH  12  13
HETATM   13  O   UNL     1      -9.263   3.236 -30.575  1.00  0.00    -0.339 OA
BRANCH  13  14
HETATM   14  C   UNL     1      -9.766   2.703 -31.735  1.00  0.00     0.108 A 
HETATM   15  C   UNL     1     -10.935   3.298 -32.228  1.00  0.00     0.152 A 
HETATM   16  F   UNL     1     -11.486   4.332 -31.573  1.00  0.00    -0.203 F 
HETATM   17  C   UNL     1     -11.542   2.850 -33.396  1.00  0.00     0.087 A 
HETATM   18  C   UNL     1     -10.977   1.779 -34.072  1.00  0.00     0.119 A 
HETATM   19  F   UNL     1     -11.547   1.334 -35.199  1.00  0.00    -0.206 F 
HETATM   20  C   UNL     1      -9.829   1.155 -33.596  1.00  0.00     0.045 A 
HETATM   21  C   UNL     1      -9.222   1.614 -32.423  1.00  0.00     0.043 A 
ENDBRANCH  13  14
ENDBRANCH  12  13
ENDBRANCH   9  12
ENDBRANCH   6   8
BRANCH   7  22
HETATM   22  C   UNL     1      -4.626   2.627 -32.169  1.00  0.00    -0.020 A 
HETATM   23  C   UNL     1      -5.227   3.398 -33.171  1.00  0.00     0.014 A 
HETATM   24  C   UNL     1      -4.508   4.416 -33.802  1.00  0.00     0.020 A 
HETATM   25  C   UNL     1      -3.187   4.667 -33.431  1.00  0.00     0.011 A 
HETATM   26 BR   UNL     1      -2.217   6.048 -34.281  1.00  0.00    -0.051 Br
HETATM   27  C   UNL     1      -2.577   3.909 -32.435  1.00  0.00     0.020 A 
HETATM   28  C   UNL     1      -3.298   2.892 -31.803  1.00  0.00     0.014 A 
ENDBRANCH   7  22
TORSDOF 5
ENDMDL
