MODEL 1
REMARK VINA RESULT:      -8.7      0.000      0.000
REMARK  5 active torsions:
REMARK  status: ('A' for Active; 'I' for Inactive)
REMARK    1  A    between atoms: C_3  and  N_4 
REMARK       I    between atoms: N_4  and  C_5 
REMARK       I    between atoms: C_5  and  N_6 
REMARK    2  A    between atoms: N_6  and  C_7 
REMARK    3  A    between atoms: C_7  and  C_8 
REMARK    4  A    between atoms: C_10  and  N_11 
REMARK       I    between atoms: N_11  and  C_12 
REMARK    5  A    between atoms: C_12  and  C_13 
ROOT
HETATM    1  C   UNL     1      -3.223   3.056 -31.999  1.00  0.00    -0.038 A 
HETATM    2  C   UNL     1      -2.448   3.744 -31.048  1.00  0.00     0.038 A 
HETATM    3  C   UNL     1      -1.908   5.000 -31.333  1.00  0.00     0.035 A 
HETATM    4  C   UNL     1      -2.133   5.563 -32.595  1.00  0.00     0.029 A 
HETATM    5  C   UNL     1      -2.877   4.877 -33.557  1.00  0.00     0.003 A 
HETATM    6  C   UNL     1      -3.421   3.628 -33.262  1.00  0.00     0.009 A 
ENDROOT
BRANCH   1   7
HETATM    7  C   UNL     1      -3.854   1.733 -31.650  1.00  0.00     0.163 C 
BRANCH   7   8
HETATM    8  N   UNL     1      -3.794   0.796 -32.749  1.00  0.00    -0.339 N 
HETATM    9  C   UNL     1      -4.636  -0.291 -32.810  1.00  0.00     0.321 C 
HETATM   10  N   UNL     1      -4.294  -1.105 -33.871  1.00  0.00    -0.307 N 
HETATM   11  O   UNL     1      -5.502  -0.514 -31.975  1.00  0.00    -0.247 OA
HETATM   12  H   UNL     1      -3.301  -1.068 -34.061  1.00  0.00     0.170 HD
HETATM   13  H   UNL     1      -3.430   1.143 -33.624  1.00  0.00     0.164 HD
BRANCH  10  14
HETATM   14  C   UNL     1      -4.935  -2.327 -34.186  1.00  0.00     0.059 A 
HETATM   15  C   UNL     1      -6.250  -2.458 -34.654  1.00  0.00    -0.032 A 
HETATM   16  C   UNL     1      -7.154  -1.302 -34.977  1.00  0.00     0.050 C 
HETATM   17  C   UNL     1      -6.754  -3.753 -34.860  1.00  0.00     0.028 A 
HETATM   18  C   UNL     1      -5.930  -4.849 -34.661  1.00  0.00     0.117 A 
HETATM   19  N   UNL     1      -4.643  -4.752 -34.281  1.00  0.00    -0.271 NA
HETATM   20  C   UNL     1      -4.182  -3.499 -34.058  1.00  0.00     0.146 A 
ENDBRANCH  10  14
ENDBRANCH   7   8
ENDBRANCH   1   7
BRANCH   3  21
HETATM   21  N   UNL     1      -1.176   5.765 -30.406  1.00  0.00    -0.321 N 
HETATM   22  C   UNL     1       0.057   5.481 -29.845  1.00  0.00     0.279 C 
HETATM   23  O   UNL     1       0.779   4.538 -30.154  1.00  0.00    -0.265 OA
HETATM   24  H   UNL     1      -1.597   6.630 -30.086  1.00  0.00     0.169 HD
BRANCH  22  25
HETATM   25  C   UNL     1       0.443   6.440 -28.824  1.00  0.00     0.142 A 
HETATM   26  O   UNL     1       0.431   6.067 -27.503  1.00  0.00    -0.317 OA
HETATM   27  C   UNL     1       0.861   7.136 -26.783  1.00  0.00     0.143 A 
HETATM   28  C   UNL     1       1.139   8.197 -27.611  1.00  0.00     0.027 A 
HETATM   29  C   UNL     1       0.868   7.752 -28.927  1.00  0.00     0.045 A 
ENDBRANCH  22  25
ENDBRANCH   3  21
TORSDOF 5
ENDMDL
MODEL 2
REMARK VINA RESULT:      -8.6      2.939      9.509
REMARK  5 active torsions:
REMARK  status: ('A' for Active; 'I' for Inactive)
REMARK    1  A    between atoms: C_3  and  N_4 
REMARK       I    between atoms: N_4  and  C_5 
REMARK       I    between atoms: C_5  and  N_6 
REMARK    2  A    between atoms: N_6  and  C_7 
REMARK    3  A    between atoms: C_7  and  C_8 
REMARK    4  A    between atoms: C_10  and  N_11 
REMARK       I    between atoms: N_11  and  C_12 
REMARK    5  A    between atoms: C_12  and  C_13 
ROOT
HETATM    1  C   UNL     1      -7.070   2.304 -30.587  1.00  0.00    -0.038 A 
HETATM    2  C   UNL     1      -6.504   1.145 -31.148  1.00  0.00     0.038 A 
HETATM    3  C   UNL     1      -7.246   0.320 -31.996  1.00  0.00     0.035 A 
HETATM    4  C   UNL     1      -8.579   0.653 -32.268  1.00  0.00     0.029 A 
HETATM    5  C   UNL     1      -9.160   1.785 -31.694  1.00  0.00     0.003 A 
HETATM    6  C   UNL     1      -8.410   2.609 -30.856  1.00  0.00     0.009 A 
ENDROOT
BRANCH   1   7
HETATM    7  C   UNL     1      -6.234   3.218 -29.730  1.00  0.00     0.163 C 
BRANCH   7   8
HETATM    8  N   UNL     1      -4.856   3.261 -30.164  1.00  0.00    -0.339 N 
HETATM    9  C   UNL     1      -4.405   4.241 -31.019  1.00  0.00     0.321 C 
HETATM   10  N   UNL     1      -3.100   3.988 -31.393  1.00  0.00    -0.307 N 
HETATM   11  O   UNL     1      -5.114   5.149 -31.430  1.00  0.00    -0.247 OA
HETATM   12  H   UNL     1      -2.908   2.996 -31.418  1.00  0.00     0.170 HD
HETATM   13  H   UNL     1      -4.173   2.833 -29.556  1.00  0.00     0.164 HD
BRANCH  10  14
HETATM   14  C   UNL     1      -2.356   4.783 -32.298  1.00  0.00     0.059 A 
HETATM   15  C   UNL     1      -1.569   5.890 -31.951  1.00  0.00    -0.032 A 
HETATM   16  C   UNL     1      -1.327   6.348 -30.541  1.00  0.00     0.050 C 
HETATM   17  C   UNL     1      -0.943   6.607 -32.983  1.00  0.00     0.028 A 
HETATM   18  C   UNL     1      -1.064   6.171 -34.293  1.00  0.00     0.117 A 
HETATM   19  N   UNL     1      -1.753   5.072 -34.650  1.00  0.00    -0.271 NA
HETATM   20  C   UNL     1      -2.375   4.409 -33.646  1.00  0.00     0.146 A 
ENDBRANCH  10  14
ENDBRANCH   7   8
ENDBRANCH   1   7
BRANCH   3  21
HETATM   21  N   UNL     1      -6.721  -0.818 -32.636  1.00  0.00    -0.321 N 
HETATM   22  C   UNL     1      -6.379  -0.971 -33.968  1.00  0.00     0.279 C 
HETATM   23  O   UNL     1      -6.382  -0.078 -34.810  1.00  0.00    -0.265 OA
HETATM   24  H   UNL     1      -6.583  -1.646 -32.066  1.00  0.00     0.169 HD
BRANCH  22  25
HETATM   25  C   UNL     1      -5.990  -2.332 -34.294  1.00  0.00     0.142 A 
HETATM   26  O   UNL     1      -4.691  -2.732 -34.101  1.00  0.00    -0.317 OA
HETATM   27  C   UNL     1      -4.620  -4.042 -34.453  1.00  0.00     0.143 A 
HETATM   28  C   UNL     1      -5.844  -4.495 -34.882  1.00  0.00     0.027 A 
HETATM   29  C   UNL     1      -6.729  -3.395 -34.783  1.00  0.00     0.045 A 
ENDBRANCH  22  25
ENDBRANCH   3  21
TORSDOF 5
ENDMDL
MODEL 3
REMARK VINA RESULT:      -8.5      2.683      4.462
REMARK  5 active torsions:
REMARK  status: ('A' for Active; 'I' for Inactive)
REMARK    1  A    between atoms: C_3  and  N_4 
REMARK       I    between atoms: N_4  and  C_5 
REMARK       I    between atoms: C_5  and  N_6 
REMARK    2  A    between atoms: N_6  and  C_7 
REMARK    3  A    between atoms: C_7  and  C_8 
REMARK    4  A    between atoms: C_10  and  N_11 
REMARK       I    between atoms: N_11  and  C_12 
REMARK    5  A    between atoms: C_12  and  C_13 
ROOT
HETATM    1  C   UNL     1      -7.929   1.849 -33.499  1.00  0.00    -0.038 A 
HETATM    2  C   UNL     1      -6.674   2.462 -33.662  1.00  0.00     0.038 A 
HETATM    3  C   UNL     1      -6.084   3.182 -32.620  1.00  0.00     0.035 A 
HETATM    4  C   UNL     1      -6.773   3.305 -31.408  1.00  0.00     0.029 A 
HETATM    5  C   UNL     1      -8.033   2.725 -31.244  1.00  0.00     0.003 A 
HETATM    6  C   UNL     1      -8.610   1.999 -32.285  1.00  0.00     0.009 A 
ENDROOT
BRANCH   1   7
HETATM    7  C   UNL     1      -8.518   1.019 -34.610  1.00  0.00     0.163 C 
BRANCH   7   8
HETATM    8  N   UNL     1      -7.553   0.104 -35.174  1.00  0.00    -0.339 N 
HETATM    9  C   UNL     1      -7.161  -1.030 -34.499  1.00  0.00     0.321 C 
HETATM   10  N   UNL     1      -6.137  -1.662 -35.176  1.00  0.00    -0.307 N 
HETATM   11  O   UNL     1      -7.622  -1.356 -33.415  1.00  0.00    -0.247 OA
HETATM   12  H   UNL     1      -5.562  -1.000 -35.679  1.00  0.00     0.170 HD
HETATM   13  H   UNL     1      -7.474   0.088 -36.180  1.00  0.00     0.164 HD
BRANCH  10  14
HETATM   14  C   UNL     1      -5.480  -2.833 -34.727  1.00  0.00     0.059 A 
HETATM   15  C   UNL     1      -4.394  -2.867 -33.842  1.00  0.00    -0.032 A 
HETATM   16  C   UNL     1      -3.817  -1.659 -33.161  1.00  0.00     0.050 C 
HETATM   17  C   UNL     1      -3.819  -4.114 -33.547  1.00  0.00     0.028 A 
HETATM   18  C   UNL     1      -4.372  -5.268 -34.081  1.00  0.00     0.117 A 
HETATM   19  N   UNL     1      -5.456  -5.273 -34.877  1.00  0.00    -0.271 NA
HETATM   20  C   UNL     1      -5.980  -4.061 -35.175  1.00  0.00     0.146 A 
ENDBRANCH  10  14
ENDBRANCH   7   8
ENDBRANCH   1   7
BRANCH   3  21
HETATM   21  N   UNL     1      -4.807   3.767 -32.700  1.00  0.00    -0.321 N 
HETATM   22  C   UNL     1      -3.579   3.181 -32.449  1.00  0.00     0.279 C 
HETATM   23  O   UNL     1      -3.395   1.991 -32.210  1.00  0.00    -0.265 OA
HETATM   24  H   UNL     1      -4.763   4.747 -32.959  1.00  0.00     0.169 HD
BRANCH  22  25
HETATM   25  C   UNL     1      -2.482   4.132 -32.506  1.00  0.00     0.142 A 
HETATM   26  O   UNL     1      -1.635   4.256 -31.433  1.00  0.00    -0.317 OA
HETATM   27  C   UNL     1      -0.697   5.179 -31.768  1.00  0.00     0.143 A 
HETATM   28  C   UNL     1      -0.928   5.665 -33.033  1.00  0.00     0.027 A 
HETATM   29  C   UNL     1      -2.079   4.993 -33.510  1.00  0.00     0.045 A 
ENDBRANCH  22  25
ENDBRANCH   3  21
TORSDOF 5
ENDMDL
MODEL 4
REMARK VINA RESULT:      -8.4      3.370     10.149
REMARK  5 active torsions:
REMARK  status: ('A' for Active; 'I' for Inactive)
REMARK    1  A    between atoms: C_3  and  N_4 
REMARK       I    between atoms: N_4  and  C_5 
REMARK       I    between atoms: C_5  and  N_6 
REMARK    2  A    between atoms: N_6  and  C_7 
REMARK    3  A    between atoms: C_7  and  C_8 
REMARK    4  A    between atoms: C_10  and  N_11 
REMARK       I    between atoms: N_11  and  C_12 
REMARK    5  A    between atoms: C_12  and  C_13 
ROOT
HETATM    1  C   UNL     1      -5.361   0.049 -32.712  1.00  0.00    -0.038 A 
HETATM    2  C   UNL     1      -6.667   0.530 -32.918  1.00  0.00     0.038 A 
HETATM    3  C   UNL     1      -7.540  -0.113 -33.799  1.00  0.00     0.035 A 
HETATM    4  C   UNL     1      -7.089  -1.239 -34.497  1.00  0.00     0.029 A 
HETATM    5  C   UNL     1      -5.786  -1.709 -34.323  1.00  0.00     0.003 A 
HETATM    6  C   UNL     1      -4.924  -1.068 -33.434  1.00  0.00     0.009 A 
ENDROOT
BRANCH   1   7
HETATM    7  C   UNL     1      -4.457   0.713 -31.707  1.00  0.00     0.163 C 
BRANCH   7   8
HETATM    8  N   UNL     1      -3.436   1.515 -32.342  1.00  0.00    -0.339 N 
HETATM    9  C   UNL     1      -3.370   2.876 -32.148  1.00  0.00     0.321 C 
HETATM   10  N   UNL     1      -2.404   3.431 -32.963  1.00  0.00    -0.307 N 
HETATM   11  O   UNL     1      -4.132   3.484 -31.409  1.00  0.00    -0.247 OA
HETATM   12  H   UNL     1      -2.307   2.914 -33.826  1.00  0.00     0.170 HD
HETATM   13  H   UNL     1      -2.577   1.046 -32.590  1.00  0.00     0.164 HD
BRANCH  10  14
HETATM   14  C   UNL     1      -2.114   4.815 -33.037  1.00  0.00     0.059 A 
HETATM   15  C   UNL     1      -2.625   5.703 -33.993  1.00  0.00    -0.032 A 
HETATM   16  C   UNL     1      -3.638   5.331 -35.039  1.00  0.00     0.050 C 
HETATM   17  C   UNL     1      -2.185   7.036 -33.961  1.00  0.00     0.028 A 
HETATM   18  C   UNL     1      -1.319   7.449 -32.961  1.00  0.00     0.117 A 
HETATM   19  N   UNL     1      -0.867   6.637 -31.988  1.00  0.00    -0.271 NA
HETATM   20  C   UNL     1      -1.277   5.349 -32.051  1.00  0.00     0.146 A 
ENDBRANCH  10  14
ENDBRANCH   7   8
ENDBRANCH   1   7
BRANCH   3  21
HETATM   21  N   UNL     1      -8.875   0.283 -34.002  1.00  0.00    -0.321 N 
HETATM   22  C   UNL     1      -9.891   0.384 -33.068  1.00  0.00     0.279 C 
HETATM   23  O   UNL     1      -9.760   0.239 -31.856  1.00  0.00    -0.265 OA
HETATM   24  H   UNL     1      -9.149   0.513 -34.952  1.00  0.00     0.169 HD
BRANCH  22  25
HETATM   25  C   UNL     1     -11.176   0.698 -33.669  1.00  0.00     0.142 A 
HETATM   26  O   UNL     1     -12.270  -0.078 -33.376  1.00  0.00    -0.317 OA
HETATM   27  C   UNL     1     -13.328   0.455 -34.041  1.00  0.00     0.143 A 
HETATM   28  C   UNL     1     -12.937   1.554 -34.768  1.00  0.00     0.027 A 
HETATM   29  C   UNL     1     -11.551   1.711 -34.532  1.00  0.00     0.045 A 
ENDBRANCH  22  25
ENDBRANCH   3  21
TORSDOF 5
ENDMDL
MODEL 5
REMARK VINA RESULT:      -8.3      3.850     10.260
REMARK  5 active torsions:
REMARK  status: ('A' for Active; 'I' for Inactive)
REMARK    1  A    between atoms: C_3  and  N_4 
REMARK       I    between atoms: N_4  and  C_5 
REMARK       I    between atoms: C_5  and  N_6 
REMARK    2  A    between atoms: N_6  and  C_7 
REMARK    3  A    between atoms: C_7  and  C_8 
REMARK    4  A    between atoms: C_10  and  N_11 
REMARK       I    between atoms: N_11  and  C_12 
REMARK    5  A    between atoms: C_12  and  C_13 
ROOT
HETATM    1  C   UNL     1      -6.077   0.372 -31.839  1.00  0.00    -0.038 A 
HETATM    2  C   UNL     1      -7.445   0.634 -32.038  1.00  0.00     0.038 A 
HETATM    3  C   UNL     1      -8.179  -0.068 -32.997  1.00  0.00     0.035 A 
HETATM    4  C   UNL     1      -7.528  -1.029 -33.778  1.00  0.00     0.029 A 
HETATM    5  C   UNL     1      -6.164  -1.278 -33.609  1.00  0.00     0.003 A 
HETATM    6  C   UNL     1      -5.440  -0.581 -32.643  1.00  0.00     0.009 A 
ENDROOT
BRANCH   1   7
HETATM    7  C   UNL     1      -5.317   1.090 -30.754  1.00  0.00     0.163 C 
BRANCH   7   8
HETATM    8  N   UNL     1      -4.101   1.691 -31.250  1.00  0.00    -0.339 N 
HETATM    9  C   UNL     1      -4.060   3.011 -31.638  1.00  0.00     0.321 C 
HETATM   10  N   UNL     1      -2.835   3.309 -32.200  1.00  0.00    -0.307 N 
HETATM   11  O   UNL     1      -5.022   3.762 -31.555  1.00  0.00    -0.247 OA
HETATM   12  H   UNL     1      -2.436   2.505 -32.665  1.00  0.00     0.170 HD
HETATM   13  H   UNL     1      -3.231   1.276 -30.948  1.00  0.00     0.164 HD
BRANCH  10  14
HETATM   14  C   UNL     1      -2.484   4.570 -32.739  1.00  0.00     0.059 A 
HETATM   15  C   UNL     1      -1.502   5.429 -32.226  1.00  0.00    -0.032 A 
HETATM   16  C   UNL     1      -0.606   5.096 -31.068  1.00  0.00     0.050 C 
HETATM   17  C   UNL     1      -1.322   6.675 -32.848  1.00  0.00     0.028 A 
HETATM   18  C   UNL     1      -2.064   6.993 -33.976  1.00  0.00     0.117 A 
HETATM   19  N   UNL     1      -2.963   6.161 -34.532  1.00  0.00    -0.271 NA
HETATM   20  C   UNL     1      -3.145   4.977 -33.903  1.00  0.00     0.146 A 
ENDBRANCH  10  14
ENDBRANCH   7   8
ENDBRANCH   1   7
BRANCH   3  21
HETATM   21  N   UNL     1      -9.560   0.104 -33.203  1.00  0.00    -0.321 N 
HETATM   22  C   UNL     1     -10.209   1.156 -33.827  1.00  0.00     0.279 C 
HETATM   23  O   UNL     1      -9.659   2.086 -34.410  1.00  0.00    -0.265 OA
HETATM   24  H   UNL     1     -10.175  -0.617 -32.843  1.00  0.00     0.169 HD
BRANCH  22  25
HETATM   25  C   UNL     1     -11.655   1.055 -33.738  1.00  0.00     0.142 A 
HETATM   26  O   UNL     1     -12.423   2.187 -33.845  1.00  0.00    -0.317 OA
HETATM   27  C   UNL     1     -13.722   1.799 -33.759  1.00  0.00     0.143 A 
HETATM   28  C   UNL     1     -13.810   0.439 -33.586  1.00  0.00     0.027 A 
HETATM   29  C   UNL     1     -12.479  -0.044 -33.570  1.00  0.00     0.045 A 
ENDBRANCH  22  25
ENDBRANCH   3  21
TORSDOF 5
ENDMDL
MODEL 6
REMARK VINA RESULT:      -8.3      1.412      1.965
REMARK  5 active torsions:
REMARK  status: ('A' for Active; 'I' for Inactive)
REMARK    1  A    between atoms: C_3  and  N_4 
REMARK       I    between atoms: N_4  and  C_5 
REMARK       I    between atoms: C_5  and  N_6 
REMARK    2  A    between atoms: N_6  and  C_7 
REMARK    3  A    between atoms: C_7  and  C_8 
REMARK    4  A    between atoms: C_10  and  N_11 
REMARK       I    between atoms: N_11  and  C_12 
REMARK    5  A    between atoms: C_12  and  C_13 
ROOT
HETATM    1  C   UNL     1      -4.755   3.226 -32.206  1.00  0.00    -0.038 A 
HETATM    2  C   UNL     1      -3.779   3.867 -31.423  1.00  0.00     0.038 A 
HETATM    3  C   UNL     1      -3.404   5.188 -31.680  1.00  0.00     0.035 A 
HETATM    4  C   UNL     1      -4.002   5.865 -32.750  1.00  0.00     0.029 A 
HETATM    5  C   UNL     1      -4.952   5.229 -33.552  1.00  0.00     0.003 A 
HETATM    6  C   UNL     1      -5.328   3.914 -33.282  1.00  0.00     0.009 A 
ENDROOT
BRANCH   1   7
HETATM    7  C   UNL     1      -5.196   1.825 -31.871  1.00  0.00     0.163 C 
BRANCH   7   8
HETATM    8  N   UNL     1      -4.574   0.840 -32.727  1.00  0.00    -0.339 N 
HETATM    9  C   UNL     1      -5.025  -0.459 -32.769  1.00  0.00     0.321 C 
HETATM   10  N   UNL     1      -4.189  -1.233 -33.548  1.00  0.00    -0.307 N 
HETATM   11  O   UNL     1      -5.990  -0.854 -32.128  1.00  0.00    -0.247 OA
HETATM   12  H   UNL     1      -3.235  -0.900 -33.511  1.00  0.00     0.170 HD
HETATM   13  H   UNL     1      -4.096   1.186 -33.546  1.00  0.00     0.164 HD
BRANCH  10  14
HETATM   14  C   UNL     1      -4.349  -2.623 -33.762  1.00  0.00     0.059 A 
HETATM   15  C   UNL     1      -3.720  -3.637 -33.026  1.00  0.00    -0.032 A 
HETATM   16  C   UNL     1      -2.844  -3.396 -31.830  1.00  0.00     0.050 C 
HETATM   17  C   UNL     1      -3.941  -4.970 -33.410  1.00  0.00     0.028 A 
HETATM   18  C   UNL     1      -4.812  -5.247 -34.452  1.00  0.00     0.117 A 
HETATM   19  N   UNL     1      -5.484  -4.300 -35.132  1.00  0.00    -0.271 NA
HETATM   20  C   UNL     1      -5.237  -3.020 -34.768  1.00  0.00     0.146 A 
ENDBRANCH  10  14
ENDBRANCH   7   8
ENDBRANCH   1   7
BRANCH   3  21
HETATM   21  N   UNL     1      -2.479   5.904 -30.899  1.00  0.00    -0.321 N 
HETATM   22  C   UNL     1      -1.123   5.672 -30.747  1.00  0.00     0.279 C 
HETATM   23  O   UNL     1      -0.470   4.841 -31.371  1.00  0.00    -0.265 OA
HETATM   24  H   UNL     1      -2.837   6.685 -30.359  1.00  0.00     0.169 HD
BRANCH  22  25
HETATM   25  C   UNL     1      -0.513   6.539 -29.754  1.00  0.00     0.142 A 
HETATM   26  O   UNL     1      -1.183   6.810 -28.587  1.00  0.00    -0.317 OA
HETATM   27  C   UNL     1      -0.378   7.608 -27.840  1.00  0.00     0.143 A 
HETATM   28  C   UNL     1       0.796   7.869 -28.505  1.00  0.00     0.027 A 
HETATM   29  C   UNL     1       0.711   7.183 -29.740  1.00  0.00     0.045 A 
ENDBRANCH  22  25
ENDBRANCH   3  21
TORSDOF 5
ENDMDL
MODEL 7
REMARK VINA RESULT:      -8.1      2.930      9.646
REMARK  5 active torsions:
REMARK  status: ('A' for Active; 'I' for Inactive)
REMARK    1  A    between atoms: C_3  and  N_4 
REMARK       I    between atoms: N_4  and  C_5 
REMARK       I    between atoms: C_5  and  N_6 
REMARK    2  A    between atoms: N_6  and  C_7 
REMARK    3  A    between atoms: C_7  and  C_8 
REMARK    4  A    between atoms: C_10  and  N_11 
REMARK       I    between atoms: N_11  and  C_12 
REMARK    5  A    between atoms: C_12  and  C_13 
ROOT
HETATM    1  C   UNL     1      -7.457   3.791 -33.843  1.00  0.00    -0.038 A 
HETATM    2  C   UNL     1      -6.882   2.513 -33.963  1.00  0.00     0.038 A 
HETATM    3  C   UNL     1      -7.679   1.379 -34.135  1.00  0.00     0.035 A 
HETATM    4  C   UNL     1      -9.071   1.529 -34.165  1.00  0.00     0.029 A 
HETATM    5  C   UNL     1      -9.654   2.789 -34.018  1.00  0.00     0.003 A 
HETATM    6  C   UNL     1      -8.851   3.917 -33.857  1.00  0.00     0.009 A 
ENDROOT
BRANCH   1   7
HETATM    7  C   UNL     1      -6.579   5.010 -33.728  1.00  0.00     0.163 C 
BRANCH   7   8
HETATM    8  N   UNL     1      -5.175   4.668 -33.708  1.00  0.00    -0.339 N 
HETATM    9  C   UNL     1      -4.313   5.230 -32.793  1.00  0.00     0.321 C 
HETATM   10  N   UNL     1      -3.013   4.855 -33.063  1.00  0.00    -0.307 N 
HETATM   11  O   UNL     1      -4.676   6.012 -31.925  1.00  0.00    -0.247 OA
HETATM   12  H   UNL     1      -2.869   4.706 -34.053  1.00  0.00     0.170 HD
HETATM   13  H   UNL     1      -4.920   3.766 -34.082  1.00  0.00     0.164 HD
BRANCH  10  14
HETATM   14  C   UNL     1      -1.881   5.294 -32.335  1.00  0.00     0.059 A 
HETATM   15  C   UNL     1      -1.209   6.508 -32.532  1.00  0.00    -0.032 A 
HETATM   16  C   UNL     1      -1.648   7.573 -33.496  1.00  0.00     0.050 C 
HETATM   17  C   UNL     1      -0.062   6.763 -31.762  1.00  0.00     0.028 A 
HETATM   18  C   UNL     1       0.332   5.850 -30.796  1.00  0.00     0.117 A 
HETATM   19  N   UNL     1      -0.333   4.710 -30.536  1.00  0.00    -0.271 NA
HETATM   20  C   UNL     1      -1.419   4.466 -31.307  1.00  0.00     0.146 A 
ENDBRANCH  10  14
ENDBRANCH   7   8
ENDBRANCH   1   7
BRANCH   3  21
HETATM   21  N   UNL     1      -7.164   0.083 -34.321  1.00  0.00    -0.321 N 
HETATM   22  C   UNL     1      -6.548  -0.737 -33.391  1.00  0.00     0.279 C 
HETATM   23  O   UNL     1      -6.442  -0.497 -32.192  1.00  0.00    -0.265 OA
HETATM   24  H   UNL     1      -7.232  -0.312 -35.253  1.00  0.00     0.169 HD
BRANCH  22  25
HETATM   25  C   UNL     1      -6.027  -1.959 -33.979  1.00  0.00     0.142 A 
HETATM   26  O   UNL     1      -4.693  -2.255 -33.857  1.00  0.00    -0.317 OA
HETATM   27  C   UNL     1      -4.492  -3.453 -34.464  1.00  0.00     0.143 A 
HETATM   28  C   UNL     1      -5.669  -3.933 -34.987  1.00  0.00     0.027 A 
HETATM   29  C   UNL     1      -6.660  -2.971 -34.678  1.00  0.00     0.045 A 
ENDBRANCH  22  25
ENDBRANCH   3  21
TORSDOF 5
ENDMDL
MODEL 8
REMARK VINA RESULT:      -8.1      4.873      9.077
REMARK  5 active torsions:
REMARK  status: ('A' for Active; 'I' for Inactive)
REMARK    1  A    between atoms: C_3  and  N_4 
REMARK       I    between atoms: N_4  and  C_5 
REMARK       I    between atoms: C_5  and  N_6 
REMARK    2  A    between atoms: N_6  and  C_7 
REMARK    3  A    between atoms: C_7  and  C_8 
REMARK    4  A    between atoms: C_10  and  N_11 
REMARK       I    between atoms: N_11  and  C_12 
REMARK    5  A    between atoms: C_12  and  C_13 
ROOT
HETATM    1  C   UNL     1      -5.875   2.122 -30.881  1.00  0.00    -0.038 A 
HETATM    2  C   UNL     1      -6.051   0.915 -31.581  1.00  0.00     0.038 A 
HETATM    3  C   UNL     1      -4.978   0.292 -32.222  1.00  0.00     0.035 A 
HETATM    4  C   UNL     1      -3.717   0.900 -32.177  1.00  0.00     0.029 A 
HETATM    5  C   UNL     1      -3.537   2.113 -31.509  1.00  0.00     0.003 A 
HETATM    6  C   UNL     1      -4.611   2.723 -30.863  1.00  0.00     0.009 A 
ENDROOT
BRANCH   1   7
HETATM    7  C   UNL     1      -7.029   2.744 -30.138  1.00  0.00     0.163 C 
BRANCH   7   8
HETATM    8  N   UNL     1      -8.304   2.234 -30.591  1.00  0.00    -0.339 N 
HETATM    9  C   UNL     1      -8.945   2.776 -31.683  1.00  0.00     0.321 C 
HETATM   10  N   UNL     1     -10.198   2.217 -31.830  1.00  0.00    -0.307 N 
HETATM   11  O   UNL     1      -8.471   3.680 -32.356  1.00  0.00    -0.247 OA
HETATM   12  H   UNL     1     -10.592   1.952 -30.937  1.00  0.00     0.170 HD
HETATM   13  H   UNL     1      -8.517   1.274 -30.364  1.00  0.00     0.164 HD
BRANCH  10  14
HETATM   14  C   UNL     1     -11.130   2.584 -32.830  1.00  0.00     0.059 A 
HETATM   15  C   UNL     1     -12.077   3.611 -32.721  1.00  0.00    -0.032 A 
HETATM   16  C   UNL     1     -12.186   4.542 -31.547  1.00  0.00     0.050 C 
HETATM   17  C   UNL     1     -12.970   3.805 -33.787  1.00  0.00     0.028 A 
HETATM   18  C   UNL     1     -12.852   3.030 -34.930  1.00  0.00     0.117 A 
HETATM   19  N   UNL     1     -11.908   2.085 -35.093  1.00  0.00    -0.271 NA
HETATM   20  C   UNL     1     -11.075   1.891 -34.044  1.00  0.00     0.146 A 
ENDBRANCH  10  14
ENDBRANCH   7   8
ENDBRANCH   1   7
BRANCH   3  21
HETATM   21  N   UNL     1      -5.075  -0.944 -32.887  1.00  0.00    -0.321 N 
HETATM   22  C   UNL     1      -5.705  -1.225 -34.087  1.00  0.00     0.279 C 
HETATM   23  O   UNL     1      -6.206  -0.394 -34.838  1.00  0.00    -0.265 OA
HETATM   24  H   UNL     1      -4.647  -1.746 -32.436  1.00  0.00     0.169 HD
BRANCH  22  25
HETATM   25  C   UNL     1      -5.712  -2.644 -34.398  1.00  0.00     0.142 A 
HETATM   26  O   UNL     1      -4.593  -3.399 -34.149  1.00  0.00    -0.317 OA
HETATM   27  C   UNL     1      -4.887  -4.678 -34.500  1.00  0.00     0.143 A 
HETATM   28  C   UNL     1      -6.171  -4.763 -34.982  1.00  0.00     0.027 A 
HETATM   29  C   UNL     1      -6.704  -3.454 -34.920  1.00  0.00     0.045 A 
ENDBRANCH  22  25
ENDBRANCH   3  21
TORSDOF 5
ENDMDL
MODEL 9
REMARK VINA RESULT:      -7.7      3.622      9.598
REMARK  5 active torsions:
REMARK  status: ('A' for Active; 'I' for Inactive)
REMARK    1  A    between atoms: C_3  and  N_4 
REMARK       I    between atoms: N_4  and  C_5 
REMARK       I    between atoms: C_5  and  N_6 
REMARK    2  A    between atoms: N_6  and  C_7 
REMARK    3  A    between atoms: C_7  and  C_8 
REMARK    4  A    between atoms: C_10  and  N_11 
REMARK       I    between atoms: N_11  and  C_12 
REMARK    5  A    between atoms: C_12  and  C_13 
ROOT
HETATM    1  C   UNL     1      -9.282   2.098 -31.785  1.00  0.00    -0.038 A 
HETATM    2  C   UNL     1      -8.539   0.923 -31.994  1.00  0.00     0.038 A 
HETATM    3  C   UNL     1      -8.606   0.235 -33.209  1.00  0.00     0.035 A 
HETATM    4  C   UNL     1      -9.446   0.724 -34.217  1.00  0.00     0.029 A 
HETATM    5  C   UNL     1     -10.210   1.874 -34.010  1.00  0.00     0.003 A 
HETATM    6  C   UNL     1     -10.130   2.560 -32.799  1.00  0.00     0.009 A 
ENDROOT
BRANCH   1   7
HETATM    7  C   UNL     1      -9.144   2.864 -30.495  1.00  0.00     0.163 C 
BRANCH   7   8
HETATM    8  N   UNL     1      -7.767   2.968 -30.070  1.00  0.00    -0.339 N 
HETATM    9  C   UNL     1      -6.863   3.749 -30.755  1.00  0.00     0.321 C 
HETATM   10  N   UNL     1      -5.593   3.576 -30.242  1.00  0.00    -0.307 N 
HETATM   11  O   UNL     1      -7.166   4.426 -31.727  1.00  0.00    -0.247 OA
HETATM   12  H   UNL     1      -5.466   2.642 -29.876  1.00  0.00     0.170 HD
HETATM   13  H   UNL     1      -7.577   2.798 -29.093  1.00  0.00     0.164 HD
BRANCH  10  14
HETATM   14  C   UNL     1      -4.430   4.203 -30.749  1.00  0.00     0.059 A 
HETATM   15  C   UNL     1      -3.447   3.582 -31.532  1.00  0.00    -0.032 A 
HETATM   16  C   UNL     1      -3.528   2.167 -32.028  1.00  0.00     0.050 C 
HETATM   17  C   UNL     1      -2.321   4.336 -31.902  1.00  0.00     0.028 A 
HETATM   18  C   UNL     1      -2.242   5.673 -31.543  1.00  0.00     0.117 A 
HETATM   19  N   UNL     1      -3.202   6.315 -30.852  1.00  0.00    -0.271 NA
HETATM   20  C   UNL     1      -4.266   5.566 -30.479  1.00  0.00     0.146 A 
ENDBRANCH  10  14
ENDBRANCH   7   8
ENDBRANCH   1   7
BRANCH   3  21
HETATM   21  N   UNL     1      -7.844  -0.910 -33.501  1.00  0.00    -0.321 N 
HETATM   22  C   UNL     1      -6.563  -0.978 -34.023  1.00  0.00     0.279 C 
HETATM   23  O   UNL     1      -5.826  -0.017 -34.224  1.00  0.00    -0.265 OA
HETATM   24  H   UNL     1      -8.277  -1.811 -33.327  1.00  0.00     0.169 HD
BRANCH  22  25
HETATM   25  C   UNL     1      -6.148  -2.339 -34.315  1.00  0.00     0.142 A 
HETATM   26  O   UNL     1      -7.089  -3.276 -34.660  1.00  0.00    -0.317 OA
HETATM   27  C   UNL     1      -6.427  -4.436 -34.906  1.00  0.00     0.143 A 
HETATM   28  C   UNL     1      -5.076  -4.271 -34.715  1.00  0.00     0.027 A 
HETATM   29  C   UNL     1      -4.893  -2.921 -34.332  1.00  0.00     0.045 A 
ENDBRANCH  22  25
ENDBRANCH   3  21
TORSDOF 5
ENDMDL
MODEL 10
REMARK VINA RESULT:      -7.7      1.929      2.612
REMARK  5 active torsions:
REMARK  status: ('A' for Active; 'I' for Inactive)
REMARK    1  A    between atoms: C_3  and  N_4 
REMARK       I    between atoms: N_4  and  C_5 
REMARK       I    between atoms: C_5  and  N_6 
REMARK    2  A    between atoms: N_6  and  C_7 
REMARK    3  A    between atoms: C_7  and  C_8 
REMARK    4  A    between atoms: C_10  and  N_11 
REMARK       I    between atoms: N_11  and  C_12 
REMARK    5  A    between atoms: C_12  and  C_13 
ROOT
HETATM    1  C   UNL     1      -3.868   5.686 -32.877  1.00  0.00    -0.038 A 
HETATM    2  C   UNL     1      -3.096   5.957 -31.733  1.00  0.00     0.038 A 
HETATM    3  C   UNL     1      -1.790   6.441 -31.844  1.00  0.00     0.035 A 
HETATM    4  C   UNL     1      -1.248   6.636 -33.119  1.00  0.00     0.029 A 
HETATM    5  C   UNL     1      -1.995   6.343 -34.262  1.00  0.00     0.003 A 
HETATM    6  C   UNL     1      -3.300   5.870 -34.143  1.00  0.00     0.009 A 
ENDROOT
BRANCH   1   7
HETATM    7  C   UNL     1      -5.297   5.229 -32.737  1.00  0.00     0.163 C 
BRANCH   7   8
HETATM    8  N   UNL     1      -5.388   3.858 -32.290  1.00  0.00    -0.339 N 
HETATM    9  C   UNL     1      -5.641   2.832 -33.173  1.00  0.00     0.321 C 
HETATM   10  N   UNL     1      -5.818   1.645 -32.492  1.00  0.00    -0.307 N 
HETATM   11  O   UNL     1      -5.764   3.002 -34.378  1.00  0.00    -0.247 OA
HETATM   12  H   UNL     1      -6.220   1.800 -31.577  1.00  0.00     0.170 HD
HETATM   13  H   UNL     1      -4.894   3.621 -31.443  1.00  0.00     0.164 HD
BRANCH  10  14
HETATM   14  C   UNL     1      -6.135   0.408 -33.103  1.00  0.00     0.059 A 
HETATM   15  C   UNL     1      -7.429  -0.054 -33.380  1.00  0.00    -0.032 A 
HETATM   16  C   UNL     1      -8.681   0.743 -33.149  1.00  0.00     0.050 C 
HETATM   17  C   UNL     1      -7.569  -1.337 -33.936  1.00  0.00     0.028 A 
HETATM   18  C   UNL     1      -6.439  -2.076 -34.250  1.00  0.00     0.117 A 
HETATM   19  N   UNL     1      -5.184  -1.630 -34.060  1.00  0.00    -0.271 NA
HETATM   20  C   UNL     1      -5.066  -0.405 -33.497  1.00  0.00     0.146 A 
ENDBRANCH  10  14
ENDBRANCH   7   8
ENDBRANCH   1   7
BRANCH   3  21
HETATM   21  N   UNL     1      -0.989   6.788 -30.741  1.00  0.00    -0.321 N 
HETATM   22  C   UNL     1      -0.166   5.968 -29.988  1.00  0.00     0.279 C 
HETATM   23  O   UNL     1       0.083   4.791 -30.234  1.00  0.00    -0.265 OA
HETATM   24  H   UNL     1      -1.016   7.755 -30.435  1.00  0.00     0.169 HD
BRANCH  22  25
HETATM   25  C   UNL     1       0.408   6.651 -28.841  1.00  0.00     0.142 A 
HETATM   26  O   UNL     1       0.937   7.907 -28.995  1.00  0.00    -0.317 OA
HETATM   27  C   UNL     1       1.367   8.312 -27.772  1.00  0.00     0.143 A 
HETATM   28  C   UNL     1       1.138   7.337 -26.831  1.00  0.00     0.027 A 
HETATM   29  C   UNL     1       0.521   6.264 -27.518  1.00  0.00     0.045 A 
ENDBRANCH  22  25
ENDBRANCH   3  21
TORSDOF 5
ENDMDL
