MODEL 1
REMARK VINA RESULT:      -8.8      0.000      0.000
REMARK  4 active torsions:
REMARK  status: ('A' for Active; 'I' for Inactive)
REMARK    1  A    between atoms: C_6  and  N_7 
REMARK       I    between atoms: N_7  and  C_8 
REMARK    2  A    between atoms: C_8  and  C_9 
REMARK    3  A    between atoms: C_10  and  C_11 
REMARK    4  A    between atoms: C_13  and  O_14 
ROOT
HETATM    1  C   UNL     1      -5.824   2.142 -30.871  1.00  0.00     0.062 C 
HETATM    2  C   UNL     1      -7.091   2.903 -30.501  1.00  0.00     0.202 C 
HETATM    3  N   UNL     1      -6.757   4.169 -29.838  1.00  0.00    -0.084 N 
HETATM    4  C   UNL     1      -5.494   4.697 -29.787  1.00  0.00     0.725 A 
HETATM    5  N   UNL     1      -4.471   4.016 -30.338  1.00  0.00    -0.192 N 
HETATM    6  N   UNL     1      -7.628   4.914 -29.125  1.00  0.00    -0.149 NA
HETATM    7  C   UNL     1      -6.838   5.929 -28.755  1.00  0.00     0.275 A 
HETATM    8  N   UNL     1      -5.522   5.829 -29.132  1.00  0.00    -0.054 NA
HETATM    9  C   UNL     1      -4.597   2.717 -30.816  1.00  0.00     0.037 C 
HETATM   10  C   UNL     1      -3.320   2.045 -31.252  1.00  0.00     0.070 C 
HETATM   11  H   UNL     1      -3.534   4.404 -30.260  1.00  0.00     0.184 HD
ENDROOT
BRANCH   1  12
HETATM   12  C   UNL     1      -6.034   0.719 -31.239  1.00  0.00     0.256 C 
HETATM   13  N   UNL     1      -5.834   0.495 -32.587  1.00  0.00    -0.323 N 
HETATM   14  H   UNL     1      -5.616   1.304 -33.151  1.00  0.00     0.169 HD
HETATM   15  O   UNL     1      -6.303  -0.099 -30.372  1.00  0.00    -0.267 OA
BRANCH  13  16
HETATM   16  C   UNL     1      -5.874  -0.745 -33.271  1.00  0.00     0.041 A 
HETATM   17  C   UNL     1      -7.103  -1.190 -33.804  1.00  0.00    -0.035 A 
HETATM   18  C   UNL     1      -7.148  -2.403 -34.519  1.00  0.00     0.015 A 
HETATM   19  C   UNL     1      -8.381  -0.413 -33.647  1.00  0.00     0.050 C 
HETATM   20  C   UNL     1      -6.003  -3.186 -34.696  1.00  0.00    -0.061 A 
HETATM   21  C   UNL     1      -6.052  -4.453 -35.497  1.00  0.00     0.048 C 
HETATM   22  C   UNL     1      -4.796  -2.737 -34.165  1.00  0.00     0.009 A 
HETATM   23  C   UNL     1      -4.734  -1.534 -33.456  1.00  0.00     0.030 A 
ENDBRANCH  13  16
ENDBRANCH   1  12
BRANCH   2  24
HETATM   24  C   UNL     1      -8.015   3.174 -31.685  1.00  0.00    -0.025 A 
HETATM   25  C   UNL     1      -9.329   2.663 -31.677  1.00  0.00     0.046 A 
HETATM   26  C   UNL     1     -10.191   2.887 -32.753  1.00  0.00     0.068 A 
HETATM   27  C   UNL     1      -9.742   3.633 -33.844  1.00  0.00     0.037 A 
HETATM   28  C   UNL     1      -8.448   4.151 -33.867  1.00  0.00     0.003 A 
HETATM   29  C   UNL     1      -7.589   3.925 -32.794  1.00  0.00     0.010 A 
BRANCH  26  30
HETATM   30  O   UNL     1     -11.479   2.441 -32.859  1.00  0.00    -0.356 OA
HETATM   31  C   UNL     1     -11.715   1.361 -33.754  1.00  0.00     0.210 C 
ENDBRANCH  26  30
ENDBRANCH   2  24
TORSDOF 4
ENDMDL
MODEL 2
REMARK VINA RESULT:      -8.8      0.939      1.525
REMARK  4 active torsions:
REMARK  status: ('A' for Active; 'I' for Inactive)
REMARK    1  A    between atoms: C_6  and  N_7 
REMARK       I    between atoms: N_7  and  C_8 
REMARK    2  A    between atoms: C_8  and  C_9 
REMARK    3  A    between atoms: C_10  and  C_11 
REMARK    4  A    between atoms: C_13  and  O_14 
ROOT
HETATM    1  C   UNL     1      -5.777   2.240 -30.849  1.00  0.00     0.062 C 
HETATM    2  C   UNL     1      -7.036   2.936 -30.344  1.00  0.00     0.202 C 
HETATM    3  N   UNL     1      -6.699   4.216 -29.710  1.00  0.00    -0.084 N 
HETATM    4  C   UNL     1      -5.465   4.808 -29.789  1.00  0.00     0.725 A 
HETATM    5  N   UNL     1      -4.472   4.181 -30.448  1.00  0.00    -0.192 N 
HETATM    6  N   UNL     1      -7.527   4.915 -28.906  1.00  0.00    -0.149 NA
HETATM    7  C   UNL     1      -6.755   5.968 -28.614  1.00  0.00     0.275 A 
HETATM    8  N   UNL     1      -5.482   5.937 -29.127  1.00  0.00    -0.054 NA
HETATM    9  C   UNL     1      -4.582   2.877 -30.919  1.00  0.00     0.037 C 
HETATM   10  C   UNL     1      -3.325   2.272 -31.490  1.00  0.00     0.070 C 
HETATM   11  H   UNL     1      -3.553   4.616 -30.467  1.00  0.00     0.184 HD
ENDROOT
BRANCH   1  12
HETATM   12  C   UNL     1      -5.952   0.809 -31.202  1.00  0.00     0.256 C 
HETATM   13  N   UNL     1      -5.847   0.591 -32.561  1.00  0.00    -0.323 N 
HETATM   14  H   UNL     1      -5.708   1.409 -33.139  1.00  0.00     0.169 HD
HETATM   15  O   UNL     1      -6.117  -0.019 -30.318  1.00  0.00    -0.267 OA
BRANCH  13  16
HETATM   16  C   UNL     1      -5.884  -0.650 -33.242  1.00  0.00     0.041 A 
HETATM   17  C   UNL     1      -7.120  -1.117 -33.741  1.00  0.00    -0.035 A 
HETATM   18  C   UNL     1      -7.164  -2.332 -34.453  1.00  0.00     0.015 A 
HETATM   19  C   UNL     1      -8.407  -0.361 -33.549  1.00  0.00     0.050 C 
HETATM   20  C   UNL     1      -6.011  -3.096 -34.660  1.00  0.00    -0.061 A 
HETATM   21  C   UNL     1      -6.061  -4.365 -35.457  1.00  0.00     0.048 C 
HETATM   22  C   UNL     1      -4.798  -2.626 -34.163  1.00  0.00     0.009 A 
HETATM   23  C   UNL     1      -4.736  -1.420 -33.458  1.00  0.00     0.030 A 
ENDBRANCH  13  16
ENDBRANCH   1  12
BRANCH   2  24
HETATM   24  C   UNL     1      -8.091   3.160 -31.422  1.00  0.00    -0.025 A 
HETATM   25  C   UNL     1      -7.835   4.063 -32.473  1.00  0.00     0.046 A 
HETATM   26  C   UNL     1      -8.789   4.295 -33.467  1.00  0.00     0.068 A 
HETATM   27  C   UNL     1     -10.008   3.617 -33.415  1.00  0.00     0.037 A 
HETATM   28  C   UNL     1     -10.278   2.717 -32.385  1.00  0.00     0.003 A 
HETATM   29  C   UNL     1      -9.325   2.487 -31.394  1.00  0.00     0.010 A 
BRANCH  26  30
HETATM   30  O   UNL     1      -8.656   5.146 -34.529  1.00  0.00    -0.356 OA
HETATM   31  C   UNL     1      -9.840   5.777 -35.001  1.00  0.00     0.210 C 
ENDBRANCH  26  30
ENDBRANCH   2  24
TORSDOF 4
ENDMDL
MODEL 3
REMARK VINA RESULT:      -8.7      2.730      4.977
REMARK  4 active torsions:
REMARK  status: ('A' for Active; 'I' for Inactive)
REMARK    1  A    between atoms: C_6  and  N_7 
REMARK       I    between atoms: N_7  and  C_8 
REMARK    2  A    between atoms: C_8  and  C_9 
REMARK    3  A    between atoms: C_10  and  C_11 
REMARK    4  A    between atoms: C_13  and  O_14 
ROOT
HETATM    1  C   UNL     1      -7.974   1.757 -33.852  1.00  0.00     0.062 C 
HETATM    2  C   UNL     1      -7.284   3.114 -33.913  1.00  0.00     0.202 C 
HETATM    3  N   UNL     1      -8.244   4.192 -33.648  1.00  0.00    -0.084 N 
HETATM    4  C   UNL     1      -9.513   3.989 -33.170  1.00  0.00     0.725 A 
HETATM    5  N   UNL     1      -9.945   2.731 -32.959  1.00  0.00    -0.192 N 
HETATM    6  N   UNL     1      -8.029   5.496 -33.924  1.00  0.00    -0.149 NA
HETATM    7  C   UNL     1      -9.178   6.031 -33.496  1.00  0.00     0.275 A 
HETATM    8  N   UNL     1     -10.117   5.141 -33.036  1.00  0.00    -0.054 NA
HETATM    9  C   UNL     1      -9.228   1.608 -33.357  1.00  0.00     0.037 C 
HETATM   10  C   UNL     1      -9.927   0.283 -33.190  1.00  0.00     0.070 C 
HETATM   11  H   UNL     1     -10.900   2.594 -32.639  1.00  0.00     0.184 HD
ENDROOT
BRANCH   1  12
HETATM   12  C   UNL     1      -7.192   0.632 -34.424  1.00  0.00     0.256 C 
HETATM   13  N   UNL     1      -6.537  -0.095 -33.450  1.00  0.00    -0.323 N 
HETATM   14  H   UNL     1      -6.632   0.236 -32.500  1.00  0.00     0.169 HD
HETATM   15  O   UNL     1      -7.223   0.420 -35.627  1.00  0.00    -0.267 OA
BRANCH  13  16
HETATM   16  C   UNL     1      -5.767  -1.271 -33.622  1.00  0.00     0.041 A 
HETATM   17  C   UNL     1      -4.534  -1.384 -32.942  1.00  0.00    -0.035 A 
HETATM   18  C   UNL     1      -3.776  -2.564 -33.075  1.00  0.00     0.015 A 
HETATM   19  C   UNL     1      -3.991  -0.288 -32.065  1.00  0.00     0.050 C 
HETATM   20  C   UNL     1      -4.210  -3.620 -33.882  1.00  0.00    -0.061 A 
HETATM   21  C   UNL     1      -3.418  -4.890 -33.981  1.00  0.00     0.048 C 
HETATM   22  C   UNL     1      -5.427  -3.498 -34.548  1.00  0.00     0.009 A 
HETATM   23  C   UNL     1      -6.193  -2.335 -34.424  1.00  0.00     0.030 A 
ENDBRANCH  13  16
ENDBRANCH   1  12
BRANCH   2  24
HETATM   24  C   UNL     1      -6.094   3.244 -32.967  1.00  0.00    -0.025 A 
HETATM   25  C   UNL     1      -4.825   3.572 -33.483  1.00  0.00     0.046 A 
HETATM   26  C   UNL     1      -3.716   3.686 -32.640  1.00  0.00     0.068 A 
HETATM   27  C   UNL     1      -3.877   3.477 -31.270  1.00  0.00     0.037 A 
HETATM   28  C   UNL     1      -5.126   3.156 -30.740  1.00  0.00     0.003 A 
HETATM   29  C   UNL     1      -6.230   3.042 -31.583  1.00  0.00     0.010 A 
BRANCH  26  30
HETATM   30  O   UNL     1      -2.441   3.995 -33.024  1.00  0.00    -0.356 OA
HETATM   31  C   UNL     1      -1.693   4.837 -32.156  1.00  0.00     0.210 C 
ENDBRANCH  26  30
ENDBRANCH   2  24
TORSDOF 4
ENDMDL
MODEL 4
REMARK VINA RESULT:      -8.7      2.358      3.119
REMARK  4 active torsions:
REMARK  status: ('A' for Active; 'I' for Inactive)
REMARK    1  A    between atoms: C_6  and  N_7 
REMARK       I    between atoms: N_7  and  C_8 
REMARK    2  A    between atoms: C_8  and  C_9 
REMARK    3  A    between atoms: C_10  and  C_11 
REMARK    4  A    between atoms: C_13  and  O_14 
ROOT
HETATM    1  C   UNL     1      -7.582   2.399 -33.501  1.00  0.00     0.062 C 
HETATM    2  C   UNL     1      -8.867   2.276 -32.691  1.00  0.00     0.202 C 
HETATM    3  N   UNL     1      -8.974   3.375 -31.724  1.00  0.00    -0.084 N 
HETATM    4  C   UNL     1      -8.162   4.479 -31.726  1.00  0.00     0.725 A 
HETATM    5  N   UNL     1      -7.174   4.570 -32.636  1.00  0.00    -0.192 N 
HETATM    6  N   UNL     1      -9.816   3.388 -30.669  1.00  0.00    -0.149 NA
HETATM    7  C   UNL     1      -9.522   4.580 -30.135  1.00  0.00     0.275 A 
HETATM    8  N   UNL     1      -8.508   5.275 -30.747  1.00  0.00    -0.054 NA
HETATM    9  C   UNL     1      -6.821   3.521 -33.478  1.00  0.00     0.037 C 
HETATM   10  C   UNL     1      -5.590   3.735 -34.322  1.00  0.00     0.070 C 
HETATM   11  H   UNL     1      -6.557   5.378 -32.602  1.00  0.00     0.184 HD
ENDROOT
BRANCH   1  12
HETATM   12  C   UNL     1      -7.206   1.183 -34.265  1.00  0.00     0.256 C 
HETATM   13  N   UNL     1      -6.652   0.211 -33.457  1.00  0.00    -0.323 N 
HETATM   14  H   UNL     1      -6.535   0.448 -32.481  1.00  0.00     0.169 HD
HETATM   15  O   UNL     1      -7.442   1.120 -35.462  1.00  0.00    -0.267 OA
BRANCH  13  16
HETATM   16  C   UNL     1      -6.250  -1.096 -33.828  1.00  0.00     0.041 A 
HETATM   17  C   UNL     1      -4.899  -1.467 -33.657  1.00  0.00    -0.035 A 
HETATM   18  C   UNL     1      -4.494  -2.776 -33.988  1.00  0.00     0.015 A 
HETATM   19  C   UNL     1      -3.860  -0.518 -33.124  1.00  0.00     0.050 C 
HETATM   20  C   UNL     1      -5.399  -3.710 -34.501  1.00  0.00    -0.061 A 
HETATM   21  C   UNL     1      -4.969  -5.113 -34.808  1.00  0.00     0.048 C 
HETATM   22  C   UNL     1      -6.730  -3.332 -34.666  1.00  0.00     0.009 A 
HETATM   23  C   UNL     1      -7.149  -2.038 -34.339  1.00  0.00     0.030 A 
ENDBRANCH  13  16
ENDBRANCH   1  12
BRANCH   2  24
HETATM   24  C   UNL     1     -10.131   2.221 -33.545  1.00  0.00    -0.025 A 
HETATM   25  C   UNL     1     -11.078   1.201 -33.326  1.00  0.00     0.046 A 
HETATM   26  C   UNL     1     -12.237   1.121 -34.100  1.00  0.00     0.068 A 
HETATM   27  C   UNL     1     -12.458   2.071 -35.099  1.00  0.00     0.037 A 
HETATM   28  C   UNL     1     -11.535   3.090 -35.327  1.00  0.00     0.003 A 
HETATM   29  C   UNL     1     -10.378   3.168 -34.554  1.00  0.00     0.010 A 
BRANCH  26  30
HETATM   30  O   UNL     1     -13.222   0.179 -33.983  1.00  0.00    -0.356 OA
HETATM   31  C   UNL     1     -14.547   0.591 -34.293  1.00  0.00     0.210 C 
ENDBRANCH  26  30
ENDBRANCH   2  24
TORSDOF 4
ENDMDL
MODEL 5
REMARK VINA RESULT:      -8.6      2.710      4.753
REMARK  4 active torsions:
REMARK  status: ('A' for Active; 'I' for Inactive)
REMARK    1  A    between atoms: C_6  and  N_7 
REMARK       I    between atoms: N_7  and  C_8 
REMARK    2  A    between atoms: C_8  and  C_9 
REMARK    3  A    between atoms: C_10  and  C_11 
REMARK    4  A    between atoms: C_13  and  O_14 
ROOT
HETATM    1  C   UNL     1      -5.617   3.006 -31.586  1.00  0.00     0.062 C 
HETATM    2  C   UNL     1      -5.413   4.451 -32.024  1.00  0.00     0.202 C 
HETATM    3  N   UNL     1      -5.563   5.362 -30.883  1.00  0.00    -0.084 N 
HETATM    4  C   UNL     1      -5.627   4.950 -29.577  1.00  0.00     0.725 A 
HETATM    5  N   UNL     1      -5.592   3.633 -29.298  1.00  0.00    -0.192 N 
HETATM    6  N   UNL     1      -5.744   6.695 -30.984  1.00  0.00    -0.149 NA
HETATM    7  C   UNL     1      -5.814   7.033 -29.691  1.00  0.00     0.275 A 
HETATM    8  N   UNL     1      -5.756   5.993 -28.798  1.00  0.00    -0.054 NA
HETATM    9  C   UNL     1      -5.661   2.649 -30.278  1.00  0.00     0.037 C 
HETATM   10  C   UNL     1      -5.772   1.229 -29.785  1.00  0.00     0.070 C 
HETATM   11  H   UNL     1      -5.678   3.341 -28.327  1.00  0.00     0.184 HD
ENDROOT
BRANCH   1  12
HETATM   12  C   UNL     1      -5.819   2.039 -32.694  1.00  0.00     0.256 C 
HETATM   13  N   UNL     1      -5.534   0.743 -32.313  1.00  0.00    -0.323 N 
HETATM   14  H   UNL     1      -5.195   0.615 -31.370  1.00  0.00     0.169 HD
HETATM   15  O   UNL     1      -6.239   2.430 -33.773  1.00  0.00    -0.267 OA
BRANCH  13  16
HETATM   16  C   UNL     1      -5.686  -0.437 -33.082  1.00  0.00     0.041 A 
HETATM   17  C   UNL     1      -4.535  -1.182 -33.421  1.00  0.00    -0.035 A 
HETATM   18  C   UNL     1      -4.676  -2.377 -34.154  1.00  0.00     0.015 A 
HETATM   19  C   UNL     1      -3.149  -0.755 -33.022  1.00  0.00     0.050 C 
HETATM   20  C   UNL     1      -5.931  -2.832 -34.570  1.00  0.00    -0.061 A 
HETATM   21  C   UNL     1      -6.075  -4.128 -35.311  1.00  0.00     0.048 C 
HETATM   22  C   UNL     1      -7.059  -2.088 -34.231  1.00  0.00     0.009 A 
HETATM   23  C   UNL     1      -6.937  -0.902 -33.501  1.00  0.00     0.030 A 
ENDBRANCH  13  16
ENDBRANCH   1  12
BRANCH   2  24
HETATM   24  C   UNL     1      -4.073   4.704 -32.708  1.00  0.00    -0.025 A 
HETATM   25  C   UNL     1      -2.879   4.608 -31.965  1.00  0.00     0.046 A 
HETATM   26  C   UNL     1      -1.641   4.846 -32.565  1.00  0.00     0.068 A 
HETATM   27  C   UNL     1      -1.591   5.178 -33.919  1.00  0.00     0.037 A 
HETATM   28  C   UNL     1      -2.760   5.274 -34.672  1.00  0.00     0.003 A 
HETATM   29  C   UNL     1      -3.995   5.037 -34.072  1.00  0.00     0.010 A 
BRANCH  26  30
HETATM   30  O   UNL     1      -0.422   4.786 -31.947  1.00  0.00    -0.356 OA
HETATM   31  C   UNL     1      -0.382   5.124 -30.567  1.00  0.00     0.210 C 
ENDBRANCH  26  30
ENDBRANCH   2  24
TORSDOF 4
ENDMDL
MODEL 6
REMARK VINA RESULT:      -8.3      1.465      2.310
REMARK  4 active torsions:
REMARK  status: ('A' for Active; 'I' for Inactive)
REMARK    1  A    between atoms: C_6  and  N_7 
REMARK       I    between atoms: N_7  and  C_8 
REMARK    2  A    between atoms: C_8  and  C_9 
REMARK    3  A    between atoms: C_10  and  C_11 
REMARK    4  A    between atoms: C_13  and  O_14 
ROOT
HETATM    1  C   UNL     1      -6.749   1.966 -31.637  1.00  0.00     0.062 C 
HETATM    2  C   UNL     1      -8.180   2.338 -31.268  1.00  0.00     0.202 C 
HETATM    3  N   UNL     1      -8.247   3.727 -30.799  1.00  0.00    -0.084 N 
HETATM    4  C   UNL     1      -7.218   4.626 -30.914  1.00  0.00     0.725 A 
HETATM    5  N   UNL     1      -6.050   4.227 -31.453  1.00  0.00    -0.192 N 
HETATM    6  N   UNL     1      -9.286   4.258 -30.120  1.00  0.00    -0.149 NA
HETATM    7  C   UNL     1      -8.851   5.511 -29.945  1.00  0.00     0.275 A 
HETATM    8  N   UNL     1      -7.586   5.775 -30.408  1.00  0.00    -0.054 NA
HETATM    9  C   UNL     1      -5.769   2.898 -31.751  1.00  0.00     0.037 C 
HETATM   10  C   UNL     1      -4.360   2.603 -32.198  1.00  0.00     0.070 C 
HETATM   11  H   UNL     1      -5.285   4.895 -31.499  1.00  0.00     0.184 HD
ENDROOT
BRANCH   1  12
HETATM   12  C   UNL     1      -6.504   0.512 -31.804  1.00  0.00     0.256 C 
HETATM   13  N   UNL     1      -6.440   0.144 -33.133  1.00  0.00    -0.323 N 
HETATM   14  H   UNL     1      -6.602   0.875 -33.812  1.00  0.00     0.169 HD
HETATM   15  O   UNL     1      -6.341  -0.194 -30.820  1.00  0.00    -0.267 OA
BRANCH  13  16
HETATM   16  C   UNL     1      -6.148  -1.137 -33.662  1.00  0.00     0.041 A 
HETATM   17  C   UNL     1      -4.806  -1.577 -33.678  1.00  0.00    -0.035 A 
HETATM   18  C   UNL     1      -4.506  -2.864 -34.167  1.00  0.00     0.015 A 
HETATM   19  C   UNL     1      -3.669  -0.725 -33.183  1.00  0.00     0.050 C 
HETATM   20  C   UNL     1      -5.508  -3.709 -34.655  1.00  0.00    -0.061 A 
HETATM   21  C   UNL     1      -5.184  -5.094 -35.131  1.00  0.00     0.048 C 
HETATM   22  C   UNL     1      -6.828  -3.264 -34.635  1.00  0.00     0.009 A 
HETATM   23  C   UNL     1      -7.143  -1.991 -34.149  1.00  0.00     0.030 A 
ENDBRANCH  13  16
ENDBRANCH   1  12
BRANCH   2  24
HETATM   24  C   UNL     1      -9.182   2.132 -32.400  1.00  0.00    -0.025 A 
HETATM   25  C   UNL     1      -9.362   3.142 -33.366  1.00  0.00     0.046 A 
HETATM   26  C   UNL     1     -10.281   2.983 -34.406  1.00  0.00     0.068 A 
HETATM   27  C   UNL     1     -11.023   1.804 -34.487  1.00  0.00     0.037 A 
HETATM   28  C   UNL     1     -10.856   0.792 -33.543  1.00  0.00     0.003 A 
HETATM   29  C   UNL     1      -9.939   0.953 -32.506  1.00  0.00     0.010 A 
BRANCH  26  30
HETATM   30  O   UNL     1     -10.543   3.890 -35.396  1.00  0.00    -0.356 OA
HETATM   31  C   UNL     1     -11.554   4.855 -35.132  1.00  0.00     0.210 C 
ENDBRANCH  26  30
ENDBRANCH   2  24
TORSDOF 4
ENDMDL
MODEL 7
REMARK VINA RESULT:      -8.2      2.736      4.963
REMARK  4 active torsions:
REMARK  status: ('A' for Active; 'I' for Inactive)
REMARK    1  A    between atoms: C_6  and  N_7 
REMARK       I    between atoms: N_7  and  C_8 
REMARK    2  A    between atoms: C_8  and  C_9 
REMARK    3  A    between atoms: C_10  and  C_11 
REMARK    4  A    between atoms: C_13  and  O_14 
ROOT
HETATM    1  C   UNL     1      -9.383   1.829 -33.479  1.00  0.00     0.062 C 
HETATM    2  C   UNL     1      -8.591   3.129 -33.556  1.00  0.00     0.202 C 
HETATM    3  N   UNL     1      -9.386   4.179 -34.203  1.00  0.00    -0.084 N 
HETATM    4  C   UNL     1     -10.726   4.073 -34.469  1.00  0.00     0.725 A 
HETATM    5  N   UNL     1     -11.371   2.931 -34.163  1.00  0.00    -0.192 N 
HETATM    6  N   UNL     1      -8.880   5.331 -34.693  1.00  0.00    -0.149 NA
HETATM    7  C   UNL     1      -9.994   5.912 -35.154  1.00  0.00     0.275 A 
HETATM    8  N   UNL     1     -11.144   5.171 -35.044  1.00  0.00    -0.054 NA
HETATM    9  C   UNL     1     -10.714   1.781 -33.739  1.00  0.00     0.037 C 
HETATM   10  C   UNL     1     -11.567   0.546 -33.594  1.00  0.00     0.070 C 
HETATM   11  H   UNL     1     -12.357   2.853 -34.399  1.00  0.00     0.184 HD
ENDROOT
BRANCH   1  12
HETATM   12  C   UNL     1      -8.579   0.625 -33.155  1.00  0.00     0.256 C 
HETATM   13  N   UNL     1      -7.749   0.257 -34.195  1.00  0.00    -0.323 N 
HETATM   14  H   UNL     1      -7.814   0.809 -35.040  1.00  0.00     0.169 HD
HETATM   15  O   UNL     1      -8.671   0.112 -32.049  1.00  0.00    -0.267 OA
BRANCH  13  16
HETATM   16  C   UNL     1      -6.794  -0.789 -34.210  1.00  0.00     0.041 A 
HETATM   17  C   UNL     1      -5.515  -0.552 -33.660  1.00  0.00    -0.035 A 
HETATM   18  C   UNL     1      -4.569  -1.595 -33.635  1.00  0.00     0.015 A 
HETATM   19  C   UNL     1      -5.117   0.780 -33.084  1.00  0.00     0.050 C 
HETATM   20  C   UNL     1      -4.862  -2.857 -34.162  1.00  0.00    -0.061 A 
HETATM   21  C   UNL     1      -3.864  -3.973 -34.090  1.00  0.00     0.048 C 
HETATM   22  C   UNL     1      -6.127  -3.079 -34.703  1.00  0.00     0.009 A 
HETATM   23  C   UNL     1      -7.079  -2.055 -34.732  1.00  0.00     0.030 A 
ENDBRANCH  13  16
ENDBRANCH   1  12
BRANCH   2  24
HETATM   24  C   UNL     1      -8.089   3.626 -32.204  1.00  0.00    -0.025 A 
HETATM   25  C   UNL     1      -6.710   3.832 -32.003  1.00  0.00     0.046 A 
HETATM   26  C   UNL     1      -6.223   4.276 -30.772  1.00  0.00     0.068 A 
HETATM   27  C   UNL     1      -7.121   4.523 -29.732  1.00  0.00     0.037 A 
HETATM   28  C   UNL     1      -8.490   4.329 -29.913  1.00  0.00     0.003 A 
HETATM   29  C   UNL     1      -8.973   3.885 -31.142  1.00  0.00     0.010 A 
BRANCH  26  30
HETATM   30  O   UNL     1      -4.912   4.507 -30.459  1.00  0.00    -0.356 OA
HETATM   31  C   UNL     1      -3.958   4.300 -31.493  1.00  0.00     0.210 C 
ENDBRANCH  26  30
ENDBRANCH   2  24
TORSDOF 4
ENDMDL
MODEL 8
REMARK VINA RESULT:      -8.1      1.710      2.297
REMARK  4 active torsions:
REMARK  status: ('A' for Active; 'I' for Inactive)
REMARK    1  A    between atoms: C_6  and  N_7 
REMARK       I    between atoms: N_7  and  C_8 
REMARK    2  A    between atoms: C_8  and  C_9 
REMARK    3  A    between atoms: C_10  and  C_11 
REMARK    4  A    between atoms: C_13  and  O_14 
ROOT
HETATM    1  C   UNL     1      -6.572   3.026 -32.746  1.00  0.00     0.062 C 
HETATM    2  C   UNL     1      -7.995   3.285 -32.266  1.00  0.00     0.202 C 
HETATM    3  N   UNL     1      -7.994   4.209 -31.126  1.00  0.00    -0.084 N 
HETATM    4  C   UNL     1      -6.898   4.924 -30.719  1.00  0.00     0.725 A 
HETATM    5  N   UNL     1      -5.726   4.759 -31.362  1.00  0.00    -0.192 N 
HETATM    6  N   UNL     1      -9.038   4.397 -30.291  1.00  0.00    -0.149 NA
HETATM    7  C   UNL     1      -8.527   5.314 -29.461  1.00  0.00     0.275 A 
HETATM    8  N   UNL     1      -7.216   5.656 -29.683  1.00  0.00    -0.054 NA
HETATM    9  C   UNL     1      -5.522   3.773 -32.321  1.00  0.00     0.037 C 
HETATM   10  C   UNL     1      -4.109   3.622 -32.825  1.00  0.00     0.070 C 
HETATM   11  H   UNL     1      -4.913   5.268 -31.026  1.00  0.00     0.184 HD
ENDROOT
BRANCH   1  12
HETATM   12  C   UNL     1      -6.422   1.868 -33.662  1.00  0.00     0.256 C 
HETATM   13  N   UNL     1      -6.213   0.687 -32.978  1.00  0.00    -0.323 N 
HETATM   14  H   UNL     1      -6.148   0.754 -31.972  1.00  0.00     0.169 HD
HETATM   15  O   UNL     1      -6.535   2.029 -34.868  1.00  0.00    -0.267 OA
BRANCH  13  16
HETATM   16  C   UNL     1      -6.103  -0.617 -33.520  1.00  0.00     0.041 A 
HETATM   17  C   UNL     1      -4.830  -1.226 -33.579  1.00  0.00    -0.035 A 
HETATM   18  C   UNL     1      -4.713  -2.537 -34.081  1.00  0.00     0.015 A 
HETATM   19  C   UNL     1      -3.579  -0.530 -33.116  1.00  0.00     0.050 C 
HETATM   20  C   UNL     1      -5.829  -3.242 -34.542  1.00  0.00    -0.061 A 
HETATM   21  C   UNL     1      -5.700  -4.653 -35.033  1.00  0.00     0.048 C 
HETATM   22  C   UNL     1      -7.080  -2.631 -34.480  1.00  0.00     0.009 A 
HETATM   23  C   UNL     1      -7.214  -1.332 -33.980  1.00  0.00     0.030 A 
ENDBRANCH  13  16
ENDBRANCH   1  12
BRANCH   2  24
HETATM   24  C   UNL     1      -8.926   3.815 -33.353  1.00  0.00    -0.025 A 
HETATM   25  C   UNL     1      -9.979   3.006 -33.826  1.00  0.00     0.046 A 
HETATM   26  C   UNL     1     -10.838   3.463 -34.828  1.00  0.00     0.068 A 
HETATM   27  C   UNL     1     -10.649   4.739 -35.360  1.00  0.00     0.037 A 
HETATM   28  C   UNL     1      -9.615   5.555 -34.902  1.00  0.00     0.003 A 
HETATM   29  C   UNL     1      -8.759   5.098 -33.903  1.00  0.00     0.010 A 
BRANCH  26  30
HETATM   30  O   UNL     1     -11.888   2.771 -35.366  1.00  0.00    -0.356 OA
HETATM   31  C   UNL     1     -12.176   1.498 -34.802  1.00  0.00     0.210 C 
ENDBRANCH  26  30
ENDBRANCH   2  24
TORSDOF 4
ENDMDL
MODEL 9
REMARK VINA RESULT:      -7.8      3.094      6.960
REMARK  4 active torsions:
REMARK  status: ('A' for Active; 'I' for Inactive)
REMARK    1  A    between atoms: C_6  and  N_7 
REMARK       I    between atoms: N_7  and  C_8 
REMARK    2  A    between atoms: C_8  and  C_9 
REMARK    3  A    between atoms: C_10  and  C_11 
REMARK    4  A    between atoms: C_13  and  O_14 
ROOT
HETATM    1  C   UNL     1      -6.300   3.030 -32.352  1.00  0.00     0.062 C 
HETATM    2  C   UNL     1      -6.617   1.677 -31.727  1.00  0.00     0.202 C 
HETATM    3  N   UNL     1      -7.921   1.188 -32.190  1.00  0.00    -0.084 N 
HETATM    4  C   UNL     1      -8.628   1.749 -33.222  1.00  0.00     0.725 A 
HETATM    5  N   UNL     1      -8.138   2.839 -33.842  1.00  0.00    -0.192 N 
HETATM    6  N   UNL     1      -8.619   0.192 -31.604  1.00  0.00    -0.149 NA
HETATM    7  C   UNL     1      -9.695   0.145 -32.398  1.00  0.00     0.275 A 
HETATM    8  N   UNL     1      -9.743   1.088 -33.395  1.00  0.00    -0.054 NA
HETATM    9  C   UNL     1      -7.024   3.535 -33.382  1.00  0.00     0.037 C 
HETATM   10  C   UNL     1      -6.706   4.823 -34.098  1.00  0.00     0.070 C 
HETATM   11  H   UNL     1      -8.690   3.266 -34.581  1.00  0.00     0.184 HD
ENDROOT
BRANCH   1  12
HETATM   12  C   UNL     1      -5.182   3.768 -31.712  1.00  0.00     0.256 C 
HETATM   13  N   UNL     1      -4.067   3.829 -32.524  1.00  0.00    -0.323 N 
HETATM   14  H   UNL     1      -4.127   3.347 -33.410  1.00  0.00     0.169 HD
HETATM   15  O   UNL     1      -5.339   4.273 -30.610  1.00  0.00    -0.267 OA
BRANCH  13  16
HETATM   16  C   UNL     1      -2.852   4.513 -32.272  1.00  0.00     0.041 A 
HETATM   17  C   UNL     1      -2.349   5.391 -33.256  1.00  0.00    -0.035 A 
HETATM   18  C   UNL     1      -1.161   6.106 -33.003  1.00  0.00     0.015 A 
HETATM   19  C   UNL     1      -3.037   5.607 -34.577  1.00  0.00     0.050 C 
HETATM   20  C   UNL     1      -0.458   5.948 -31.804  1.00  0.00    -0.061 A 
HETATM   21  C   UNL     1       0.781   6.746 -31.526  1.00  0.00     0.048 C 
HETATM   22  C   UNL     1      -0.964   5.078 -30.841  1.00  0.00     0.009 A 
HETATM   23  C   UNL     1      -2.144   4.365 -31.075  1.00  0.00     0.030 A 
ENDBRANCH  13  16
ENDBRANCH   1  12
BRANCH   2  24
HETATM   24  C   UNL     1      -5.552   0.615 -31.983  1.00  0.00    -0.025 A 
HETATM   25  C   UNL     1      -5.657  -0.222 -33.112  1.00  0.00     0.046 A 
HETATM   26  C   UNL     1      -4.701  -1.209 -33.363  1.00  0.00     0.068 A 
HETATM   27  C   UNL     1      -3.628  -1.361 -32.482  1.00  0.00     0.037 A 
HETATM   28  C   UNL     1      -3.506  -0.540 -31.362  1.00  0.00     0.003 A 
HETATM   29  C   UNL     1      -4.460   0.444 -31.114  1.00  0.00     0.010 A 
BRANCH  26  30
HETATM   30  O   UNL     1      -4.698  -2.079 -34.419  1.00  0.00    -0.356 OA
HETATM   31  C   UNL     1      -4.260  -3.406 -34.159  1.00  0.00     0.210 C 
ENDBRANCH  26  30
ENDBRANCH   2  24
TORSDOF 4
ENDMDL
MODEL 10
REMARK VINA RESULT:      -7.7      1.840      2.464
REMARK  4 active torsions:
REMARK  status: ('A' for Active; 'I' for Inactive)
REMARK    1  A    between atoms: C_6  and  N_7 
REMARK       I    between atoms: N_7  and  C_8 
REMARK    2  A    between atoms: C_8  and  C_9 
REMARK    3  A    between atoms: C_10  and  C_11 
REMARK    4  A    between atoms: C_13  and  O_14 
ROOT
HETATM    1  C   UNL     1      -4.077   3.621 -31.455  1.00  0.00     0.062 C 
HETATM    2  C   UNL     1      -5.064   4.029 -30.368  1.00  0.00     0.202 C 
HETATM    3  N   UNL     1      -4.804   5.404 -29.926  1.00  0.00    -0.084 N 
HETATM    4  C   UNL     1      -3.963   6.272 -30.573  1.00  0.00     0.725 A 
HETATM    5  N   UNL     1      -3.290   5.850 -31.661  1.00  0.00    -0.192 N 
HETATM    6  N   UNL     1      -5.288   5.948 -28.789  1.00  0.00    -0.149 NA
HETATM    7  C   UNL     1      -4.772   7.181 -28.868  1.00  0.00     0.275 A 
HETATM    8  N   UNL     1      -3.947   7.416 -29.940  1.00  0.00    -0.054 NA
HETATM    9  C   UNL     1      -3.274   4.523 -32.074  1.00  0.00     0.037 C 
HETATM   10  C   UNL     1      -2.343   4.195 -33.214  1.00  0.00     0.070 C 
HETATM   11  H   UNL     1      -2.642   6.494 -32.109  1.00  0.00     0.184 HD
ENDROOT
BRANCH   1  12
HETATM   12  C   UNL     1      -4.025   2.165 -31.739  1.00  0.00     0.256 C 
HETATM   13  N   UNL     1      -5.002   1.774 -32.634  1.00  0.00    -0.323 N 
HETATM   14  H   UNL     1      -5.639   2.493 -32.948  1.00  0.00     0.169 HD
HETATM   15  O   UNL     1      -3.153   1.477 -31.231  1.00  0.00    -0.267 OA
BRANCH  13  16
HETATM   16  C   UNL     1      -5.201   0.486 -33.186  1.00  0.00     0.041 A 
HETATM   17  C   UNL     1      -6.430   0.199 -33.820  1.00  0.00    -0.035 A 
HETATM   18  C   UNL     1      -6.627  -1.067 -34.406  1.00  0.00     0.015 A 
HETATM   19  C   UNL     1      -7.550   1.200 -33.904  1.00  0.00     0.050 C 
HETATM   20  C   UNL     1      -5.637  -2.054 -34.358  1.00  0.00    -0.061 A 
HETATM   21  C   UNL     1      -5.839  -3.382 -35.023  1.00  0.00     0.048 C 
HETATM   22  C   UNL     1      -4.429  -1.760 -33.729  1.00  0.00     0.009 A 
HETATM   23  C   UNL     1      -4.216  -0.507 -33.146  1.00  0.00     0.030 A 
ENDBRANCH  13  16
ENDBRANCH   1  12
BRANCH   2  24
HETATM   24  C   UNL     1      -6.526   3.891 -30.780  1.00  0.00    -0.025 A 
HETATM   25  C   UNL     1      -7.036   4.687 -31.825  1.00  0.00     0.046 A 
HETATM   26  C   UNL     1      -8.374   4.588 -32.213  1.00  0.00     0.068 A 
HETATM   27  C   UNL     1      -9.210   3.683 -31.558  1.00  0.00     0.037 A 
HETATM   28  C   UNL     1      -8.723   2.884 -30.525  1.00  0.00     0.003 A 
HETATM   29  C   UNL     1      -7.388   2.985 -30.138  1.00  0.00     0.010 A 
BRANCH  26  30
HETATM   30  O   UNL     1      -8.980   5.307 -33.206  1.00  0.00    -0.356 OA
HETATM   31  C   UNL     1      -9.426   4.583 -34.346  1.00  0.00     0.210 C 
ENDBRANCH  26  30
ENDBRANCH   2  24
TORSDOF 4
ENDMDL
