MODEL 1
REMARK VINA RESULT:      -7.3      0.000      0.000
REMARK  5 active torsions:
REMARK  status: ('A' for Active; 'I' for Inactive)
REMARK    1  A    between atoms: C_2  and  N_3 
REMARK    2  A    between atoms: N_3  and  C_6 
REMARK    3  A    between atoms: C_6  and  C_7 
REMARK    4  A    between atoms: C_8  and  N_9 
REMARK       I    between atoms: N_9  and  C_10 
REMARK    5  A    between atoms: C_10  and  C_11 
ROOT
HETATM    1  N   UNL     1      -6.468  -0.886 -34.332  1.00  0.00    -0.326 N 
HETATM    2  C   UNL     1      -6.932  -0.178 -33.229  1.00  0.00     0.231 C 
HETATM    3  O   UNL     1      -6.885  -0.568 -32.066  1.00  0.00    -0.272 OA
HETATM    4  H   UNL     1      -6.584  -0.410 -35.213  1.00  0.00     0.169 HD
ENDROOT
BRANCH   1   5
HETATM    5  C   UNL     1      -5.975  -2.213 -34.370  1.00  0.00     0.042 A 
HETATM    6  C   UNL     1      -4.638  -2.468 -33.978  1.00  0.00    -0.006 A 
HETATM    7  C   UNL     1      -4.140  -3.786 -34.042  1.00  0.00     0.011 A 
HETATM    8  C   UNL     1      -4.943  -4.835 -34.482  1.00  0.00     0.001 A 
HETATM    9  C   UNL     1      -6.256  -4.584 -34.853  1.00  0.00     0.002 A 
HETATM   10  C   UNL     1      -6.767  -3.285 -34.796  1.00  0.00     0.030 A 
BRANCH   6  11
HETATM   11  C   UNL     1      -3.737  -1.411 -33.400  1.00  0.00     0.273 C 
BRANCH  11  12
HETATM   12  N   UNL     1      -3.770  -1.434 -31.906  1.00  0.00    -0.072 N 
HETATM   13  H   UNL     1      -3.129  -2.174 -31.585  1.00  0.00     0.277 HD
HETATM   14  H   UNL     1      -4.704  -1.740 -31.596  1.00  0.00     0.277 HD
BRANCH  12  15
HETATM   15  C   UNL     1      -3.422  -0.140 -31.256  1.00  0.00     0.228 C 
HETATM   16  C   UNL     1      -3.520   0.971 -32.281  1.00  0.00     0.034 C 
ENDBRANCH  12  15
ENDBRANCH  11  12
ENDBRANCH   6  11
ENDBRANCH   1   5
BRANCH   2  17
HETATM   17  C   UNL     1      -7.376   1.261 -33.524  1.00  0.00     0.122 C 
HETATM   18  C   UNL     1      -7.658   2.107 -32.300  1.00  0.00    -0.028 A 
HETATM   19  C   UNL     1      -9.016   2.239 -31.984  1.00  0.00     0.007 A 
HETATM   20  C   UNL     1      -6.692   2.681 -31.482  1.00  0.00     0.009 A 
HETATM   21  C   UNL     1      -9.432   2.942 -30.866  1.00  0.00     0.019 A 
HETATM   22  S   UNL     1     -10.047   1.357 -33.118  1.00  0.00    -0.128 SA
HETATM   23  C   UNL     1      -8.463   3.525 -30.048  1.00  0.00     0.001 A 
HETATM   24  C   UNL     1      -7.102   3.393 -30.353  1.00  0.00     0.001 A 
HETATM   25  C   UNL     1      -8.684   1.226 -34.332  1.00  0.00     0.098 C 
ENDBRANCH   2  17
TORSDOF 5
ENDMDL
MODEL 2
REMARK VINA RESULT:      -7.2      2.603      3.683
REMARK  5 active torsions:
REMARK  status: ('A' for Active; 'I' for Inactive)
REMARK    1  A    between atoms: C_2  and  N_3 
REMARK    2  A    between atoms: N_3  and  C_6 
REMARK    3  A    between atoms: C_6  and  C_7 
REMARK    4  A    between atoms: C_8  and  N_9 
REMARK       I    between atoms: N_9  and  C_10 
REMARK    5  A    between atoms: C_10  and  C_11 
ROOT
HETATM    1  N   UNL     1      -7.829  -0.342 -33.099  1.00  0.00    -0.326 N 
HETATM    2  C   UNL     1      -8.671   0.472 -33.849  1.00  0.00     0.231 C 
HETATM    3  O   UNL     1      -8.695   0.526 -35.075  1.00  0.00    -0.272 OA
HETATM    4  H   UNL     1      -7.949  -0.260 -32.101  1.00  0.00     0.169 HD
ENDROOT
BRANCH   1   5
HETATM    5  C   UNL     1      -6.771  -1.160 -33.562  1.00  0.00     0.042 A 
HETATM    6  C   UNL     1      -5.433  -0.790 -33.282  1.00  0.00    -0.006 A 
HETATM    7  C   UNL     1      -4.379  -1.591 -33.767  1.00  0.00     0.011 A 
HETATM    8  C   UNL     1      -4.636  -2.738 -34.514  1.00  0.00     0.001 A 
HETATM    9  C   UNL     1      -5.948  -3.106 -34.775  1.00  0.00     0.002 A 
HETATM   10  C   UNL     1      -7.005  -2.325 -34.303  1.00  0.00     0.030 A 
BRANCH   6  11
HETATM   11  C   UNL     1      -5.071   0.377 -32.403  1.00  0.00     0.273 C 
BRANCH  11  12
HETATM   12  N   UNL     1      -4.869  -0.058 -30.987  1.00  0.00    -0.072 N 
HETATM   13  H   UNL     1      -3.874   0.071 -30.754  1.00  0.00     0.277 HD
HETATM   14  H   UNL     1      -5.027  -1.074 -30.923  1.00  0.00     0.277 HD
BRANCH  12  15
HETATM   15  C   UNL     1      -5.723   0.648 -29.991  1.00  0.00     0.228 C 
HETATM   16  C   UNL     1      -6.333   1.872 -30.642  1.00  0.00     0.034 C 
ENDBRANCH  12  15
ENDBRANCH  11  12
ENDBRANCH   6  11
ENDBRANCH   1   5
BRANCH   2  17
HETATM   17  C   UNL     1      -9.742   1.216 -33.041  1.00  0.00     0.122 C 
HETATM   18  C   UNL     1     -11.168   0.963 -33.482  1.00  0.00    -0.028 A 
HETATM   19  C   UNL     1     -11.719   1.975 -34.278  1.00  0.00     0.007 A 
HETATM   20  C   UNL     1     -11.902  -0.186 -33.206  1.00  0.00     0.009 A 
HETATM   21  C   UNL     1     -12.997   1.867 -34.800  1.00  0.00     0.019 A 
HETATM   22  S   UNL     1     -10.573   3.291 -34.560  1.00  0.00    -0.128 SA
HETATM   23  C   UNL     1     -13.737   0.719 -34.517  1.00  0.00     0.001 A 
HETATM   24  C   UNL     1     -13.192  -0.302 -33.727  1.00  0.00     0.001 A 
HETATM   25  C   UNL     1      -9.513   2.729 -33.178  1.00  0.00     0.098 C 
ENDBRANCH   2  17
TORSDOF 5
ENDMDL
MODEL 3
REMARK VINA RESULT:      -7.1      2.923      6.679
REMARK  5 active torsions:
REMARK  status: ('A' for Active; 'I' for Inactive)
REMARK    1  A    between atoms: C_2  and  N_3 
REMARK    2  A    between atoms: N_3  and  C_6 
REMARK    3  A    between atoms: C_6  and  C_7 
REMARK    4  A    between atoms: C_8  and  N_9 
REMARK       I    between atoms: N_9  and  C_10 
REMARK    5  A    between atoms: C_10  and  C_11 
ROOT
HETATM    1  N   UNL     1      -9.818   1.803 -34.666  1.00  0.00    -0.326 N 
HETATM    2  C   UNL     1      -8.863   0.971 -34.092  1.00  0.00     0.231 C 
HETATM    3  O   UNL     1      -9.086   0.130 -33.226  1.00  0.00    -0.272 OA
HETATM    4  H   UNL     1      -9.458   2.431 -35.367  1.00  0.00     0.169 HD
ENDROOT
BRANCH   1   5
HETATM    5  C   UNL     1     -11.179   1.946 -34.302  1.00  0.00     0.042 A 
HETATM    6  C   UNL     1     -11.513   2.670 -33.132  1.00  0.00    -0.006 A 
HETATM    7  C   UNL     1     -12.867   2.789 -32.756  1.00  0.00     0.011 A 
HETATM    8  C   UNL     1     -13.875   2.205 -33.518  1.00  0.00     0.001 A 
HETATM    9  C   UNL     1     -13.547   1.507 -34.671  1.00  0.00     0.002 A 
HETATM   10  C   UNL     1     -12.211   1.379 -35.059  1.00  0.00     0.030 A 
BRANCH   6  11
HETATM   11  C   UNL     1     -10.495   3.412 -32.308  1.00  0.00     0.273 C 
BRANCH  11  12
HETATM   12  N   UNL     1      -9.983   2.562 -31.190  1.00  0.00    -0.072 N 
HETATM   13  H   UNL     1      -9.941   1.589 -31.524  1.00  0.00     0.277 HD
HETATM   14  H   UNL     1     -10.680   2.552 -30.431  1.00  0.00     0.277 HD
BRANCH  12  15
HETATM   15  C   UNL     1      -8.658   2.975 -30.651  1.00  0.00     0.228 C 
HETATM   16  C   UNL     1      -8.203   4.232 -31.363  1.00  0.00     0.034 C 
ENDBRANCH  12  15
ENDBRANCH  11  12
ENDBRANCH   6  11
ENDBRANCH   1   5
BRANCH   2  17
HETATM   17  C   UNL     1      -7.475   1.034 -34.743  1.00  0.00     0.122 C 
HETATM   18  C   UNL     1      -6.595  -0.172 -34.493  1.00  0.00    -0.028 A 
HETATM   19  C   UNL     1      -5.631   0.008 -33.493  1.00  0.00     0.007 A 
HETATM   20  C   UNL     1      -6.723  -1.404 -35.126  1.00  0.00     0.009 A 
HETATM   21  C   UNL     1      -4.783  -1.019 -33.115  1.00  0.00     0.019 A 
HETATM   22  S   UNL     1      -5.714   1.623 -32.778  1.00  0.00    -0.128 SA
HETATM   23  C   UNL     1      -4.905  -2.253 -33.755  1.00  0.00     0.001 A 
HETATM   24  C   UNL     1      -5.871  -2.445 -34.752  1.00  0.00     0.001 A 
HETATM   25  C   UNL     1      -6.713   2.245 -34.180  1.00  0.00     0.098 C 
ENDBRANCH   2  17
TORSDOF 5
ENDMDL
MODEL 4
REMARK VINA RESULT:      -7.0      1.528      2.135
REMARK  5 active torsions:
REMARK  status: ('A' for Active; 'I' for Inactive)
REMARK    1  A    between atoms: C_2  and  N_3 
REMARK    2  A    between atoms: N_3  and  C_6 
REMARK    3  A    between atoms: C_6  and  C_7 
REMARK    4  A    between atoms: C_8  and  N_9 
REMARK       I    between atoms: N_9  and  C_10 
REMARK    5  A    between atoms: C_10  and  C_11 
ROOT
HETATM    1  N   UNL     1      -6.923  -0.521 -33.886  1.00  0.00    -0.326 N 
HETATM    2  C   UNL     1      -7.184   0.092 -32.665  1.00  0.00     0.231 C 
HETATM    3  O   UNL     1      -6.810  -0.322 -31.572  1.00  0.00    -0.272 OA
HETATM    4  H   UNL     1      -7.304  -0.040 -34.685  1.00  0.00     0.169 HD
ENDROOT
BRANCH   1   5
HETATM    5  C   UNL     1      -6.301  -1.772 -34.116  1.00  0.00     0.042 A 
HETATM    6  C   UNL     1      -4.904  -1.900 -33.923  1.00  0.00    -0.006 A 
HETATM    7  C   UNL     1      -4.282  -3.140 -34.179  1.00  0.00     0.011 A 
HETATM    8  C   UNL     1      -5.022  -4.235 -34.616  1.00  0.00     0.001 A 
HETATM    9  C   UNL     1      -6.393  -4.111 -34.793  1.00  0.00     0.002 A 
HETATM   10  C   UNL     1      -7.026  -2.891 -34.544  1.00  0.00     0.030 A 
BRANCH   6  11
HETATM   11  C   UNL     1      -4.050  -0.797 -33.360  1.00  0.00     0.273 C 
BRANCH  11  12
HETATM   12  N   UNL     1      -3.743  -1.035 -31.917  1.00  0.00    -0.072 N 
HETATM   13  H   UNL     1      -3.090  -1.830 -31.858  1.00  0.00     0.277 HD
HETATM   14  H   UNL     1      -4.598  -1.359 -31.441  1.00  0.00     0.277 HD
BRANCH  12  15
HETATM   15  C   UNL     1      -3.181   0.141 -31.197  1.00  0.00     0.228 C 
HETATM   16  C   UNL     1      -3.502   1.399 -31.978  1.00  0.00     0.034 C 
ENDBRANCH  12  15
ENDBRANCH  11  12
ENDBRANCH   6  11
ENDBRANCH   1   5
BRANCH   2  17
HETATM   17  C   UNL     1      -7.852   1.469 -32.762  1.00  0.00     0.122 C 
HETATM   18  C   UNL     1      -6.899   2.632 -32.936  1.00  0.00    -0.028 A 
HETATM   19  C   UNL     1      -6.637   3.349 -31.762  1.00  0.00     0.007 A 
HETATM   20  C   UNL     1      -6.257   2.973 -34.121  1.00  0.00     0.009 A 
HETATM   21  C   UNL     1      -5.748   4.411 -31.748  1.00  0.00     0.019 A 
HETATM   22  S   UNL     1      -7.502   2.682 -30.372  1.00  0.00    -0.128 SA
HETATM   23  C   UNL     1      -5.108   4.759 -32.939  1.00  0.00     0.001 A 
HETATM   24  C   UNL     1      -5.359   4.043 -34.117  1.00  0.00     0.001 A 
HETATM   25  C   UNL     1      -8.630   1.742 -31.464  1.00  0.00     0.098 C 
ENDBRANCH   2  17
TORSDOF 5
ENDMDL
MODEL 5
REMARK VINA RESULT:      -6.8      4.614      7.301
REMARK  5 active torsions:
REMARK  status: ('A' for Active; 'I' for Inactive)
REMARK    1  A    between atoms: C_2  and  N_3 
REMARK    2  A    between atoms: N_3  and  C_6 
REMARK    3  A    between atoms: C_6  and  C_7 
REMARK    4  A    between atoms: C_8  and  N_9 
REMARK       I    between atoms: N_9  and  C_10 
REMARK    5  A    between atoms: C_10  and  C_11 
ROOT
HETATM    1  N   UNL     1      -2.746   3.367 -31.959  1.00  0.00    -0.326 N 
HETATM    2  C   UNL     1      -4.089   3.102 -31.712  1.00  0.00     0.231 C 
HETATM    3  O   UNL     1      -5.029   3.775 -32.122  1.00  0.00    -0.272 OA
HETATM    4  H   UNL     1      -2.107   2.705 -31.547  1.00  0.00     0.169 HD
ENDROOT
BRANCH   1   5
HETATM    5  C   UNL     1      -2.186   4.497 -32.603  1.00  0.00     0.042 A 
HETATM    6  C   UNL     1      -1.286   5.328 -31.892  1.00  0.00    -0.006 A 
HETATM    7  C   UNL     1      -0.751   6.468 -32.526  1.00  0.00     0.011 A 
HETATM    8  C   UNL     1      -1.094   6.785 -33.837  1.00  0.00     0.001 A 
HETATM    9  C   UNL     1      -1.966   5.963 -34.536  1.00  0.00     0.002 A 
HETATM   10  C   UNL     1      -2.505   4.829 -33.925  1.00  0.00     0.030 A 
BRANCH   6  11
HETATM   11  C   UNL     1      -0.789   5.003 -30.509  1.00  0.00     0.273 C 
BRANCH  11  12
HETATM   12  N   UNL     1      -1.248   6.022 -29.518  1.00  0.00    -0.072 N 
HETATM   13  H   UNL     1      -2.086   5.652 -29.045  1.00  0.00     0.277 HD
HETATM   14  H   UNL     1      -1.578   6.858 -30.024  1.00  0.00     0.277 HD
BRANCH  12  15
HETATM   15  C   UNL     1      -0.225   6.416 -28.509  1.00  0.00     0.228 C 
HETATM   16  C   UNL     1       0.582   7.578 -29.051  1.00  0.00     0.034 C 
ENDBRANCH  12  15
ENDBRANCH  11  12
ENDBRANCH   6  11
ENDBRANCH   1   5
BRANCH   2  17
HETATM   17  C   UNL     1      -4.366   1.766 -31.011  1.00  0.00     0.122 C 
HETATM   18  C   UNL     1      -4.643   0.601 -31.938  1.00  0.00    -0.028 A 
HETATM   19  C   UNL     1      -5.999   0.284 -32.084  1.00  0.00     0.007 A 
HETATM   20  C   UNL     1      -3.682  -0.095 -32.662  1.00  0.00     0.009 A 
HETATM   21  C   UNL     1      -6.417  -0.725 -32.935  1.00  0.00     0.019 A 
HETATM   22  S   UNL     1      -7.035   1.356 -31.133  1.00  0.00    -0.128 SA
HETATM   23  C   UNL     1      -5.452  -1.430 -33.656  1.00  0.00     0.001 A 
HETATM   24  C   UNL     1      -4.093  -1.115 -33.522  1.00  0.00     0.001 A 
HETATM   25  C   UNL     1      -5.614   1.915 -30.125  1.00  0.00     0.098 C 
ENDBRANCH   2  17
TORSDOF 5
ENDMDL
MODEL 6
REMARK VINA RESULT:      -6.8      3.109      4.730
REMARK  5 active torsions:
REMARK  status: ('A' for Active; 'I' for Inactive)
REMARK    1  A    between atoms: C_2  and  N_3 
REMARK    2  A    between atoms: N_3  and  C_6 
REMARK    3  A    between atoms: C_6  and  C_7 
REMARK    4  A    between atoms: C_8  and  N_9 
REMARK       I    between atoms: N_9  and  C_10 
REMARK    5  A    between atoms: C_10  and  C_11 
ROOT
HETATM    1  N   UNL     1      -9.169   1.428 -34.533  1.00  0.00    -0.326 N 
HETATM    2  C   UNL     1     -10.415   1.262 -33.937  1.00  0.00     0.231 C 
HETATM    3  O   UNL     1     -10.660   0.489 -33.015  1.00  0.00    -0.272 OA
HETATM    4  H   UNL     1      -9.148   2.110 -35.274  1.00  0.00     0.169 HD
ENDROOT
BRANCH   1   5
HETATM    5  C   UNL     1      -7.988   0.681 -34.303  1.00  0.00     0.042 A 
HETATM    6  C   UNL     1      -7.105   1.078 -33.270  1.00  0.00    -0.006 A 
HETATM    7  C   UNL     1      -5.916   0.350 -33.060  1.00  0.00     0.011 A 
HETATM    8  C   UNL     1      -5.601  -0.750 -33.853  1.00  0.00     0.001 A 
HETATM    9  C   UNL     1      -6.473  -1.145 -34.857  1.00  0.00     0.002 A 
HETATM   10  C   UNL     1      -7.656  -0.436 -35.079  1.00  0.00     0.030 A 
BRANCH   6  11
HETATM   11  C   UNL     1      -7.417   2.192 -32.307  1.00  0.00     0.273 C 
BRANCH  11  12
HETATM   12  N   UNL     1      -8.270   1.708 -31.180  1.00  0.00    -0.072 N 
HETATM   13  H   UNL     1      -7.661   1.222 -30.506  1.00  0.00     0.277 HD
HETATM   14  H   UNL     1      -8.909   0.979 -31.532  1.00  0.00     0.277 HD
BRANCH  12  15
HETATM   15  C   UNL     1      -9.051   2.771 -30.488  1.00  0.00     0.228 C 
HETATM   16  C   UNL     1      -8.570   4.126 -30.963  1.00  0.00     0.034 C 
ENDBRANCH  12  15
ENDBRANCH  11  12
ENDBRANCH   6  11
ENDBRANCH   1   5
BRANCH   2  17
HETATM   17  C   UNL     1     -11.488   2.261 -34.390  1.00  0.00     0.122 C 
HETATM   18  C   UNL     1     -12.347   2.826 -33.280  1.00  0.00    -0.028 A 
HETATM   19  C   UNL     1     -13.607   2.227 -33.157  1.00  0.00     0.007 A 
HETATM   20  C   UNL     1     -11.953   3.813 -32.383  1.00  0.00     0.009 A 
HETATM   21  C   UNL     1     -14.489   2.601 -32.158  1.00  0.00     0.019 A 
HETATM   22  S   UNL     1     -13.849   0.946 -34.352  1.00  0.00    -0.128 SA
HETATM   23  C   UNL     1     -14.098   3.597 -31.262  1.00  0.00     0.001 A 
HETATM   24  C   UNL     1     -12.837   4.197 -31.373  1.00  0.00     0.001 A 
HETATM   25  C   UNL     1     -12.449   1.556 -35.361  1.00  0.00     0.098 C 
ENDBRANCH   2  17
TORSDOF 5
ENDMDL
MODEL 7
REMARK VINA RESULT:      -6.7      2.388      7.180
REMARK  5 active torsions:
REMARK  status: ('A' for Active; 'I' for Inactive)
REMARK    1  A    between atoms: C_2  and  N_3 
REMARK    2  A    between atoms: N_3  and  C_6 
REMARK    3  A    between atoms: C_6  and  C_7 
REMARK    4  A    between atoms: C_8  and  N_9 
REMARK       I    between atoms: N_9  and  C_10 
REMARK    5  A    between atoms: C_10  and  C_11 
ROOT
HETATM    1  N   UNL     1      -6.449   1.331 -32.727  1.00  0.00    -0.326 N 
HETATM    2  C   UNL     1      -5.946   0.051 -32.516  1.00  0.00     0.231 C 
HETATM    3  O   UNL     1      -6.391  -0.759 -31.709  1.00  0.00    -0.272 OA
HETATM    4  H   UNL     1      -5.962   1.860 -33.433  1.00  0.00     0.169 HD
ENDROOT
BRANCH   1   5
HETATM    5  C   UNL     1      -7.463   1.999 -31.998  1.00  0.00     0.042 A 
HETATM    6  C   UNL     1      -8.791   1.992 -32.490  1.00  0.00    -0.006 A 
HETATM    7  C   UNL     1      -9.795   2.680 -31.777  1.00  0.00     0.011 A 
HETATM    8  C   UNL     1      -9.497   3.363 -30.601  1.00  0.00     0.001 A 
HETATM    9  C   UNL     1      -8.198   3.358 -30.115  1.00  0.00     0.002 A 
HETATM   10  C   UNL     1      -7.191   2.681 -30.807  1.00  0.00     0.030 A 
BRANCH   6  11
HETATM   11  C   UNL     1      -9.215   1.199 -33.697  1.00  0.00     0.273 C 
BRANCH  11  12
HETATM   12  N   UNL     1     -10.045   2.028 -34.622  1.00  0.00    -0.072 N 
HETATM   13  H   UNL     1      -9.584   2.037 -35.542  1.00  0.00     0.277 HD
HETATM   14  H   UNL     1     -10.023   3.008 -34.304  1.00  0.00     0.277 HD
BRANCH  12  15
HETATM   15  C   UNL     1     -11.458   1.577 -34.764  1.00  0.00     0.228 C 
HETATM   16  C   UNL     1     -12.329   2.773 -35.089  1.00  0.00     0.034 C 
ENDBRANCH  12  15
ENDBRANCH  11  12
ENDBRANCH   6  11
ENDBRANCH   1   5
BRANCH   2  17
HETATM   17  C   UNL     1      -4.860  -0.389 -33.506  1.00  0.00     0.122 C 
HETATM   18  C   UNL     1      -4.922  -1.844 -33.920  1.00  0.00    -0.028 A 
HETATM   19  C   UNL     1      -4.011  -2.676 -33.256  1.00  0.00     0.007 A 
HETATM   20  C   UNL     1      -5.825  -2.381 -34.829  1.00  0.00     0.009 A 
HETATM   21  C   UNL     1      -3.979  -4.040 -33.490  1.00  0.00     0.019 A 
HETATM   22  S   UNL     1      -3.027  -1.783 -32.091  1.00  0.00    -0.128 SA
HETATM   23  C   UNL     1      -4.880  -4.580 -34.409  1.00  0.00     0.001 A 
HETATM   24  C   UNL     1      -5.799  -3.756 -35.072  1.00  0.00     0.001 A 
HETATM   25  C   UNL     1      -3.480  -0.185 -32.859  1.00  0.00     0.098 C 
ENDBRANCH   2  17
TORSDOF 5
ENDMDL
MODEL 8
REMARK VINA RESULT:      -6.7     14.393     15.691
REMARK  5 active torsions:
REMARK  status: ('A' for Active; 'I' for Inactive)
REMARK    1  A    between atoms: C_2  and  N_3 
REMARK    2  A    between atoms: N_3  and  C_6 
REMARK    3  A    between atoms: C_6  and  C_7 
REMARK    4  A    between atoms: C_8  and  N_9 
REMARK       I    between atoms: N_9  and  C_10 
REMARK    5  A    between atoms: C_10  and  C_11 
ROOT
HETATM    1  N   UNL     1      -5.885 -12.940 -37.599  1.00  0.00    -0.326 N 
HETATM    2  C   UNL     1      -5.266 -14.053 -37.039  1.00  0.00     0.231 C 
HETATM    3  O   UNL     1      -5.582 -15.220 -37.253  1.00  0.00    -0.272 OA
HETATM    4  H   UNL     1      -5.491 -12.057 -37.314  1.00  0.00     0.169 HD
ENDROOT
BRANCH   1   5
HETATM    5  C   UNL     1      -7.047 -12.904 -38.406  1.00  0.00     0.042 A 
HETATM    6  C   UNL     1      -6.953 -12.434 -39.738  1.00  0.00    -0.006 A 
HETATM    7  C   UNL     1      -8.117 -12.373 -40.533  1.00  0.00     0.011 A 
HETATM    8  C   UNL     1      -9.351 -12.769 -40.026  1.00  0.00     0.001 A 
HETATM    9  C   UNL     1      -9.439 -13.241 -38.724  1.00  0.00     0.002 A 
HETATM   10  C   UNL     1      -8.297 -13.309 -37.923  1.00  0.00     0.030 A 
BRANCH   6  11
HETATM   11  C   UNL     1      -5.645 -12.080 -40.393  1.00  0.00     0.273 C 
BRANCH  11  12
HETATM   12  N   UNL     1      -5.156 -13.196 -41.257  1.00  0.00    -0.072 N 
HETATM   13  H   UNL     1      -4.746 -12.784 -42.108  1.00  0.00     0.277 HD
HETATM   14  H   UNL     1      -5.964 -13.742 -41.590  1.00  0.00     0.277 HD
BRANCH  12  15
HETATM   15  C   UNL     1      -4.171 -14.103 -40.605  1.00  0.00     0.228 C 
HETATM   16  C   UNL     1      -2.960 -14.248 -41.505  1.00  0.00     0.034 C 
ENDBRANCH  12  15
ENDBRANCH  11  12
ENDBRANCH   6  11
ENDBRANCH   1   5
BRANCH   2  17
HETATM   17  C   UNL     1      -3.998 -13.751 -36.231  1.00  0.00     0.122 C 
HETATM   18  C   UNL     1      -2.727 -13.654 -37.047  1.00  0.00    -0.028 A 
HETATM   19  C   UNL     1      -1.924 -14.801 -37.013  1.00  0.00     0.007 A 
HETATM   20  C   UNL     1      -2.360 -12.568 -37.835  1.00  0.00     0.009 A 
HETATM   21  C   UNL     1      -0.754 -14.884 -37.747  1.00  0.00     0.019 A 
HETATM   22  S   UNL     1      -2.634 -16.075 -36.013  1.00  0.00    -0.128 SA
HETATM   23  C   UNL     1      -0.380 -13.793 -38.532  1.00  0.00     0.001 A 
HETATM   24  C   UNL     1      -1.180 -12.643 -38.578  1.00  0.00     0.001 A 
HETATM   25  C   UNL     1      -3.770 -14.882 -35.215  1.00  0.00     0.098 C 
ENDBRANCH   2  17
TORSDOF 5
ENDMDL
MODEL 9
REMARK VINA RESULT:      -6.6      2.543      6.643
REMARK  5 active torsions:
REMARK  status: ('A' for Active; 'I' for Inactive)
REMARK    1  A    between atoms: C_2  and  N_3 
REMARK    2  A    between atoms: N_3  and  C_6 
REMARK    3  A    between atoms: C_6  and  C_7 
REMARK    4  A    between atoms: C_8  and  N_9 
REMARK       I    between atoms: N_9  and  C_10 
REMARK    5  A    between atoms: C_10  and  C_11 
ROOT
HETATM    1  N   UNL     1      -6.208   1.349 -32.626  1.00  0.00    -0.326 N 
HETATM    2  C   UNL     1      -5.872   0.003 -32.536  1.00  0.00     0.231 C 
HETATM    3  O   UNL     1      -6.468  -0.831 -31.862  1.00  0.00    -0.272 OA
HETATM    4  H   UNL     1      -5.610   1.890 -33.231  1.00  0.00     0.169 HD
ENDROOT
BRANCH   1   5
HETATM    5  C   UNL     1      -7.195   2.051 -31.892  1.00  0.00     0.042 A 
HETATM    6  C   UNL     1      -6.857   2.619 -30.640  1.00  0.00    -0.006 A 
HETATM    7  C   UNL     1      -7.848   3.294 -29.897  1.00  0.00     0.011 A 
HETATM    8  C   UNL     1      -9.149   3.408 -30.378  1.00  0.00     0.001 A 
HETATM    9  C   UNL     1      -9.476   2.861 -31.611  1.00  0.00     0.002 A 
HETATM   10  C   UNL     1      -8.507   2.190 -32.360  1.00  0.00     0.030 A 
BRANCH   6  11
HETATM   11  C   UNL     1      -5.454   2.626 -30.095  1.00  0.00     0.273 C 
BRANCH  11  12
HETATM   12  N   UNL     1      -4.900   4.013 -30.048  1.00  0.00    -0.072 N 
HETATM   13  H   UNL     1      -4.251   4.070 -29.251  1.00  0.00     0.277 HD
HETATM   14  H   UNL     1      -5.660   4.670 -29.819  1.00  0.00     0.277 HD
BRANCH  12  15
HETATM   15  C   UNL     1      -4.215   4.451 -31.296  1.00  0.00     0.228 C 
HETATM   16  C   UNL     1      -4.660   5.859 -31.636  1.00  0.00     0.034 C 
ENDBRANCH  12  15
ENDBRANCH  11  12
ENDBRANCH   6  11
ENDBRANCH   1   5
BRANCH   2  17
HETATM   17  C   UNL     1      -4.767  -0.454 -33.497  1.00  0.00     0.122 C 
HETATM   18  C   UNL     1      -4.835  -1.910 -33.906  1.00  0.00    -0.028 A 
HETATM   19  C   UNL     1      -3.951  -2.749 -33.217  1.00  0.00     0.007 A 
HETATM   20  C   UNL     1      -5.722  -2.442 -34.835  1.00  0.00     0.009 A 
HETATM   21  C   UNL     1      -3.928  -4.115 -33.444  1.00  0.00     0.019 A 
HETATM   22  S   UNL     1      -2.985  -1.862 -32.032  1.00  0.00    -0.128 SA
HETATM   23  C   UNL     1      -4.813  -4.649 -34.382  1.00  0.00     0.001 A 
HETATM   24  C   UNL     1      -5.706  -3.818 -35.071  1.00  0.00     0.001 A 
HETATM   25  C   UNL     1      -3.401  -0.263 -32.818  1.00  0.00     0.098 C 
ENDBRANCH   2  17
TORSDOF 5
ENDMDL
MODEL 10
REMARK VINA RESULT:      -6.6      3.487      7.145
REMARK  5 active torsions:
REMARK  status: ('A' for Active; 'I' for Inactive)
REMARK    1  A    between atoms: C_2  and  N_3 
REMARK    2  A    between atoms: N_3  and  C_6 
REMARK    3  A    between atoms: C_6  and  C_7 
REMARK    4  A    between atoms: C_8  and  N_9 
REMARK       I    between atoms: N_9  and  C_10 
REMARK    5  A    between atoms: C_10  and  C_11 
ROOT
HETATM    1  N   UNL     1     -10.146   1.526 -34.481  1.00  0.00    -0.326 N 
HETATM    2  C   UNL     1      -9.058   0.911 -33.870  1.00  0.00     0.231 C 
HETATM    3  O   UNL     1      -9.115   0.200 -32.872  1.00  0.00    -0.272 OA
HETATM    4  H   UNL     1      -9.915   2.071 -35.296  1.00  0.00     0.169 HD
ENDROOT
BRANCH   1   5
HETATM    5  C   UNL     1     -11.488   1.568 -34.029  1.00  0.00     0.042 A 
HETATM    6  C   UNL     1     -12.010   2.779 -33.515  1.00  0.00    -0.006 A 
HETATM    7  C   UNL     1     -13.338   2.812 -33.040  1.00  0.00     0.011 A 
HETATM    8  C   UNL     1     -14.138   1.673 -33.072  1.00  0.00     0.001 A 
HETATM    9  C   UNL     1     -13.628   0.491 -33.588  1.00  0.00     0.002 A 
HETATM   10  C   UNL     1     -12.315   0.439 -34.063  1.00  0.00     0.030 A 
BRANCH   6  11
HETATM   11  C   UNL     1     -11.246   4.076 -33.535  1.00  0.00     0.273 C 
BRANCH  11  12
HETATM   12  N   UNL     1     -11.462   4.808 -34.819  1.00  0.00    -0.072 N 
HETATM   13  H   UNL     1     -12.318   5.374 -34.723  1.00  0.00     0.277 HD
HETATM   14  H   UNL     1     -11.677   4.127 -35.562  1.00  0.00     0.277 HD
BRANCH  12  15
HETATM   15  C   UNL     1     -10.325   5.672 -35.242  1.00  0.00     0.228 C 
HETATM   16  C   UNL     1      -9.138   5.404 -34.340  1.00  0.00     0.034 C 
ENDBRANCH  12  15
ENDBRANCH  11  12
ENDBRANCH   6  11
ENDBRANCH   1   5
BRANCH   2  17
HETATM   17  C   UNL     1      -7.734   1.029 -34.637  1.00  0.00     0.122 C 
HETATM   18  C   UNL     1      -6.776  -0.127 -34.442  1.00  0.00    -0.028 A 
HETATM   19  C   UNL     1      -5.743   0.121 -33.531  1.00  0.00     0.007 A 
HETATM   20  C   UNL     1      -6.894  -1.376 -35.041  1.00  0.00     0.009 A 
HETATM   21  C   UNL     1      -4.815  -0.855 -33.209  1.00  0.00     0.019 A 
HETATM   22  S   UNL     1      -5.847   1.745 -32.839  1.00  0.00    -0.128 SA
HETATM   23  C   UNL     1      -4.927  -2.106 -33.816  1.00  0.00     0.001 A 
HETATM   24  C   UNL     1      -5.962  -2.366 -34.724  1.00  0.00     0.001 A 
HETATM   25  C   UNL     1      -6.990   2.288 -34.161  1.00  0.00     0.098 C 
ENDBRANCH   2  17
TORSDOF 5
ENDMDL
