MODEL 1
REMARK VINA RESULT:      -9.2      0.000      0.000
REMARK  6 active torsions:
REMARK  status: ('A' for Active; 'I' for Inactive)
REMARK    1  A    between atoms: N_2  and  C_3 
REMARK    2  A    between atoms: C_6  and  C_7 
REMARK       I    between atoms: C_7  and  N_8 
REMARK    3  A    between atoms: N_8  and  C_9 
REMARK    4  A    between atoms: C_9  and  C_10 
REMARK    5  A    between atoms: C_10  and  C_11 
REMARK    6  A    between atoms: C_22  and  O_23 
ROOT
HETATM    1  C   UNL     1      -3.559   3.037 -32.217  1.00  0.00     0.158 A 
HETATM    2  N   UNL     1      -2.750   2.809 -31.175  1.00  0.00    -0.111 NA
HETATM    3  O   UNL     1      -2.666   1.417 -31.136  1.00  0.00    -0.189 OA
HETATM    4  C   UNL     1      -3.425   0.942 -32.172  1.00  0.00     0.223 A 
HETATM    5  C   UNL     1      -3.580  -0.441 -32.474  1.00  0.00     0.089 A 
HETATM    6  N   UNL     1      -4.392  -0.877 -33.490  1.00  0.00    -0.352 N 
HETATM    7  H   UNL     1      -4.936  -0.268 -34.086  1.00  0.00     0.166 HD
HETATM    8  C   UNL     1      -4.351  -2.250 -33.581  1.00  0.00     0.045 A 
HETATM    9  C   UNL     1      -3.488  -2.701 -32.584  1.00  0.00    -0.007 A 
HETATM   10  C   UNL     1      -3.012  -1.554 -31.889  1.00  0.00     0.048 A 
HETATM   11  C   UNL     1      -5.005  -3.121 -34.460  1.00  0.00     0.067 A 
HETATM   12  C   UNL     1      -4.769  -4.496 -34.331  1.00  0.00     0.070 A 
HETATM   13  C   UNL     1      -3.910  -4.970 -33.339  1.00  0.00     0.038 A 
HETATM   14  C   UNL     1      -3.266  -4.085 -32.461  1.00  0.00     0.016 A 
HETATM   15  N   UNL     1      -3.989   1.908 -32.870  1.00  0.00    -0.203 NA
ENDROOT
BRANCH   1  16
HETATM   16  C   UNL     1      -3.894   4.414 -32.659  1.00  0.00     0.103 C 
BRANCH  16  17
HETATM   17  C   UNL     1      -2.662   5.244 -33.027  1.00  0.00     0.133 C 
BRANCH  17  18
HETATM   18  N   UNL     1      -2.255   6.152 -31.949  1.00  0.00    -0.352 N 
HETATM   19  C   UNL     1      -1.114   5.822 -31.218  1.00  0.00     0.253 C 
HETATM   20  O   UNL     1      -0.385   4.876 -31.513  1.00  0.00    -0.267 OA
HETATM   21  C   UNL     1      -2.965   7.422 -31.855  1.00  0.00     0.152 C 
BRANCH  19  22
HETATM   22  C   UNL     1      -0.746   6.628 -30.033  1.00  0.00     0.032 A 
HETATM   23  C   UNL     1      -1.629   6.797 -28.968  1.00  0.00     0.019 A 
HETATM   24  C   UNL     1      -1.240   7.550 -27.851  1.00  0.00     0.030 A 
HETATM   25  C   UNL     1       0.041   8.123 -27.745  1.00  0.00     0.029 A 
HETATM   26  C   UNL     1       0.909   7.918 -28.835  1.00  0.00     0.030 A 
HETATM   27  C   UNL     1       0.533   7.174 -29.959  1.00  0.00     0.019 A 
BRANCH  25  28
HETATM   28  N   UNL     1       0.438   8.890 -26.641  1.00  0.00    -0.390 N 
HETATM   29  C   UNL     1      -0.534   9.189 -25.592  1.00  0.00     0.149 C 
HETATM   30  C   UNL     1       1.812   8.691 -26.170  1.00  0.00     0.149 C 
ENDBRANCH  25  28
ENDBRANCH  19  22
ENDBRANCH  17  18
ENDBRANCH  16  17
ENDBRANCH   1  16
BRANCH  12  31
HETATM   31  O   UNL     1      -5.446  -5.268 -35.238  1.00  0.00    -0.356 OA
HETATM   32  C   UNL     1      -6.654  -4.734 -35.763  1.00  0.00     0.210 C 
ENDBRANCH  12  31
TORSDOF 6
ENDMDL
MODEL 2
REMARK VINA RESULT:      -9.1      4.293      7.977
REMARK  6 active torsions:
REMARK  status: ('A' for Active; 'I' for Inactive)
REMARK    1  A    between atoms: N_2  and  C_3 
REMARK    2  A    between atoms: C_6  and  C_7 
REMARK       I    between atoms: C_7  and  N_8 
REMARK    3  A    between atoms: N_8  and  C_9 
REMARK    4  A    between atoms: C_9  and  C_10 
REMARK    5  A    between atoms: C_10  and  C_11 
REMARK    6  A    between atoms: C_22  and  O_23 
ROOT
HETATM    1  C   UNL     1      -3.956   3.183 -32.112  1.00  0.00     0.158 A 
HETATM    2  N   UNL     1      -2.988   3.019 -31.204  1.00  0.00    -0.111 NA
HETATM    3  O   UNL     1      -2.777   1.640 -31.208  1.00  0.00    -0.189 OA
HETATM    4  C   UNL     1      -3.635   1.108 -32.133  1.00  0.00     0.223 A 
HETATM    5  C   UNL     1      -3.711  -0.280 -32.440  1.00  0.00     0.089 A 
HETATM    6  N   UNL     1      -4.621  -0.779 -33.337  1.00  0.00    -0.352 N 
HETATM    7  H   UNL     1      -5.297  -0.216 -33.835  1.00  0.00     0.166 HD
HETATM    8  C   UNL     1      -4.474  -2.141 -33.462  1.00  0.00     0.045 A 
HETATM    9  C   UNL     1      -3.439  -2.522 -32.611  1.00  0.00    -0.007 A 
HETATM   10  C   UNL     1      -2.969  -1.344 -31.968  1.00  0.00     0.048 A 
HETATM   11  C   UNL     1      -5.171  -3.060 -34.257  1.00  0.00     0.067 A 
HETATM   12  C   UNL     1      -4.799  -4.409 -34.193  1.00  0.00     0.070 A 
HETATM   13  C   UNL     1      -3.766  -4.813 -33.346  1.00  0.00     0.038 A 
HETATM   14  C   UNL     1      -3.080  -3.882 -32.552  1.00  0.00     0.016 A 
HETATM   15  N   UNL     1      -4.377   2.026 -32.721  1.00  0.00    -0.203 NA
ENDROOT
BRANCH   1  16
HETATM   16  C   UNL     1      -4.471   4.528 -32.472  1.00  0.00     0.103 C 
BRANCH  16  17
HETATM   17  C   UNL     1      -5.779   4.881 -31.761  1.00  0.00     0.133 C 
BRANCH  17  18
HETATM   18  N   UNL     1      -6.955   4.329 -32.442  1.00  0.00    -0.352 N 
HETATM   19  C   UNL     1      -7.916   3.687 -31.660  1.00  0.00     0.253 C 
HETATM   20  O   UNL     1      -7.869   3.668 -30.431  1.00  0.00    -0.267 OA
HETATM   21  C   UNL     1      -7.117   4.664 -33.852  1.00  0.00     0.152 C 
BRANCH  19  22
HETATM   22  C   UNL     1      -9.045   2.991 -32.316  1.00  0.00     0.032 A 
HETATM   23  C   UNL     1      -8.908   1.698 -32.818  1.00  0.00     0.019 A 
HETATM   24  C   UNL     1     -10.005   1.060 -33.414  1.00  0.00     0.030 A 
HETATM   25  C   UNL     1     -11.270   1.670 -33.497  1.00  0.00     0.029 A 
HETATM   26  C   UNL     1     -11.372   2.972 -32.967  1.00  0.00     0.030 A 
HETATM   27  C   UNL     1     -10.285   3.623 -32.373  1.00  0.00     0.019 A 
BRANCH  25  28
HETATM   28  N   UNL     1     -12.372   1.051 -34.103  1.00  0.00    -0.390 N 
HETATM   29  C   UNL     1     -12.894  -0.191 -33.535  1.00  0.00     0.149 C 
HETATM   30  C   UNL     1     -13.384   1.940 -34.681  1.00  0.00     0.149 C 
ENDBRANCH  25  28
ENDBRANCH  19  22
ENDBRANCH  17  18
ENDBRANCH  16  17
ENDBRANCH   1  16
BRANCH  12  31
HETATM   31  O   UNL     1      -5.530  -5.231 -35.009  1.00  0.00    -0.356 OA
HETATM   32  C   UNL     1      -6.632  -4.646 -35.690  1.00  0.00     0.210 C 
ENDBRANCH  12  31
TORSDOF 6
ENDMDL
MODEL 3
REMARK VINA RESULT:      -9.1      1.657      2.540
REMARK  6 active torsions:
REMARK  status: ('A' for Active; 'I' for Inactive)
REMARK    1  A    between atoms: N_2  and  C_3 
REMARK    2  A    between atoms: C_6  and  C_7 
REMARK       I    between atoms: C_7  and  N_8 
REMARK    3  A    between atoms: N_8  and  C_9 
REMARK    4  A    between atoms: C_9  and  C_10 
REMARK    5  A    between atoms: C_10  and  C_11 
REMARK    6  A    between atoms: C_22  and  O_23 
ROOT
HETATM    1  C   UNL     1      -3.090   3.653 -31.793  1.00  0.00     0.158 A 
HETATM    2  N   UNL     1      -4.243   4.309 -31.968  1.00  0.00    -0.111 NA
HETATM    3  O   UNL     1      -5.086   3.335 -32.502  1.00  0.00    -0.189 OA
HETATM    4  C   UNL     1      -4.358   2.178 -32.584  1.00  0.00     0.223 A 
HETATM    5  C   UNL     1      -4.879   0.945 -33.071  1.00  0.00     0.089 A 
HETATM    6  N   UNL     1      -4.100  -0.179 -33.186  1.00  0.00    -0.352 N 
HETATM    7  H   UNL     1      -3.119  -0.219 -32.946  1.00  0.00     0.166 HD
HETATM    8  C   UNL     1      -4.846  -1.232 -33.663  1.00  0.00     0.045 A 
HETATM    9  C   UNL     1      -6.141  -0.760 -33.864  1.00  0.00    -0.007 A 
HETATM   10  C   UNL     1      -6.150   0.614 -33.494  1.00  0.00     0.048 A 
HETATM   11  C   UNL     1      -4.479  -2.557 -33.930  1.00  0.00     0.067 A 
HETATM   12  C   UNL     1      -5.460  -3.434 -34.410  1.00  0.00     0.070 A 
HETATM   13  C   UNL     1      -6.763  -2.982 -34.620  1.00  0.00     0.038 A 
HETATM   14  C   UNL     1      -7.115  -1.650 -34.352  1.00  0.00     0.016 A 
HETATM   15  N   UNL     1      -3.122   2.326 -32.151  1.00  0.00    -0.203 NA
ENDROOT
BRANCH   1  16
HETATM   16  C   UNL     1      -1.901   4.307 -31.191  1.00  0.00     0.103 C 
BRANCH  16  17
HETATM   17  C   UNL     1      -1.859   5.817 -31.432  1.00  0.00     0.133 C 
BRANCH  17  18
HETATM   18  N   UNL     1      -1.395   6.561 -30.256  1.00  0.00    -0.352 N 
HETATM   19  C   UNL     1      -0.054   6.432 -29.894  1.00  0.00     0.253 C 
HETATM   20  O   UNL     1       0.763   5.819 -30.579  1.00  0.00    -0.267 OA
HETATM   21  C   UNL     1      -2.325   7.523 -29.677  1.00  0.00     0.152 C 
BRANCH  19  22
HETATM   22  C   UNL     1       0.426   7.047 -28.636  1.00  0.00     0.032 A 
HETATM   23  C   UNL     1       1.130   8.249 -28.638  1.00  0.00     0.019 A 
HETATM   24  C   UNL     1       1.550   8.814 -27.426  1.00  0.00     0.030 A 
HETATM   25  C   UNL     1       1.255   8.223 -26.183  1.00  0.00     0.029 A 
HETATM   26  C   UNL     1       0.530   7.015 -26.222  1.00  0.00     0.030 A 
HETATM   27  C   UNL     1       0.108   6.436 -27.425  1.00  0.00     0.019 A 
BRANCH  25  28
HETATM   28  N   UNL     1       1.681   8.768 -24.965  1.00  0.00    -0.390 N 
HETATM   29  C   UNL     1       3.109   8.981 -24.738  1.00  0.00     0.149 C 
HETATM   30  C   UNL     1       0.803   9.773 -24.358  1.00  0.00     0.149 C 
ENDBRANCH  25  28
ENDBRANCH  19  22
ENDBRANCH  17  18
ENDBRANCH  16  17
ENDBRANCH   1  16
BRANCH  12  31
HETATM   31  O   UNL     1      -5.010  -4.708 -34.635  1.00  0.00    -0.356 OA
HETATM   32  C   UNL     1      -3.952  -5.173 -33.807  1.00  0.00     0.210 C 
ENDBRANCH  12  31
TORSDOF 6
ENDMDL
MODEL 4
REMARK VINA RESULT:      -9.0      2.231     11.561
REMARK  6 active torsions:
REMARK  status: ('A' for Active; 'I' for Inactive)
REMARK    1  A    between atoms: N_2  and  C_3 
REMARK    2  A    between atoms: C_6  and  C_7 
REMARK       I    between atoms: C_7  and  N_8 
REMARK    3  A    between atoms: N_8  and  C_9 
REMARK    4  A    between atoms: C_9  and  C_10 
REMARK    5  A    between atoms: C_10  and  C_11 
REMARK    6  A    between atoms: C_22  and  O_23 
ROOT
HETATM    1  C   UNL     1      -3.220   4.854 -32.172  1.00  0.00     0.158 A 
HETATM    2  N   UNL     1      -2.221   3.966 -32.239  1.00  0.00    -0.111 NA
HETATM    3  O   UNL     1      -1.251   4.512 -31.398  1.00  0.00    -0.189 OA
HETATM    4  C   UNL     1      -1.769   5.676 -30.895  1.00  0.00     0.223 A 
HETATM    5  C   UNL     1      -1.079   6.522 -29.980  1.00  0.00     0.089 A 
HETATM    6  N   UNL     1      -1.614   7.706 -29.540  1.00  0.00    -0.352 N 
HETATM    7  H   UNL     1      -2.513   8.067 -29.826  1.00  0.00     0.166 HD
HETATM    8  C   UNL     1      -0.756   8.320 -28.656  1.00  0.00     0.045 A 
HETATM    9  C   UNL     1       0.364   7.500 -28.534  1.00  0.00    -0.007 A 
HETATM   10  C   UNL     1       0.153   6.373 -29.377  1.00  0.00     0.048 A 
HETATM   11  C   UNL     1      -0.883   9.527 -27.957  1.00  0.00     0.067 A 
HETATM   12  C   UNL     1       0.157   9.912 -27.101  1.00  0.00     0.070 A 
HETATM   13  C   UNL     1       1.288   9.107 -26.966  1.00  0.00     0.038 A 
HETATM   14  C   UNL     1       1.404   7.902 -27.676  1.00  0.00     0.016 A 
HETATM   15  N   UNL     1      -2.985   5.922 -31.340  1.00  0.00    -0.203 NA
ENDROOT
BRANCH   1  16
HETATM   16  C   UNL     1      -4.501   4.646 -32.892  1.00  0.00     0.103 C 
BRANCH  16  17
HETATM   17  C   UNL     1      -5.454   3.698 -32.161  1.00  0.00     0.133 C 
BRANCH  17  18
HETATM   18  N   UNL     1      -5.613   2.416 -32.856  1.00  0.00    -0.352 N 
HETATM   19  C   UNL     1      -5.306   1.253 -32.149  1.00  0.00     0.253 C 
HETATM   20  O   UNL     1      -5.021   1.257 -30.953  1.00  0.00    -0.267 OA
HETATM   21  C   UNL     1      -6.260   2.451 -34.162  1.00  0.00     0.152 C 
BRANCH  19  22
HETATM   22  C   UNL     1      -5.312  -0.051 -32.850  1.00  0.00     0.032 A 
HETATM   23  C   UNL     1      -4.127  -0.709 -33.171  1.00  0.00     0.019 A 
HETATM   24  C   UNL     1      -4.171  -1.953 -33.816  1.00  0.00     0.030 A 
HETATM   25  C   UNL     1      -5.386  -2.591 -34.128  1.00  0.00     0.029 A 
HETATM   26  C   UNL     1      -6.563  -1.900 -33.776  1.00  0.00     0.030 A 
HETATM   27  C   UNL     1      -6.534  -0.655 -33.137  1.00  0.00     0.019 A 
BRANCH  25  28
HETATM   28  N   UNL     1      -5.446  -3.827 -34.785  1.00  0.00    -0.390 N 
HETATM   29  C   UNL     1      -4.574  -4.913 -34.343  1.00  0.00     0.149 C 
HETATM   30  C   UNL     1      -6.766  -4.250 -35.261  1.00  0.00     0.149 C 
ENDBRANCH  25  28
ENDBRANCH  19  22
ENDBRANCH  17  18
ENDBRANCH  16  17
ENDBRANCH   1  16
BRANCH  12  31
HETATM   31  O   UNL     1      -0.059  11.101 -26.457  1.00  0.00    -0.356 OA
HETATM   32  C   UNL     1       0.828  11.428 -25.395  1.00  0.00     0.210 C 
ENDBRANCH  12  31
TORSDOF 6
ENDMDL
MODEL 5
REMARK VINA RESULT:      -8.9      2.467      3.086
REMARK  6 active torsions:
REMARK  status: ('A' for Active; 'I' for Inactive)
REMARK    1  A    between atoms: N_2  and  C_3 
REMARK    2  A    between atoms: C_6  and  C_7 
REMARK       I    between atoms: C_7  and  N_8 
REMARK    3  A    between atoms: N_8  and  C_9 
REMARK    4  A    between atoms: C_9  and  C_10 
REMARK    5  A    between atoms: C_10  and  C_11 
REMARK    6  A    between atoms: C_22  and  O_23 
ROOT
HETATM    1  C   UNL     1      -6.158   4.962 -33.301  1.00  0.00     0.158 A 
HETATM    2  N   UNL     1      -7.357   4.995 -33.894  1.00  0.00    -0.111 NA
HETATM    3  O   UNL     1      -7.571   3.665 -34.255  1.00  0.00    -0.189 OA
HETATM    4  C   UNL     1      -6.479   2.956 -33.829  1.00  0.00     0.223 A 
HETATM    5  C   UNL     1      -6.329   1.550 -34.002  1.00  0.00     0.089 A 
HETATM    6  N   UNL     1      -5.196   0.885 -33.608  1.00  0.00    -0.352 N 
HETATM    7  H   UNL     1      -4.395   1.329 -33.179  1.00  0.00     0.166 HD
HETATM    8  C   UNL     1      -5.312  -0.460 -33.872  1.00  0.00     0.045 A 
HETATM    9  C   UNL     1      -6.559  -0.656 -34.461  1.00  0.00    -0.007 A 
HETATM   10  C   UNL     1      -7.190   0.617 -34.544  1.00  0.00     0.048 A 
HETATM   11  C   UNL     1      -4.418  -1.512 -33.638  1.00  0.00     0.067 A 
HETATM   12  C   UNL     1      -4.805  -2.807 -34.005  1.00  0.00     0.070 A 
HETATM   13  C   UNL     1      -6.049  -3.026 -34.597  1.00  0.00     0.038 A 
HETATM   14  C   UNL     1      -6.933  -1.961 -34.831  1.00  0.00     0.016 A 
HETATM   15  N   UNL     1      -5.585   3.715 -33.228  1.00  0.00    -0.203 NA
ENDROOT
BRANCH   1  16
HETATM   16  C   UNL     1      -5.544   6.178 -32.709  1.00  0.00     0.103 C 
BRANCH  16  17
HETATM   17  C   UNL     1      -4.031   6.251 -32.919  1.00  0.00     0.133 C 
BRANCH  17  18
HETATM   18  N   UNL     1      -3.308   6.575 -31.685  1.00  0.00    -0.352 N 
HETATM   19  C   UNL     1      -2.308   7.545 -31.754  1.00  0.00     0.253 C 
HETATM   20  O   UNL     1      -2.092   8.207 -32.768  1.00  0.00    -0.267 OA
HETATM   21  C   UNL     1      -3.822   5.996 -30.449  1.00  0.00     0.152 C 
BRANCH  19  22
HETATM   22  C   UNL     1      -1.456   7.802 -30.571  1.00  0.00     0.032 A 
HETATM   23  C   UNL     1      -0.261   7.113 -30.374  1.00  0.00     0.019 A 
HETATM   24  C   UNL     1       0.532   7.398 -29.253  1.00  0.00     0.030 A 
HETATM   25  C   UNL     1       0.180   8.393 -28.321  1.00  0.00     0.029 A 
HETATM   26  C   UNL     1      -1.028   9.077 -28.563  1.00  0.00     0.030 A 
HETATM   27  C   UNL     1      -1.833   8.800 -29.675  1.00  0.00     0.019 A 
BRANCH  25  28
HETATM   28  N   UNL     1       0.955   8.678 -27.189  1.00  0.00    -0.390 N 
HETATM   29  C   UNL     1       0.626   9.845 -26.373  1.00  0.00     0.149 C 
HETATM   30  C   UNL     1       1.465   7.525 -26.440  1.00  0.00     0.149 C 
ENDBRANCH  25  28
ENDBRANCH  19  22
ENDBRANCH  17  18
ENDBRANCH  16  17
ENDBRANCH   1  16
BRANCH  12  31
HETATM   31  O   UNL     1      -3.870  -3.770 -33.732  1.00  0.00    -0.356 OA
HETATM   32  C   UNL     1      -4.262  -5.122 -33.928  1.00  0.00     0.210 C 
ENDBRANCH  12  31
TORSDOF 6
ENDMDL
MODEL 6
REMARK VINA RESULT:      -8.8      2.695     10.687
REMARK  6 active torsions:
REMARK  status: ('A' for Active; 'I' for Inactive)
REMARK    1  A    between atoms: N_2  and  C_3 
REMARK    2  A    between atoms: C_6  and  C_7 
REMARK       I    between atoms: C_7  and  N_8 
REMARK    3  A    between atoms: N_8  and  C_9 
REMARK    4  A    between atoms: C_9  and  C_10 
REMARK    5  A    between atoms: C_10  and  C_11 
REMARK    6  A    between atoms: C_22  and  O_23 
ROOT
HETATM    1  C   UNL     1      -5.997   4.985 -33.534  1.00  0.00     0.158 A 
HETATM    2  N   UNL     1      -5.233   4.787 -34.615  1.00  0.00    -0.111 NA
HETATM    3  O   UNL     1      -3.958   5.142 -34.174  1.00  0.00    -0.189 OA
HETATM    4  C   UNL     1      -4.078   5.509 -32.860  1.00  0.00     0.223 A 
HETATM    5  C   UNL     1      -2.984   5.926 -32.049  1.00  0.00     0.089 A 
HETATM    6  N   UNL     1      -3.156   6.335 -30.751  1.00  0.00    -0.352 N 
HETATM    7  H   UNL     1      -4.049   6.377 -30.280  1.00  0.00     0.166 HD
HETATM    8  C   UNL     1      -1.944   6.669 -30.190  1.00  0.00     0.045 A 
HETATM    9  C   UNL     1      -0.971   6.471 -31.167  1.00  0.00    -0.007 A 
HETATM   10  C   UNL     1      -1.637   6.009 -32.336  1.00  0.00     0.048 A 
HETATM   11  C   UNL     1      -1.635   7.126 -28.903  1.00  0.00     0.067 A 
HETATM   12  C   UNL     1      -0.293   7.384 -28.594  1.00  0.00     0.070 A 
HETATM   13  C   UNL     1       0.697   7.194 -29.558  1.00  0.00     0.038 A 
HETATM   14  C   UNL     1       0.372   6.740 -30.845  1.00  0.00     0.016 A 
HETATM   15  N   UNL     1      -5.318   5.419 -32.421  1.00  0.00    -0.203 NA
ENDROOT
BRANCH   1  16
HETATM   16  C   UNL     1      -7.450   4.682 -33.537  1.00  0.00     0.103 C 
BRANCH  16  17
HETATM   17  C   UNL     1      -7.830   3.548 -32.584  1.00  0.00     0.133 C 
BRANCH  17  18
HETATM   18  N   UNL     1      -7.577   2.223 -33.159  1.00  0.00    -0.352 N 
HETATM   19  C   UNL     1      -6.813   1.326 -32.412  1.00  0.00     0.253 C 
HETATM   20  O   UNL     1      -6.448   1.561 -31.261  1.00  0.00    -0.267 OA
HETATM   21  C   UNL     1      -8.303   1.884 -34.378  1.00  0.00     0.152 C 
BRANCH  19  22
HETATM   22  C   UNL     1      -6.411   0.033 -33.010  1.00  0.00     0.032 A 
HETATM   23  C   UNL     1      -7.356  -0.855 -33.521  1.00  0.00     0.019 A 
HETATM   24  C   UNL     1      -6.937  -2.062 -34.100  1.00  0.00     0.030 A 
HETATM   25  C   UNL     1      -5.577  -2.402 -34.219  1.00  0.00     0.029 A 
HETATM   26  C   UNL     1      -4.653  -1.472 -33.704  1.00  0.00     0.030 A 
HETATM   27  C   UNL     1      -5.055  -0.266 -33.118  1.00  0.00     0.019 A 
BRANCH  25  28
HETATM   28  N   UNL     1      -5.145  -3.610 -34.783  1.00  0.00    -0.390 N 
HETATM   29  C   UNL     1      -4.021  -4.320 -34.176  1.00  0.00     0.149 C 
HETATM   30  C   UNL     1      -6.186  -4.473 -35.352  1.00  0.00     0.149 C 
ENDBRANCH  25  28
ENDBRANCH  19  22
ENDBRANCH  17  18
ENDBRANCH  16  17
ENDBRANCH   1  16
BRANCH  12  31
HETATM   31  O   UNL     1      -0.088   7.820 -27.312  1.00  0.00    -0.356 OA
HETATM   32  C   UNL     1       1.137   7.448 -26.694  1.00  0.00     0.210 C 
ENDBRANCH  12  31
TORSDOF 6
ENDMDL
MODEL 7
REMARK VINA RESULT:      -8.6      4.227     11.467
REMARK  6 active torsions:
REMARK  status: ('A' for Active; 'I' for Inactive)
REMARK    1  A    between atoms: N_2  and  C_3 
REMARK    2  A    between atoms: C_6  and  C_7 
REMARK       I    between atoms: C_7  and  N_8 
REMARK    3  A    between atoms: N_8  and  C_9 
REMARK    4  A    between atoms: C_9  and  C_10 
REMARK    5  A    between atoms: C_10  and  C_11 
REMARK    6  A    between atoms: C_22  and  O_23 
ROOT
HETATM    1  C   UNL     1      -2.963   4.457 -32.515  1.00  0.00     0.158 A 
HETATM    2  N   UNL     1      -1.843   4.479 -33.247  1.00  0.00    -0.111 NA
HETATM    3  O   UNL     1      -0.960   5.215 -32.457  1.00  0.00    -0.189 OA
HETATM    4  C   UNL     1      -1.636   5.555 -31.315  1.00  0.00     0.223 A 
HETATM    5  C   UNL     1      -1.063   6.304 -30.247  1.00  0.00     0.089 A 
HETATM    6  N   UNL     1      -1.790   6.669 -29.142  1.00  0.00    -0.352 N 
HETATM    7  H   UNL     1      -2.766   6.446 -29.004  1.00  0.00     0.166 HD
HETATM    8  C   UNL     1      -1.001   7.368 -28.258  1.00  0.00     0.045 A 
HETATM    9  C   UNL     1       0.269   7.456 -28.823  1.00  0.00    -0.007 A 
HETATM   10  C   UNL     1       0.218   6.788 -30.078  1.00  0.00     0.048 A 
HETATM   11  C   UNL     1      -1.310   7.925 -27.011  1.00  0.00     0.067 A 
HETATM   12  C   UNL     1      -0.293   8.586 -26.310  1.00  0.00     0.070 A 
HETATM   13  C   UNL     1       0.986   8.688 -26.857  1.00  0.00     0.038 A 
HETATM   14  C   UNL     1       1.279   8.129 -28.111  1.00  0.00     0.016 A 
HETATM   15  N   UNL     1      -2.873   5.102 -31.305  1.00  0.00    -0.203 NA
ENDROOT
BRANCH   1  16
HETATM   16  C   UNL     1      -4.175   3.726 -32.962  1.00  0.00     0.103 C 
BRANCH  16  17
HETATM   17  C   UNL     1      -4.685   2.720 -31.929  1.00  0.00     0.133 C 
BRANCH  17  18
HETATM   18  N   UNL     1      -6.135   2.514 -32.015  1.00  0.00    -0.352 N 
HETATM   19  C   UNL     1      -6.602   1.551 -32.910  1.00  0.00     0.253 C 
HETATM   20  O   UNL     1      -5.851   0.803 -33.534  1.00  0.00    -0.267 OA
HETATM   21  C   UNL     1      -6.957   3.195 -31.022  1.00  0.00     0.152 C 
BRANCH  19  22
HETATM   22  C   UNL     1      -8.058   1.408 -33.136  1.00  0.00     0.032 A 
HETATM   23  C   UNL     1      -8.755   2.293 -33.957  1.00  0.00     0.019 A 
HETATM   24  C   UNL     1     -10.130   2.115 -34.166  1.00  0.00     0.030 A 
HETATM   25  C   UNL     1     -10.840   1.040 -33.598  1.00  0.00     0.029 A 
HETATM   26  C   UNL     1     -10.097   0.160 -32.786  1.00  0.00     0.030 A 
HETATM   27  C   UNL     1      -8.725   0.328 -32.564  1.00  0.00     0.019 A 
BRANCH  25  28
HETATM   28  N   UNL     1     -12.217   0.858 -33.787  1.00  0.00    -0.390 N 
HETATM   29  C   UNL     1     -12.885   1.553 -34.885  1.00  0.00     0.149 C 
HETATM   30  C   UNL     1     -12.745  -0.476 -33.487  1.00  0.00     0.149 C 
ENDBRANCH  25  28
ENDBRANCH  19  22
ENDBRANCH  17  18
ENDBRANCH  16  17
ENDBRANCH   1  16
BRANCH  12  31
HETATM   31  O   UNL     1      -0.686   9.092 -25.099  1.00  0.00    -0.356 OA
HETATM   32  C   UNL     1      -2.041   8.882 -24.723  1.00  0.00     0.210 C 
ENDBRANCH  12  31
TORSDOF 6
ENDMDL
MODEL 8
REMARK VINA RESULT:      -8.5      4.318      6.513
REMARK  6 active torsions:
REMARK  status: ('A' for Active; 'I' for Inactive)
REMARK    1  A    between atoms: N_2  and  C_3 
REMARK    2  A    between atoms: C_6  and  C_7 
REMARK       I    between atoms: C_7  and  N_8 
REMARK    3  A    between atoms: N_8  and  C_9 
REMARK    4  A    between atoms: C_9  and  C_10 
REMARK    5  A    between atoms: C_10  and  C_11 
REMARK    6  A    between atoms: C_22  and  O_23 
ROOT
HETATM    1  C   UNL     1     -10.428   2.616 -32.957  1.00  0.00     0.158 A 
HETATM    2  N   UNL     1     -10.955   2.203 -34.116  1.00  0.00    -0.111 NA
HETATM    3  O   UNL     1     -10.047   1.239 -34.554  1.00  0.00    -0.189 OA
HETATM    4  C   UNL     1      -9.064   1.156 -33.603  1.00  0.00     0.223 A 
HETATM    5  C   UNL     1      -7.956   0.265 -33.683  1.00  0.00     0.089 A 
HETATM    6  N   UNL     1      -6.964   0.250 -32.735  1.00  0.00    -0.352 N 
HETATM    7  H   UNL     1      -6.939   0.858 -31.928  1.00  0.00     0.166 HD
HETATM    8  C   UNL     1      -6.025  -0.708 -33.039  1.00  0.00     0.045 A 
HETATM    9  C   UNL     1      -6.429  -1.319 -34.223  1.00  0.00    -0.007 A 
HETATM   10  C   UNL     1      -7.644  -0.695 -34.625  1.00  0.00     0.048 A 
HETATM   11  C   UNL     1      -4.857  -1.081 -32.362  1.00  0.00     0.067 A 
HETATM   12  C   UNL     1      -4.078  -2.113 -32.900  1.00  0.00     0.070 A 
HETATM   13  C   UNL     1      -4.464  -2.737 -34.087  1.00  0.00     0.038 A 
HETATM   14  C   UNL     1      -5.634  -2.350 -34.757  1.00  0.00     0.016 A 
HETATM   15  N   UNL     1      -9.263   1.983 -32.596  1.00  0.00    -0.203 NA
ENDROOT
BRANCH   1  16
HETATM   16  C   UNL     1     -11.104   3.628 -32.107  1.00  0.00     0.103 C 
BRANCH  16  17
HETATM   17  C   UNL     1     -10.518   5.032 -32.264  1.00  0.00     0.133 C 
BRANCH  17  18
HETATM   18  N   UNL     1      -9.055   5.044 -32.168  1.00  0.00    -0.352 N 
HETATM   19  C   UNL     1      -8.328   5.220 -33.346  1.00  0.00     0.253 C 
HETATM   20  O   UNL     1      -8.861   5.474 -34.425  1.00  0.00    -0.267 OA
HETATM   21  C   UNL     1      -8.483   5.064 -30.827  1.00  0.00     0.152 C 
BRANCH  19  22
HETATM   22  C   UNL     1      -6.853   5.095 -33.321  1.00  0.00     0.032 A 
HETATM   23  C   UNL     1      -6.216   3.927 -33.734  1.00  0.00     0.019 A 
HETATM   24  C   UNL     1      -4.816   3.852 -33.717  1.00  0.00     0.030 A 
HETATM   25  C   UNL     1      -4.014   4.939 -33.324  1.00  0.00     0.029 A 
HETATM   26  C   UNL     1      -4.694   6.107 -32.927  1.00  0.00     0.030 A 
HETATM   27  C   UNL     1      -6.092   6.195 -32.933  1.00  0.00     0.019 A 
BRANCH  25  28
HETATM   28  N   UNL     1      -2.614   4.874 -33.289  1.00  0.00    -0.390 N 
HETATM   29  C   UNL     1      -1.859   5.044 -34.529  1.00  0.00     0.149 C 
HETATM   30  C   UNL     1      -1.966   5.418 -32.091  1.00  0.00     0.149 C 
ENDBRANCH  25  28
ENDBRANCH  19  22
ENDBRANCH  17  18
ENDBRANCH  16  17
ENDBRANCH   1  16
BRANCH  12  31
HETATM   31  O   UNL     1      -2.960  -2.412 -32.167  1.00  0.00    -0.356 OA
HETATM   32  C   UNL     1      -2.883  -3.721 -31.617  1.00  0.00     0.210 C 
ENDBRANCH  12  31
TORSDOF 6
ENDMDL
MODEL 9
REMARK VINA RESULT:      -8.4      3.973      4.639
REMARK  6 active torsions:
REMARK  status: ('A' for Active; 'I' for Inactive)
REMARK    1  A    between atoms: N_2  and  C_3 
REMARK    2  A    between atoms: C_6  and  C_7 
REMARK       I    between atoms: C_7  and  N_8 
REMARK    3  A    between atoms: N_8  and  C_9 
REMARK    4  A    between atoms: C_9  and  C_10 
REMARK    5  A    between atoms: C_10  and  C_11 
REMARK    6  A    between atoms: C_22  and  O_23 
ROOT
HETATM    1  C   UNL     1      -3.513   3.888 -32.411  1.00  0.00     0.158 A 
HETATM    2  N   UNL     1      -3.042   2.721 -31.955  1.00  0.00    -0.111 NA
HETATM    3  O   UNL     1      -4.165   1.895 -31.972  1.00  0.00    -0.189 OA
HETATM    4  C   UNL     1      -5.205   2.646 -32.453  1.00  0.00     0.223 A 
HETATM    5  C   UNL     1      -6.527   2.148 -32.633  1.00  0.00     0.089 A 
HETATM    6  N   UNL     1      -7.553   2.948 -33.068  1.00  0.00    -0.352 N 
HETATM    7  H   UNL     1      -7.457   3.931 -33.284  1.00  0.00     0.166 HD
HETATM    8  C   UNL     1      -8.717   2.221 -33.172  1.00  0.00     0.045 A 
HETATM    9  C   UNL     1      -8.422   0.916 -32.784  1.00  0.00    -0.007 A 
HETATM   10  C   UNL     1      -7.041   0.881 -32.441  1.00  0.00     0.048 A 
HETATM   11  C   UNL     1      -9.999   2.613 -33.578  1.00  0.00     0.067 A 
HETATM   12  C   UNL     1     -11.013   1.647 -33.598  1.00  0.00     0.070 A 
HETATM   13  C   UNL     1     -10.740   0.335 -33.212  1.00  0.00     0.038 A 
HETATM   14  C   UNL     1      -9.452  -0.043 -32.803  1.00  0.00     0.016 A 
HETATM   15  N   UNL     1      -4.846   3.880 -32.743  1.00  0.00    -0.203 NA
ENDROOT
BRANCH   1  16
HETATM   16  C   UNL     1      -2.630   5.066 -32.604  1.00  0.00     0.103 C 
BRANCH  16  17
HETATM   17  C   UNL     1      -1.241   4.883 -31.989  1.00  0.00     0.133 C 
BRANCH  17  18
HETATM   18  N   UNL     1      -0.988   5.819 -30.888  1.00  0.00    -0.352 N 
HETATM   19  C   UNL     1       0.163   5.626 -30.124  1.00  0.00     0.253 C 
HETATM   20  O   UNL     1       1.016   4.786 -30.407  1.00  0.00    -0.267 OA
HETATM   21  C   UNL     1      -1.858   6.985 -30.802  1.00  0.00     0.152 C 
BRANCH  19  22
HETATM   22  C   UNL     1       0.387   6.454 -28.918  1.00  0.00     0.032 A 
HETATM   23  C   UNL     1       0.997   7.704 -28.997  1.00  0.00     0.019 A 
HETATM   24  C   UNL     1       1.174   8.470 -27.837  1.00  0.00     0.030 A 
HETATM   25  C   UNL     1       0.720   8.035 -26.577  1.00  0.00     0.029 A 
HETATM   26  C   UNL     1       0.096   6.773 -26.540  1.00  0.00     0.030 A 
HETATM   27  C   UNL     1      -0.082   5.994 -27.689  1.00  0.00     0.019 A 
BRANCH  25  28
HETATM   28  N   UNL     1       0.903   8.784 -25.407  1.00  0.00    -0.390 N 
HETATM   29  C   UNL     1       2.218   8.805 -24.769  1.00  0.00     0.149 C 
HETATM   30  C   UNL     1       0.151  10.039 -25.312  1.00  0.00     0.149 C 
ENDBRANCH  25  28
ENDBRANCH  19  22
ENDBRANCH  17  18
ENDBRANCH  16  17
ENDBRANCH   1  16
BRANCH  12  31
HETATM   31  O   UNL     1     -12.229   2.121 -34.014  1.00  0.00    -0.356 OA
HETATM   32  C   UNL     1     -12.542   1.969 -35.392  1.00  0.00     0.210 C 
ENDBRANCH  12  31
TORSDOF 6
ENDMDL
MODEL 10
REMARK VINA RESULT:      -8.2      4.486     13.036
REMARK  6 active torsions:
REMARK  status: ('A' for Active; 'I' for Inactive)
REMARK    1  A    between atoms: N_2  and  C_3 
REMARK    2  A    between atoms: C_6  and  C_7 
REMARK       I    between atoms: C_7  and  N_8 
REMARK    3  A    between atoms: N_8  and  C_9 
REMARK    4  A    between atoms: C_9  and  C_10 
REMARK    5  A    between atoms: C_10  and  C_11 
REMARK    6  A    between atoms: C_22  and  O_23 
ROOT
HETATM    1  C   UNL     1       0.926   7.622 -27.405  1.00  0.00     0.158 A 
HETATM    2  N   UNL     1       0.893   8.887 -27.840  1.00  0.00    -0.111 NA
HETATM    3  O   UNL     1       1.576   9.584 -26.843  1.00  0.00    -0.189 OA
HETATM    4  C   UNL     1       1.966   8.663 -25.907  1.00  0.00     0.223 A 
HETATM    5  C   UNL     1       2.706   8.987 -24.735  1.00  0.00     0.089 A 
HETATM    6  N   UNL     1       3.032   8.042 -23.796  1.00  0.00    -0.352 N 
HETATM    7  H   UNL     1       2.775   7.066 -23.857  1.00  0.00     0.166 HD
HETATM    8  C   UNL     1       3.758   8.611 -22.775  1.00  0.00     0.045 A 
HETATM    9  C   UNL     1       3.893   9.965 -23.072  1.00  0.00    -0.007 A 
HETATM   10  C   UNL     1       3.221  10.193 -24.305  1.00  0.00     0.048 A 
HETATM   11  C   UNL     1       4.304   8.037 -21.619  1.00  0.00     0.067 A 
HETATM   12  C   UNL     1       5.017   8.863 -20.741  1.00  0.00     0.070 A 
HETATM   13  C   UNL     1       5.162  10.222 -21.018  1.00  0.00     0.038 A 
HETATM   14  C   UNL     1       4.606  10.784 -22.177  1.00  0.00     0.016 A 
HETATM   15  N   UNL     1       1.592   7.438 -26.218  1.00  0.00    -0.203 NA
ENDROOT
BRANCH   1  16
HETATM   16  C   UNL     1       0.345   6.508 -28.196  1.00  0.00     0.103 C 
BRANCH  16  17
HETATM   17  C   UNL     1       0.251   6.818 -29.691  1.00  0.00     0.133 C 
BRANCH  17  18
HETATM   18  N   UNL     1      -1.045   6.436 -30.263  1.00  0.00    -0.352 N 
HETATM   19  C   UNL     1      -1.062   5.400 -31.198  1.00  0.00     0.253 C 
HETATM   20  O   UNL     1      -0.065   4.733 -31.469  1.00  0.00    -0.267 OA
HETATM   21  C   UNL     1      -2.231   7.039 -29.667  1.00  0.00     0.152 C 
BRANCH  19  22
HETATM   22  C   UNL     1      -2.320   5.077 -31.907  1.00  0.00     0.032 A 
HETATM   23  C   UNL     1      -2.746   5.820 -33.006  1.00  0.00     0.019 A 
HETATM   24  C   UNL     1      -3.932   5.472 -33.667  1.00  0.00     0.030 A 
HETATM   25  C   UNL     1      -4.706   4.362 -33.280  1.00  0.00     0.029 A 
HETATM   26  C   UNL     1      -4.236   3.627 -32.174  1.00  0.00     0.030 A 
HETATM   27  C   UNL     1      -3.056   3.966 -31.500  1.00  0.00     0.019 A 
BRANCH  25  28
HETATM   28  N   UNL     1      -5.901   4.011 -33.922  1.00  0.00    -0.390 N 
HETATM   29  C   UNL     1      -6.258   2.599 -34.045  1.00  0.00     0.149 C 
HETATM   30  C   UNL     1      -7.035   4.920 -33.732  1.00  0.00     0.149 C 
ENDBRANCH  25  28
ENDBRANCH  19  22
ENDBRANCH  17  18
ENDBRANCH  16  17
ENDBRANCH   1  16
BRANCH  12  31
HETATM   31  O   UNL     1       5.518   8.213 -19.644  1.00  0.00    -0.356 OA
HETATM   32  C   UNL     1       6.913   7.941 -19.639  1.00  0.00     0.210 C 
ENDBRANCH  12  31
TORSDOF 6
ENDMDL
