MODEL 1
REMARK VINA RESULT:      -8.0      0.000      0.000
REMARK  6 active torsions:
REMARK  status: ('A' for Active; 'I' for Inactive)
REMARK    1  A    between atoms: C_8  and  N_9 
REMARK       I    between atoms: N_9  and  C_10 
REMARK    2  A    between atoms: C_10  and  C_11 
REMARK    3  A    between atoms: C_11  and  N_12 
REMARK    4  A    between atoms: N_12  and  C_13 
REMARK    5  A    between atoms: C_13  and  C_14 
REMARK    6  A    between atoms: C_13  and  C_17 
ROOT
HETATM    1  C   UNL     1      -3.315   2.041 -31.903  1.00  0.00     0.372 C 
ENDROOT
BRANCH   1   2
HETATM    2  C   UNL     1      -3.347   3.553 -32.124  1.00  0.00     0.250 C 
HETATM    3  N   UNL     1      -2.206   4.033 -32.729  1.00  0.00    -0.322 N 
HETATM    4  H   UNL     1      -1.426   3.382 -32.747  1.00  0.00     0.169 HD
HETATM    5  O   UNL     1      -4.349   4.198 -31.825  1.00  0.00    -0.271 OA
BRANCH   3   6
HETATM    6  C   UNL     1      -1.987   5.315 -33.204  1.00  0.00     0.085 A 
HETATM    7  C   UNL     1      -2.664   5.823 -34.298  1.00  0.00     0.052 A 
HETATM    8  C   UNL     1      -3.681   5.261 -35.216  1.00  0.00     0.072 C 
HETATM    9  N   UNL     1      -2.186   7.089 -34.478  1.00  0.00    -0.280 N 
HETATM   10  H   UNL     1      -2.440   7.757 -35.198  1.00  0.00     0.189 HD
HETATM   11  N   UNL     1      -1.285   7.464 -33.569  1.00  0.00    -0.177 NA
HETATM   12  C   UNL     1      -1.152   6.391 -32.773  1.00  0.00     0.079 A 
HETATM   13  C   UNL     1      -0.242   6.503 -31.605  1.00  0.00     0.075 C 
ENDBRANCH   3   6
ENDBRANCH   1   2
BRANCH   1  14
HETATM   14  N   UNL     1      -4.452   1.318 -32.479  1.00  0.00     0.101 N 
HETATM   15  H   UNL     1      -5.212   1.992 -32.574  1.00  0.00     0.317 HD
BRANCH  14  16
HETATM   16  C   UNL     1      -4.981   0.115 -31.792  1.00  0.00     0.259 C 
BRANCH  16  17
HETATM   17  C   UNL     1      -6.283   0.234 -30.913  1.00  0.00     0.015 C 
HETATM   18  C   UNL     1      -5.948   0.478 -29.424  1.00  0.00     0.012 C 
HETATM   19  C   UNL     1      -7.205   1.393 -31.329  1.00  0.00     0.012 C 
ENDBRANCH  16  17
BRANCH  16  20
HETATM   20  C   UNL     1      -5.153  -0.941 -32.902  1.00  0.00    -0.003 A 
HETATM   21  C   UNL     1      -4.309  -2.056 -33.044  1.00  0.00     0.042 A 
HETATM   22 CL   UNL     1      -3.008  -2.385 -31.957  1.00  0.00    -0.084 Cl
HETATM   23  C   UNL     1      -4.501  -2.968 -34.090  1.00  0.00     0.024 A 
HETATM   24  C   UNL     1      -5.534  -2.788 -35.008  1.00  0.00     0.002 A 
HETATM   25  C   UNL     1      -6.382  -1.695 -34.886  1.00  0.00     0.001 A 
HETATM   26  C   UNL     1      -6.192  -0.781 -33.847  1.00  0.00     0.011 A 
ENDBRANCH  16  20
ENDBRANCH  14  16
ENDBRANCH   1  14
TORSDOF 6
ENDMDL
MODEL 2
REMARK VINA RESULT:      -7.9      0.262      1.707
REMARK  6 active torsions:
REMARK  status: ('A' for Active; 'I' for Inactive)
REMARK    1  A    between atoms: C_8  and  N_9 
REMARK       I    between atoms: N_9  and  C_10 
REMARK    2  A    between atoms: C_10  and  C_11 
REMARK    3  A    between atoms: C_11  and  N_12 
REMARK    4  A    between atoms: N_12  and  C_13 
REMARK    5  A    between atoms: C_13  and  C_14 
REMARK    6  A    between atoms: C_13  and  C_17 
ROOT
HETATM    1  C   UNL     1      -3.333   1.988 -31.671  1.00  0.00     0.372 C 
ENDROOT
BRANCH   1   2
HETATM    2  C   UNL     1      -3.407   3.471 -32.037  1.00  0.00     0.250 C 
HETATM    3  N   UNL     1      -2.201   3.980 -32.464  1.00  0.00    -0.322 N 
HETATM    4  H   UNL     1      -1.396   3.389 -32.275  1.00  0.00     0.169 HD
HETATM    5  O   UNL     1      -4.482   4.063 -31.992  1.00  0.00    -0.271 OA
BRANCH   3   6
HETATM    6  C   UNL     1      -1.967   5.230 -33.011  1.00  0.00     0.085 A 
HETATM    7  C   UNL     1      -1.026   6.100 -32.490  1.00  0.00     0.052 A 
HETATM    8  C   UNL     1      -0.102   6.027 -31.336  1.00  0.00     0.072 C 
HETATM    9  N   UNL     1      -1.083   7.221 -33.268  1.00  0.00    -0.280 N 
HETATM   10  H   UNL     1      -0.547   8.077 -33.172  1.00  0.00     0.189 HD
HETATM   11  N   UNL     1      -1.951   7.139 -34.278  1.00  0.00    -0.177 NA
HETATM   12  C   UNL     1      -2.501   5.921 -34.142  1.00  0.00     0.079 A 
HETATM   13  C   UNL     1      -3.490   5.490 -35.162  1.00  0.00     0.075 C 
ENDBRANCH   3   6
ENDBRANCH   1   2
BRANCH   1  14
HETATM   14  N   UNL     1      -4.218   1.122 -32.456  1.00  0.00     0.101 N 
HETATM   15  H   UNL     1      -4.930   1.726 -32.868  1.00  0.00     0.317 HD
BRANCH  14  16
HETATM   16  C   UNL     1      -4.899  -0.019 -31.800  1.00  0.00     0.259 C 
BRANCH  16  17
HETATM   17  C   UNL     1      -6.249   0.225 -31.026  1.00  0.00     0.015 C 
HETATM   18  C   UNL     1      -6.009   0.463 -29.517  1.00  0.00     0.012 C 
HETATM   19  C   UNL     1      -7.033   1.452 -31.523  1.00  0.00     0.012 C 
ENDBRANCH  16  17
BRANCH  16  20
HETATM   20  C   UNL     1      -5.076  -1.074 -32.910  1.00  0.00    -0.003 A 
HETATM   21  C   UNL     1      -4.249  -2.203 -33.041  1.00  0.00     0.042 A 
HETATM   22 CL   UNL     1      -2.965  -2.551 -31.941  1.00  0.00    -0.084 Cl
HETATM   23  C   UNL     1      -4.445  -3.115 -34.087  1.00  0.00     0.024 A 
HETATM   24  C   UNL     1      -5.466  -2.920 -35.016  1.00  0.00     0.002 A 
HETATM   25  C   UNL     1      -6.298  -1.813 -34.905  1.00  0.00     0.001 A 
HETATM   26  C   UNL     1      -6.104  -0.900 -33.866  1.00  0.00     0.011 A 
ENDBRANCH  16  20
ENDBRANCH  14  16
ENDBRANCH   1  14
TORSDOF 6
ENDMDL
MODEL 3
REMARK VINA RESULT:      -7.8      4.836      7.535
REMARK  6 active torsions:
REMARK  status: ('A' for Active; 'I' for Inactive)
REMARK    1  A    between atoms: C_8  and  N_9 
REMARK       I    between atoms: N_9  and  C_10 
REMARK    2  A    between atoms: C_10  and  C_11 
REMARK    3  A    between atoms: C_11  and  N_12 
REMARK    4  A    between atoms: N_12  and  C_13 
REMARK    5  A    between atoms: C_13  and  C_14 
REMARK    6  A    between atoms: C_13  and  C_17 
ROOT
HETATM    1  C   UNL     1      -8.419   0.999 -34.641  1.00  0.00     0.372 C 
ENDROOT
BRANCH   1   2
HETATM    2  C   UNL     1      -9.678   1.506 -33.936  1.00  0.00     0.250 C 
HETATM    3  N   UNL     1     -10.779   1.543 -34.763  1.00  0.00    -0.322 N 
HETATM    4  H   UNL     1     -10.573   1.448 -35.754  1.00  0.00     0.169 HD
HETATM    5  O   UNL     1      -9.648   1.770 -32.737  1.00  0.00    -0.271 OA
BRANCH   3   6
HETATM    6  C   UNL     1     -12.090   1.799 -34.400  1.00  0.00     0.085 A 
HETATM    7  C   UNL     1     -12.664   3.050 -34.539  1.00  0.00     0.052 A 
HETATM    8  C   UNL     1     -12.158   4.353 -35.025  1.00  0.00     0.072 C 
HETATM    9  N   UNL     1     -13.942   2.928 -34.074  1.00  0.00    -0.280 N 
HETATM   10  H   UNL     1     -14.654   3.647 -34.006  1.00  0.00     0.189 HD
HETATM   11  N   UNL     1     -14.263   1.694 -33.681  1.00  0.00    -0.177 NA
HETATM   12  C   UNL     1     -13.141   0.983 -33.879  1.00  0.00     0.079 A 
HETATM   13  C   UNL     1     -13.181  -0.472 -33.584  1.00  0.00     0.075 C 
ENDBRANCH   3   6
ENDBRANCH   1   2
BRANCH   1  14
HETATM   14  N   UNL     1      -7.860  -0.233 -34.078  1.00  0.00     0.101 N 
HETATM   15  H   UNL     1      -8.385  -0.431 -33.226  1.00  0.00     0.317 HD
BRANCH  14  16
HETATM   16  C   UNL     1      -6.414  -0.305 -33.760  1.00  0.00     0.259 C 
BRANCH  16  17
HETATM   17  C   UNL     1      -5.911   0.138 -32.335  1.00  0.00     0.015 C 
HETATM   18  C   UNL     1      -5.466   1.619 -32.319  1.00  0.00     0.012 C 
HETATM   19  C   UNL     1      -6.980   0.012 -31.235  1.00  0.00     0.012 C 
ENDBRANCH  16  17
BRANCH  16  20
HETATM   20  C   UNL     1      -6.006  -1.759 -34.068  1.00  0.00    -0.003 A 
HETATM   21  C   UNL     1      -4.690  -2.236 -33.936  1.00  0.00     0.042 A 
HETATM   22 CL   UNL     1      -3.392  -1.247 -33.373  1.00  0.00    -0.084 Cl
HETATM   23  C   UNL     1      -4.376  -3.563 -34.255  1.00  0.00     0.024 A 
HETATM   24  C   UNL     1      -5.364  -4.438 -34.707  1.00  0.00     0.002 A 
HETATM   25  C   UNL     1      -6.672  -3.989 -34.842  1.00  0.00     0.001 A 
HETATM   26  C   UNL     1      -6.988  -2.666 -34.529  1.00  0.00     0.011 A 
ENDBRANCH  16  20
ENDBRANCH  14  16
ENDBRANCH   1  14
TORSDOF 6
ENDMDL
MODEL 4
REMARK VINA RESULT:      -7.7      4.670      7.353
REMARK  6 active torsions:
REMARK  status: ('A' for Active; 'I' for Inactive)
REMARK    1  A    between atoms: C_8  and  N_9 
REMARK       I    between atoms: N_9  and  C_10 
REMARK    2  A    between atoms: C_10  and  C_11 
REMARK    3  A    between atoms: C_11  and  N_12 
REMARK    4  A    between atoms: N_12  and  C_13 
REMARK    5  A    between atoms: C_13  and  C_14 
REMARK    6  A    between atoms: C_13  and  C_17 
ROOT
HETATM    1  C   UNL     1      -8.756   1.106 -31.357  1.00  0.00     0.372 C 
ENDROOT
BRANCH   1   2
HETATM    2  C   UNL     1      -9.776   0.756 -32.442  1.00  0.00     0.250 C 
HETATM    3  N   UNL     1     -10.597   1.812 -32.768  1.00  0.00    -0.322 N 
HETATM    4  H   UNL     1     -10.572   2.590 -32.116  1.00  0.00     0.169 HD
HETATM    5  O   UNL     1      -9.759  -0.355 -32.966  1.00  0.00    -0.271 OA
BRANCH   3   6
HETATM    6  C   UNL     1     -11.509   1.872 -33.809  1.00  0.00     0.085 A 
HETATM    7  C   UNL     1     -11.434   2.830 -34.803  1.00  0.00     0.052 A 
HETATM    8  C   UNL     1     -10.515   3.964 -35.055  1.00  0.00     0.072 C 
HETATM    9  N   UNL     1     -12.489   2.589 -35.635  1.00  0.00    -0.280 N 
HETATM   10  H   UNL     1     -12.762   3.104 -36.465  1.00  0.00     0.189 HD
HETATM   11  N   UNL     1     -13.222   1.528 -35.290  1.00  0.00    -0.177 NA
HETATM   12  C   UNL     1     -12.633   1.069 -34.174  1.00  0.00     0.079 A 
HETATM   13  C   UNL     1     -13.187  -0.162 -33.555  1.00  0.00     0.075 C 
ENDBRANCH   3   6
ENDBRANCH   1   2
BRANCH   1  14
HETATM   14  N   UNL     1      -7.418   0.551 -31.577  1.00  0.00     0.101 N 
HETATM   15  H   UNL     1      -6.886   0.719 -30.723  1.00  0.00     0.317 HD
BRANCH  14  16
HETATM   16  C   UNL     1      -6.610   1.019 -32.728  1.00  0.00     0.259 C 
BRANCH  16  17
HETATM   17  C   UNL     1      -5.528   2.143 -32.509  1.00  0.00     0.015 C 
HETATM   18  C   UNL     1      -5.917   3.459 -33.221  1.00  0.00     0.012 C 
HETATM   19  C   UNL     1      -5.313   2.515 -31.032  1.00  0.00     0.012 C 
ENDBRANCH  16  17
BRANCH  16  20
HETATM   20  C   UNL     1      -5.977  -0.255 -33.321  1.00  0.00    -0.003 A 
HETATM   21  C   UNL     1      -6.425  -0.858 -34.510  1.00  0.00     0.042 A 
HETATM   22 CL   UNL     1      -7.712  -0.206 -35.458  1.00  0.00    -0.084 Cl
HETATM   23  C   UNL     1      -5.825  -2.031 -34.986  1.00  0.00     0.024 A 
HETATM   24  C   UNL     1      -4.770  -2.622 -34.291  1.00  0.00     0.002 A 
HETATM   25  C   UNL     1      -4.309  -2.042 -33.115  1.00  0.00     0.001 A 
HETATM   26  C   UNL     1      -4.907  -0.875 -32.635  1.00  0.00     0.011 A 
ENDBRANCH  16  20
ENDBRANCH  14  16
ENDBRANCH   1  14
TORSDOF 6
ENDMDL
MODEL 5
REMARK VINA RESULT:      -7.7      3.943      6.698
REMARK  6 active torsions:
REMARK  status: ('A' for Active; 'I' for Inactive)
REMARK    1  A    between atoms: C_8  and  N_9 
REMARK       I    between atoms: N_9  and  C_10 
REMARK    2  A    between atoms: C_10  and  C_11 
REMARK    3  A    between atoms: C_11  and  N_12 
REMARK    4  A    between atoms: N_12  and  C_13 
REMARK    5  A    between atoms: C_13  and  C_14 
REMARK    6  A    between atoms: C_13  and  C_17 
ROOT
HETATM    1  C   UNL     1      -7.085   3.252 -33.925  1.00  0.00     0.372 C 
ENDROOT
BRANCH   1   2
HETATM    2  C   UNL     1      -8.581   3.141 -33.628  1.00  0.00     0.250 C 
HETATM    3  N   UNL     1      -9.206   2.165 -34.373  1.00  0.00    -0.322 N 
HETATM    4  H   UNL     1      -8.662   1.811 -35.155  1.00  0.00     0.169 HD
HETATM    5  O   UNL     1      -9.088   3.839 -32.754  1.00  0.00    -0.271 OA
BRANCH   3   6
HETATM    6  C   UNL     1     -10.505   1.709 -34.232  1.00  0.00     0.085 A 
HETATM    7  C   UNL     1     -10.832   0.652 -33.401  1.00  0.00     0.052 A 
HETATM    8  C   UNL     1     -10.035  -0.238 -32.528  1.00  0.00     0.072 C 
HETATM    9  N   UNL     1     -12.180   0.481 -33.527  1.00  0.00    -0.280 N 
HETATM   10  H   UNL     1     -12.767  -0.214 -33.079  1.00  0.00     0.189 HD
HETATM   11  N   UNL     1     -12.767   1.364 -34.338  1.00  0.00    -0.177 NA
HETATM   12  C   UNL     1     -11.757   2.132 -34.777  1.00  0.00     0.079 A 
HETATM   13  C   UNL     1     -12.089   3.266 -35.675  1.00  0.00     0.075 C 
ENDBRANCH   3   6
ENDBRANCH   1   2
BRANCH   1  14
HETATM   14  N   UNL     1      -6.428   1.979 -34.230  1.00  0.00     0.101 N 
HETATM   15  H   UNL     1      -7.141   1.369 -34.632  1.00  0.00     0.317 HD
BRANCH  14  16
HETATM   16  C   UNL     1      -5.734   1.234 -33.152  1.00  0.00     0.259 C 
BRANCH  16  17
HETATM   17  C   UNL     1      -6.280   1.317 -31.677  1.00  0.00     0.015 C 
HETATM   18  C   UNL     1      -6.373  -0.080 -31.022  1.00  0.00     0.012 C 
HETATM   19  C   UNL     1      -5.400   2.160 -30.739  1.00  0.00     0.012 C 
ENDBRANCH  16  17
BRANCH  16  20
HETATM   20  C   UNL     1      -5.676  -0.226 -33.644  1.00  0.00    -0.003 A 
HETATM   21  C   UNL     1      -4.522  -1.024 -33.559  1.00  0.00     0.042 A 
HETATM   22 CL   UNL     1      -3.051  -0.463 -32.853  1.00  0.00    -0.084 Cl
HETATM   23  C   UNL     1      -4.525  -2.338 -34.046  1.00  0.00     0.024 A 
HETATM   24  C   UNL     1      -5.674  -2.879 -34.622  1.00  0.00     0.002 A 
HETATM   25  C   UNL     1      -6.827  -2.110 -34.714  1.00  0.00     0.001 A 
HETATM   26  C   UNL     1      -6.828  -0.799 -34.234  1.00  0.00     0.011 A 
ENDBRANCH  16  20
ENDBRANCH  14  16
ENDBRANCH   1  14
TORSDOF 6
ENDMDL
MODEL 6
REMARK VINA RESULT:      -7.6      1.686      2.681
REMARK  6 active torsions:
REMARK  status: ('A' for Active; 'I' for Inactive)
REMARK    1  A    between atoms: C_8  and  N_9 
REMARK       I    between atoms: N_9  and  C_10 
REMARK    2  A    between atoms: C_10  and  C_11 
REMARK    3  A    between atoms: C_11  and  N_12 
REMARK    4  A    between atoms: N_12  and  C_13 
REMARK    5  A    between atoms: C_13  and  C_14 
REMARK    6  A    between atoms: C_13  and  C_17 
ROOT
HETATM    1  C   UNL     1      -3.830   2.244 -31.187  1.00  0.00     0.372 C 
ENDROOT
BRANCH   1   2
HETATM    2  C   UNL     1      -3.542   3.708 -31.521  1.00  0.00     0.250 C 
HETATM    3  N   UNL     1      -2.446   3.868 -32.341  1.00  0.00    -0.322 N 
HETATM    4  H   UNL     1      -1.858   3.044 -32.433  1.00  0.00     0.169 HD
HETATM    5  O   UNL     1      -4.293   4.591 -31.116  1.00  0.00    -0.271 OA
BRANCH   3   6
HETATM    6  C   UNL     1      -2.018   5.036 -32.947  1.00  0.00     0.085 A 
HETATM    7  C   UNL     1      -0.968   5.785 -32.448  1.00  0.00     0.052 A 
HETATM    8  C   UNL     1      -0.086   5.641 -31.268  1.00  0.00     0.072 C 
HETATM    9  N   UNL     1      -0.842   6.856 -33.286  1.00  0.00    -0.280 N 
HETATM   10  H   UNL     1      -0.186   7.627 -33.221  1.00  0.00     0.189 HD
HETATM   11  N   UNL     1      -1.694   6.846 -34.312  1.00  0.00    -0.177 NA
HETATM   12  C   UNL     1      -2.422   5.733 -34.127  1.00  0.00     0.079 A 
HETATM   13  C   UNL     1      -3.446   5.397 -35.148  1.00  0.00     0.075 C 
ENDBRANCH   3   6
ENDBRANCH   1   2
BRANCH   1  14
HETATM   14  N   UNL     1      -4.301   1.443 -32.320  1.00  0.00     0.101 N 
HETATM   15  H   UNL     1      -4.044   1.951 -33.167  1.00  0.00     0.317 HD
BRANCH  14  16
HETATM   16  C   UNL     1      -5.734   1.077 -32.416  1.00  0.00     0.259 C 
BRANCH  16  17
HETATM   17  C   UNL     1      -6.757   2.105 -33.031  1.00  0.00     0.015 C 
HETATM   18  C   UNL     1      -7.375   3.017 -31.947  1.00  0.00     0.012 C 
HETATM   19  C   UNL     1      -6.132   3.053 -34.069  1.00  0.00     0.012 C 
ENDBRANCH  16  17
BRANCH  16  20
HETATM   20  C   UNL     1      -5.759  -0.260 -33.182  1.00  0.00    -0.003 A 
HETATM   21  C   UNL     1      -6.946  -0.922 -33.542  1.00  0.00     0.042 A 
HETATM   22 CL   UNL     1      -8.511  -0.280 -33.199  1.00  0.00    -0.084 Cl
HETATM   23  C   UNL     1      -6.903  -2.149 -34.216  1.00  0.00     0.024 A 
HETATM   24  C   UNL     1      -5.682  -2.737 -34.545  1.00  0.00     0.002 A 
HETATM   25  C   UNL     1      -4.496  -2.099 -34.202  1.00  0.00     0.001 A 
HETATM   26  C   UNL     1      -4.534  -0.878 -33.526  1.00  0.00     0.011 A 
ENDBRANCH  16  20
ENDBRANCH  14  16
ENDBRANCH   1  14
TORSDOF 6
ENDMDL
MODEL 7
REMARK VINA RESULT:      -7.3      4.647      7.597
REMARK  6 active torsions:
REMARK  status: ('A' for Active; 'I' for Inactive)
REMARK    1  A    between atoms: C_8  and  N_9 
REMARK       I    between atoms: N_9  and  C_10 
REMARK    2  A    between atoms: C_10  and  C_11 
REMARK    3  A    between atoms: C_11  and  N_12 
REMARK    4  A    between atoms: N_12  and  C_13 
REMARK    5  A    between atoms: C_13  and  C_14 
REMARK    6  A    between atoms: C_13  and  C_17 
ROOT
HETATM    1  C   UNL     1      -8.773   0.368 -32.062  1.00  0.00     0.372 C 
ENDROOT
BRANCH   1   2
HETATM    2  C   UNL     1      -9.740   1.465 -32.511  1.00  0.00     0.250 C 
HETATM    3  N   UNL     1     -10.448   1.127 -33.643  1.00  0.00    -0.322 N 
HETATM    4  H   UNL     1     -10.092   0.319 -34.145  1.00  0.00     0.169 HD
HETATM    5  O   UNL     1      -9.863   2.487 -31.842  1.00  0.00    -0.271 OA
BRANCH   3   6
HETATM    6  C   UNL     1     -11.502   1.824 -34.209  1.00  0.00     0.085 A 
HETATM    7  C   UNL     1     -12.795   1.333 -34.212  1.00  0.00     0.052 A 
HETATM    8  C   UNL     1     -13.409   0.081 -33.714  1.00  0.00     0.072 C 
HETATM    9  N   UNL     1     -13.550   2.271 -34.856  1.00  0.00    -0.280 N 
HETATM   10  H   UNL     1     -14.542   2.242 -35.062  1.00  0.00     0.189 HD
HETATM   11  N   UNL     1     -12.865   3.351 -35.238  1.00  0.00    -0.177 NA
HETATM   12  C   UNL     1     -11.606   3.100 -34.844  1.00  0.00     0.079 A 
HETATM   13  C   UNL     1     -10.584   4.151 -35.077  1.00  0.00     0.075 C 
ENDBRANCH   3   6
ENDBRANCH   1   2
BRANCH   1  14
HETATM   14  N   UNL     1      -8.087  -0.324 -33.157  1.00  0.00     0.101 N 
HETATM   15  H   UNL     1      -8.496  -1.257 -33.218  1.00  0.00     0.317 HD
BRANCH  14  16
HETATM   16  C   UNL     1      -6.612  -0.465 -33.126  1.00  0.00     0.259 C 
BRANCH  16  17
HETATM   17  C   UNL     1      -5.892  -1.323 -34.233  1.00  0.00     0.015 C 
HETATM   18  C   UNL     1      -4.486  -1.780 -33.780  1.00  0.00     0.012 C 
HETATM   19  C   UNL     1      -6.648  -2.609 -34.607  1.00  0.00     0.012 C 
ENDBRANCH  16  17
BRANCH  16  20
HETATM   20  C   UNL     1      -6.070   0.978 -33.099  1.00  0.00    -0.003 A 
HETATM   21  C   UNL     1      -5.217   1.464 -32.093  1.00  0.00     0.042 A 
HETATM   22 CL   UNL     1      -4.651   0.478 -30.794  1.00  0.00    -0.084 Cl
HETATM   23  C   UNL     1      -4.777   2.795 -32.110  1.00  0.00     0.024 A 
HETATM   24  C   UNL     1      -5.175   3.661 -33.128  1.00  0.00     0.002 A 
HETATM   25  C   UNL     1      -6.015   3.201 -34.135  1.00  0.00     0.001 A 
HETATM   26  C   UNL     1      -6.459   1.877 -34.120  1.00  0.00     0.011 A 
ENDBRANCH  16  20
ENDBRANCH  14  16
ENDBRANCH   1  14
TORSDOF 6
ENDMDL
MODEL 8
REMARK VINA RESULT:      -7.2     15.999     17.527
REMARK  6 active torsions:
REMARK  status: ('A' for Active; 'I' for Inactive)
REMARK    1  A    between atoms: C_8  and  N_9 
REMARK       I    between atoms: N_9  and  C_10 
REMARK    2  A    between atoms: C_10  and  C_11 
REMARK    3  A    between atoms: C_11  and  N_12 
REMARK    4  A    between atoms: N_12  and  C_13 
REMARK    5  A    between atoms: C_13  and  C_14 
REMARK    6  A    between atoms: C_13  and  C_17 
ROOT
HETATM    1  C   UNL     1      -4.018 -13.117 -36.611  1.00  0.00     0.372 C 
ENDROOT
BRANCH   1   2
HETATM    2  C   UNL     1      -3.486 -12.933 -38.033  1.00  0.00     0.250 C 
HETATM    3  N   UNL     1      -3.839 -13.962 -38.877  1.00  0.00    -0.322 N 
HETATM    4  H   UNL     1      -4.201 -14.790 -38.413  1.00  0.00     0.169 HD
HETATM    5  O   UNL     1      -2.870 -11.913 -38.332  1.00  0.00    -0.271 OA
BRANCH   3   6
HETATM    6  C   UNL     1      -3.652 -14.022 -40.248  1.00  0.00     0.085 A 
HETATM    7  C   UNL     1      -2.493 -14.519 -40.815  1.00  0.00     0.052 A 
HETATM    8  C   UNL     1      -1.234 -15.056 -40.251  1.00  0.00     0.072 C 
HETATM    9  N   UNL     1      -2.662 -14.410 -42.166  1.00  0.00    -0.280 N 
HETATM   10  H   UNL     1      -2.008 -14.661 -42.900  1.00  0.00     0.189 HD
HETATM   11  N   UNL     1      -3.849 -13.922 -42.528  1.00  0.00    -0.177 NA
HETATM   12  C   UNL     1      -4.476 -13.682 -41.364  1.00  0.00     0.079 A 
HETATM   13  C   UNL     1      -5.870 -13.173 -41.421  1.00  0.00     0.075 C 
ENDBRANCH   3   6
ENDBRANCH   1   2
BRANCH   1  14
HETATM   14  N   UNL     1      -5.453 -12.867 -36.461  1.00  0.00     0.101 N 
HETATM   15  H   UNL     1      -5.556 -12.187 -35.707  1.00  0.00     0.317 HD
BRANCH  14  16
HETATM   16  C   UNL     1      -6.372 -13.999 -36.194  1.00  0.00     0.259 C 
BRANCH  16  17
HETATM   17  C   UNL     1      -7.062 -14.122 -34.783  1.00  0.00     0.015 C 
HETATM   18  C   UNL     1      -6.614 -15.400 -34.037  1.00  0.00     0.012 C 
HETATM   19  C   UNL     1      -6.743 -12.952 -33.836  1.00  0.00     0.012 C 
ENDBRANCH  16  17
BRANCH  16  20
HETATM   20  C   UNL     1      -7.421 -13.942 -37.323  1.00  0.00    -0.003 A 
HETATM   21  C   UNL     1      -8.116 -15.072 -37.789  1.00  0.00     0.042 A 
HETATM   22 CL   UNL     1      -7.896 -16.645 -37.114  1.00  0.00    -0.084 Cl
HETATM   23  C   UNL     1      -9.039 -14.960 -38.837  1.00  0.00     0.024 A 
HETATM   24  C   UNL     1      -9.289 -13.726 -39.435  1.00  0.00     0.002 A 
HETATM   25  C   UNL     1      -8.616 -12.595 -38.988  1.00  0.00     0.001 A 
HETATM   26  C   UNL     1      -7.692 -12.702 -37.947  1.00  0.00     0.011 A 
ENDBRANCH  16  20
ENDBRANCH  14  16
ENDBRANCH   1  14
TORSDOF 6
ENDMDL
MODEL 9
REMARK VINA RESULT:      -7.2      2.183      3.366
REMARK  6 active torsions:
REMARK  status: ('A' for Active; 'I' for Inactive)
REMARK    1  A    between atoms: C_8  and  N_9 
REMARK       I    between atoms: N_9  and  C_10 
REMARK    2  A    between atoms: C_10  and  C_11 
REMARK    3  A    between atoms: C_11  and  N_12 
REMARK    4  A    between atoms: N_12  and  C_13 
REMARK    5  A    between atoms: C_13  and  C_14 
REMARK    6  A    between atoms: C_13  and  C_17 
ROOT
HETATM    1  C   UNL     1      -5.035   2.984 -32.741  1.00  0.00     0.372 C 
ENDROOT
BRANCH   1   2
HETATM    2  C   UNL     1      -3.817   3.885 -32.530  1.00  0.00     0.250 C 
HETATM    3  N   UNL     1      -3.905   5.077 -33.214  1.00  0.00    -0.322 N 
HETATM    4  H   UNL     1      -4.634   5.111 -33.922  1.00  0.00     0.169 HD
HETATM    5  O   UNL     1      -2.923   3.540 -31.763  1.00  0.00    -0.271 OA
BRANCH   3   6
HETATM    6  C   UNL     1      -3.055   6.165 -33.112  1.00  0.00     0.085 A 
HETATM    7  C   UNL     1      -1.907   6.279 -33.875  1.00  0.00     0.052 A 
HETATM    8  C   UNL     1      -1.269   5.409 -34.889  1.00  0.00     0.072 C 
HETATM    9  N   UNL     1      -1.325   7.456 -33.500  1.00  0.00    -0.280 N 
HETATM   10  H   UNL     1      -0.457   7.859 -33.836  1.00  0.00     0.189 HD
HETATM   11  N   UNL     1      -2.018   8.139 -32.588  1.00  0.00    -0.177 NA
HETATM   12  C   UNL     1      -3.088   7.366 -32.340  1.00  0.00     0.079 A 
HETATM   13  C   UNL     1      -4.106   7.878 -31.387  1.00  0.00     0.075 C 
ENDBRANCH   3   6
ENDBRANCH   1   2
BRANCH   1  14
HETATM   14  N   UNL     1      -4.912   1.648 -32.153  1.00  0.00     0.101 N 
HETATM   15  H   UNL     1      -3.933   1.530 -31.891  1.00  0.00     0.317 HD
BRANCH  14  16
HETATM   16  C   UNL     1      -5.330   0.460 -32.936  1.00  0.00     0.259 C 
BRANCH  16  17
HETATM   17  C   UNL     1      -4.756  -0.958 -32.559  1.00  0.00     0.015 C 
HETATM   18  C   UNL     1      -4.773  -1.922 -33.768  1.00  0.00     0.012 C 
HETATM   19  C   UNL     1      -3.297  -0.924 -32.072  1.00  0.00     0.012 C 
ENDBRANCH  16  17
BRANCH  16  20
HETATM   20  C   UNL     1      -6.871   0.467 -32.889  1.00  0.00    -0.003 A 
HETATM   21  C   UNL     1      -7.678   0.472 -34.040  1.00  0.00     0.042 A 
HETATM   22 CL   UNL     1      -7.025   0.428 -35.637  1.00  0.00    -0.084 Cl
HETATM   23  C   UNL     1      -9.075   0.504 -33.932  1.00  0.00     0.024 A 
HETATM   24  C   UNL     1      -9.690   0.530 -32.681  1.00  0.00     0.002 A 
HETATM   25  C   UNL     1      -8.912   0.523 -31.530  1.00  0.00     0.001 A 
HETATM   26  C   UNL     1      -7.520   0.495 -31.633  1.00  0.00     0.011 A 
ENDBRANCH  16  20
ENDBRANCH  14  16
ENDBRANCH   1  14
TORSDOF 6
ENDMDL
MODEL 10
REMARK VINA RESULT:      -7.2      1.987      3.125
REMARK  6 active torsions:
REMARK  status: ('A' for Active; 'I' for Inactive)
REMARK    1  A    between atoms: C_8  and  N_9 
REMARK       I    between atoms: N_9  and  C_10 
REMARK    2  A    between atoms: C_10  and  C_11 
REMARK    3  A    between atoms: C_11  and  N_12 
REMARK    4  A    between atoms: N_12  and  C_13 
REMARK    5  A    between atoms: C_13  and  C_14 
REMARK    6  A    between atoms: C_13  and  C_17 
ROOT
HETATM    1  C   UNL     1      -4.745   2.707 -32.646  1.00  0.00     0.372 C 
ENDROOT
BRANCH   1   2
HETATM    2  C   UNL     1      -3.530   3.636 -32.634  1.00  0.00     0.250 C 
HETATM    3  N   UNL     1      -3.788   4.866 -33.197  1.00  0.00    -0.322 N 
HETATM    4  H   UNL     1      -4.652   4.919 -33.731  1.00  0.00     0.169 HD
HETATM    5  O   UNL     1      -2.485   3.275 -32.100  1.00  0.00    -0.271 OA
BRANCH   3   6
HETATM    6  C   UNL     1      -2.960   5.975 -33.201  1.00  0.00     0.085 A 
HETATM    7  C   UNL     1      -3.165   7.053 -32.359  1.00  0.00     0.052 A 
HETATM    8  C   UNL     1      -4.190   7.366 -31.338  1.00  0.00     0.072 C 
HETATM    9  N   UNL     1      -2.175   7.948 -32.649  1.00  0.00    -0.280 N 
HETATM   10  H   UNL     1      -2.019   8.863 -32.241  1.00  0.00     0.189 HD
HETATM   11  N   UNL     1      -1.317   7.526 -33.581  1.00  0.00    -0.177 NA
HETATM   12  C   UNL     1      -1.777   6.313 -33.929  1.00  0.00     0.079 A 
HETATM   13  C   UNL     1      -1.000   5.538 -34.928  1.00  0.00     0.075 C 
ENDBRANCH   3   6
ENDBRANCH   1   2
BRANCH   1  14
HETATM   14  N   UNL     1      -4.474   1.346 -32.176  1.00  0.00     0.101 N 
HETATM   15  H   UNL     1      -3.480   1.305 -31.948  1.00  0.00     0.317 HD
BRANCH  14  16
HETATM   16  C   UNL     1      -4.798   0.191 -33.047  1.00  0.00     0.259 C 
BRANCH  16  17
HETATM   17  C   UNL     1      -4.335  -1.254 -32.623  1.00  0.00     0.015 C 
HETATM   18  C   UNL     1      -4.206  -2.195 -33.843  1.00  0.00     0.012 C 
HETATM   19  C   UNL     1      -2.964  -1.284 -31.926  1.00  0.00     0.012 C 
ENDBRANCH  16  17
BRANCH  16  20
HETATM   20  C   UNL     1      -6.325   0.250 -33.245  1.00  0.00    -0.003 A 
HETATM   21  C   UNL     1      -7.246   0.130 -32.190  1.00  0.00     0.042 A 
HETATM   22 CL   UNL     1      -6.758  -0.058 -30.545  1.00  0.00    -0.084 Cl
HETATM   23  C   UNL     1      -8.625   0.167 -32.436  1.00  0.00     0.024 A 
HETATM   24  C   UNL     1      -9.110   0.327 -33.734  1.00  0.00     0.002 A 
HETATM   25  C   UNL     1      -8.218   0.451 -34.792  1.00  0.00     0.001 A 
HETATM   26  C   UNL     1      -6.843   0.411 -34.552  1.00  0.00     0.011 A 
ENDBRANCH  16  20
ENDBRANCH  14  16
ENDBRANCH   1  14
TORSDOF 6
ENDMDL
