MODEL 1
REMARK VINA RESULT:      -7.9      0.000      0.000
REMARK  5 active torsions:
REMARK  status: ('A' for Active; 'I' for Inactive)
REMARK    1  A    between atoms: C_8  and  C_9 
REMARK    2  A    between atoms: C_9  and  N_10 
REMARK    3  A    between atoms: N_10  and  C_13 
REMARK    4  A    between atoms: C_13  and  C_14 
REMARK    5  A    between atoms: C_13  and  C_19 
ROOT
HETATM    1  N   UNL     1      -6.189  -0.570 -33.238  1.00  0.00    -0.056 N 
HETATM    2  H   UNL     1      -6.799  -1.313 -33.608  1.00  0.00     0.278 HD
HETATM    3  H   UNL     1      -6.275  -0.660 -32.219  1.00  0.00     0.278 HD
ENDROOT
BRANCH   1   4
HETATM    4  C   UNL     1      -4.794  -0.853 -33.654  1.00  0.00     0.275 C 
BRANCH   4   5
HETATM    5  C   UNL     1      -4.449  -2.301 -33.505  1.00  0.00     0.004 A 
HETATM    6  C   UNL     1      -5.089  -3.277 -34.255  1.00  0.00     0.113 A 
HETATM    7  C   UNL     1      -4.764  -4.610 -34.162  1.00  0.00     0.105 A 
HETATM    8  O   UNL     1      -6.106  -3.054 -35.139  1.00  0.00    -0.322 OA
HETATM    9  C   UNL     1      -3.774  -5.054 -33.314  1.00  0.00     0.040 A 
HETATM   10  O   UNL     1      -5.518  -5.388 -34.979  1.00  0.00    -0.323 OA
HETATM   11  C   UNL     1      -3.099  -4.101 -32.547  1.00  0.00     0.003 A 
HETATM   12  C   UNL     1      -3.428  -2.735 -32.644  1.00  0.00     0.012 A 
HETATM   13  C   UNL     1      -6.330  -4.401 -35.639  1.00  0.00     0.352 A 
ENDBRANCH   4   5
ENDBRANCH   1   4
BRANCH   1  14
HETATM   14  C   UNL     1      -6.753   0.755 -33.652  1.00  0.00     0.292 C 
BRANCH  14  15
HETATM   15  C   UNL     1      -6.276   1.896 -32.795  1.00  0.00     0.190 A 
HETATM   16  N   UNL     1      -6.265   1.812 -31.454  1.00  0.00    -0.109 NA
HETATM   17  O   UNL     1      -5.715   3.040 -31.067  1.00  0.00    -0.205 OA
HETATM   18  C   UNL     1      -5.421   3.708 -32.214  1.00  0.00     0.288 A 
HETATM   19  N   UNL     1      -5.717   3.040 -33.304  1.00  0.00    -0.215 NA
ENDBRANCH  14  15
BRANCH  14  20
HETATM   20  C   UNL     1      -8.271   0.797 -33.593  1.00  0.00    -0.020 A 
HETATM   21  C   UNL     1      -8.963   1.817 -34.273  1.00  0.00     0.011 A 
HETATM   22  C   UNL     1     -10.360   1.862 -34.263  1.00  0.00     0.024 A 
HETATM   23  C   UNL     1     -11.083   0.892 -33.574  1.00  0.00     0.034 A 
HETATM   24 CL   UNL     1     -12.800   0.948 -33.566  1.00  0.00    -0.084 Cl
HETATM   25  C   UNL     1     -10.420  -0.123 -32.891  1.00  0.00     0.024 A 
HETATM   26  C   UNL     1      -9.022  -0.174 -32.900  1.00  0.00     0.011 A 
ENDBRANCH  14  20
ENDBRANCH   1  14
TORSDOF 5
ENDMDL
MODEL 2
REMARK VINA RESULT:      -7.9      3.400      7.063
REMARK  5 active torsions:
REMARK  status: ('A' for Active; 'I' for Inactive)
REMARK    1  A    between atoms: C_8  and  C_9 
REMARK    2  A    between atoms: C_9  and  N_10 
REMARK    3  A    between atoms: N_10  and  C_13 
REMARK    4  A    between atoms: C_13  and  C_14 
REMARK    5  A    between atoms: C_13  and  C_19 
ROOT
HETATM    1  N   UNL     1      -8.830   0.040 -33.651  1.00  0.00    -0.056 N 
HETATM    2  H   UNL     1      -8.828  -0.832 -34.201  1.00  0.00     0.278 HD
HETATM    3  H   UNL     1      -8.898   0.782 -34.357  1.00  0.00     0.278 HD
ENDROOT
BRANCH   1   4
HETATM    4  C   UNL     1     -10.035   0.051 -32.787  1.00  0.00     0.275 C 
BRANCH   4   5
HETATM    5  C   UNL     1     -11.213   0.660 -33.480  1.00  0.00     0.004 A 
HETATM    6  C   UNL     1     -11.120   1.887 -34.120  1.00  0.00     0.113 A 
HETATM    7  C   UNL     1     -12.178   2.450 -34.793  1.00  0.00     0.105 A 
HETATM    8  O   UNL     1     -10.009   2.681 -34.148  1.00  0.00    -0.322 OA
HETATM    9  C   UNL     1     -13.400   1.821 -34.872  1.00  0.00     0.040 A 
HETATM   10  O   UNL     1     -11.868   3.653 -35.339  1.00  0.00    -0.323 OA
HETATM   11  C   UNL     1     -13.533   0.579 -34.247  1.00  0.00     0.003 A 
HETATM   12  C   UNL     1     -12.449  -0.002 -33.560  1.00  0.00     0.012 A 
HETATM   13  C   UNL     1     -10.480   3.776 -34.980  1.00  0.00     0.352 A 
ENDBRANCH   4   5
ENDBRANCH   1   4
BRANCH   1  14
HETATM   14  C   UNL     1      -7.508   0.163 -32.954  1.00  0.00     0.292 C 
BRANCH  14  15
HETATM   15  C   UNL     1      -6.810   1.467 -33.233  1.00  0.00     0.190 A 
HETATM   16  N   UNL     1      -6.620   1.907 -34.488  1.00  0.00    -0.109 NA
HETATM   17  O   UNL     1      -5.996   3.146 -34.294  1.00  0.00    -0.205 OA
HETATM   18  C   UNL     1      -5.916   3.329 -32.949  1.00  0.00     0.288 A 
HETATM   19  N   UNL     1      -6.428   2.344 -32.251  1.00  0.00    -0.215 NA
ENDBRANCH  14  15
BRANCH  14  20
HETATM   20  C   UNL     1      -6.527  -0.928 -33.349  1.00  0.00    -0.020 A 
HETATM   21  C   UNL     1      -5.257  -0.970 -32.743  1.00  0.00     0.011 A 
HETATM   22  C   UNL     1      -4.345  -1.981 -33.063  1.00  0.00     0.024 A 
HETATM   23  C   UNL     1      -4.689  -2.960 -33.991  1.00  0.00     0.034 A 
HETATM   24 CL   UNL     1      -3.568  -4.202 -34.380  1.00  0.00    -0.084 Cl
HETATM   25  C   UNL     1      -5.937  -2.935 -34.606  1.00  0.00     0.024 A 
HETATM   26  C   UNL     1      -6.853  -1.927 -34.288  1.00  0.00     0.011 A 
ENDBRANCH  14  20
ENDBRANCH   1  14
TORSDOF 5
ENDMDL
MODEL 3
REMARK VINA RESULT:      -7.9      1.712      2.342
REMARK  5 active torsions:
REMARK  status: ('A' for Active; 'I' for Inactive)
REMARK    1  A    between atoms: C_8  and  C_9 
REMARK    2  A    between atoms: C_9  and  N_10 
REMARK    3  A    between atoms: N_10  and  C_13 
REMARK    4  A    between atoms: C_13  and  C_14 
REMARK    5  A    between atoms: C_13  and  C_19 
ROOT
HETATM    1  N   UNL     1      -7.276  -1.111 -33.643  1.00  0.00    -0.056 N 
HETATM    2  H   UNL     1      -8.217  -1.489 -33.828  1.00  0.00     0.278 HD
HETATM    3  H   UNL     1      -6.988  -1.571 -32.771  1.00  0.00     0.278 HD
ENDROOT
BRANCH   1   4
HETATM    4  C   UNL     1      -6.377  -1.517 -34.750  1.00  0.00     0.275 C 
BRANCH   4   5
HETATM    5  C   UNL     1      -5.475  -2.643 -34.353  1.00  0.00     0.004 A 
HETATM    6  C   UNL     1      -4.480  -2.470 -33.403  1.00  0.00     0.113 A 
HETATM    7  C   UNL     1      -3.662  -3.498 -32.996  1.00  0.00     0.105 A 
HETATM    8  O   UNL     1      -4.176  -1.292 -32.782  1.00  0.00    -0.322 OA
HETATM    9  C   UNL     1      -3.788  -4.768 -33.512  1.00  0.00     0.040 A 
HETATM   10  O   UNL     1      -2.756  -3.106 -32.064  1.00  0.00    -0.323 OA
HETATM   11  C   UNL     1      -4.785  -4.986 -34.466  1.00  0.00     0.003 A 
HETATM   12  C   UNL     1      -5.627  -3.935 -34.881  1.00  0.00     0.012 A 
HETATM   13  C   UNL     1      -3.115  -1.724 -31.886  1.00  0.00     0.352 A 
ENDBRANCH   4   5
ENDBRANCH   1   4
BRANCH   1  14
HETATM   14  C   UNL     1      -7.400   0.361 -33.390  1.00  0.00     0.292 C 
BRANCH  14  15
HETATM   15  C   UNL     1      -6.986   0.760 -31.998  1.00  0.00     0.190 A 
HETATM   16  N   UNL     1      -6.728  -0.158 -31.052  1.00  0.00    -0.109 NA
HETATM   17  O   UNL     1      -6.341   0.623 -29.956  1.00  0.00    -0.205 OA
HETATM   18  C   UNL     1      -6.372   1.917 -30.375  1.00  0.00     0.288 A 
HETATM   19  N   UNL     1      -6.732   2.056 -31.629  1.00  0.00    -0.215 NA
ENDBRANCH  14  15
BRANCH  14  20
HETATM   20  C   UNL     1      -8.819   0.876 -33.565  1.00  0.00    -0.020 A 
HETATM   21  C   UNL     1      -9.038   2.090 -34.241  1.00  0.00     0.011 A 
HETATM   22  C   UNL     1     -10.334   2.571 -34.446  1.00  0.00     0.024 A 
HETATM   23  C   UNL     1     -11.427   1.848 -33.978  1.00  0.00     0.034 A 
HETATM   24 CL   UNL     1     -13.020   2.440 -34.233  1.00  0.00    -0.084 Cl
HETATM   25  C   UNL     1     -11.235   0.647 -33.302  1.00  0.00     0.024 A 
HETATM   26  C   UNL     1      -9.940   0.160 -33.097  1.00  0.00     0.011 A 
ENDBRANCH  14  20
ENDBRANCH   1  14
TORSDOF 5
ENDMDL
MODEL 4
REMARK VINA RESULT:      -7.9      3.659      7.070
REMARK  5 active torsions:
REMARK  status: ('A' for Active; 'I' for Inactive)
REMARK    1  A    between atoms: C_8  and  C_9 
REMARK    2  A    between atoms: C_9  and  N_10 
REMARK    3  A    between atoms: N_10  and  C_13 
REMARK    4  A    between atoms: C_13  and  C_14 
REMARK    5  A    between atoms: C_13  and  C_19 
ROOT
HETATM    1  N   UNL     1      -8.850  -0.049 -33.463  1.00  0.00    -0.056 N 
HETATM    2  H   UNL     1      -9.019  -1.059 -33.574  1.00  0.00     0.278 HD
HETATM    3  H   UNL     1      -8.795   0.303 -34.426  1.00  0.00     0.278 HD
ENDROOT
BRANCH   1   4
HETATM    4  C   UNL     1     -10.016   0.553 -32.771  1.00  0.00     0.275 C 
BRANCH   4   5
HETATM    5  C   UNL     1     -10.848   1.383 -33.696  1.00  0.00     0.004 A 
HETATM    6  C   UNL     1     -12.174   1.067 -33.954  1.00  0.00     0.113 A 
HETATM    7  C   UNL     1     -12.969   1.835 -34.772  1.00  0.00     0.105 A 
HETATM    8  O   UNL     1     -12.836  -0.022 -33.464  1.00  0.00    -0.322 OA
HETATM    9  C   UNL     1     -12.491   2.971 -35.384  1.00  0.00     0.040 A 
HETATM   10  O   UNL     1     -14.228   1.339 -34.889  1.00  0.00    -0.323 OA
HETATM   11  C   UNL     1     -11.163   3.329 -35.143  1.00  0.00     0.003 A 
HETATM   12  C   UNL     1     -10.347   2.547 -34.302  1.00  0.00     0.012 A 
HETATM   13  C   UNL     1     -14.163   0.195 -34.019  1.00  0.00     0.352 A 
ENDBRANCH   4   5
ENDBRANCH   1   4
BRANCH   1  14
HETATM   14  C   UNL     1      -7.516   0.139 -32.807  1.00  0.00     0.292 C 
BRANCH  14  15
HETATM   15  C   UNL     1      -6.863   1.450 -33.154  1.00  0.00     0.190 A 
HETATM   16  N   UNL     1      -6.680   1.828 -34.430  1.00  0.00    -0.109 NA
HETATM   17  O   UNL     1      -6.103   3.097 -34.301  1.00  0.00    -0.205 OA
HETATM   18  C   UNL     1      -6.039   3.357 -32.968  1.00  0.00     0.288 A 
HETATM   19  N   UNL     1      -6.519   2.393 -32.220  1.00  0.00    -0.215 NA
ENDBRANCH  14  15
BRANCH  14  20
HETATM   20  C   UNL     1      -6.513  -0.938 -33.187  1.00  0.00    -0.020 A 
HETATM   21  C   UNL     1      -6.862  -1.902 -34.151  1.00  0.00     0.011 A 
HETATM   22  C   UNL     1      -5.948  -2.884 -34.544  1.00  0.00     0.024 A 
HETATM   23  C   UNL     1      -4.676  -2.918 -33.979  1.00  0.00     0.034 A 
HETATM   24 CL   UNL     1      -3.555  -4.125 -34.465  1.00  0.00    -0.084 Cl
HETATM   25  C   UNL     1      -4.311  -1.978 -33.020  1.00  0.00     0.024 A 
HETATM   26  C   UNL     1      -5.221  -0.991 -32.626  1.00  0.00     0.011 A 
ENDBRANCH  14  20
ENDBRANCH   1  14
TORSDOF 5
ENDMDL
MODEL 5
REMARK VINA RESULT:      -7.9      3.320      7.071
REMARK  5 active torsions:
REMARK  status: ('A' for Active; 'I' for Inactive)
REMARK    1  A    between atoms: C_8  and  C_9 
REMARK    2  A    between atoms: C_9  and  N_10 
REMARK    3  A    between atoms: N_10  and  C_13 
REMARK    4  A    between atoms: C_13  and  C_14 
REMARK    5  A    between atoms: C_13  and  C_19 
ROOT
HETATM    1  N   UNL     1      -5.424   1.839 -32.546  1.00  0.00    -0.056 N 
HETATM    2  H   UNL     1      -4.411   1.722 -32.695  1.00  0.00     0.278 HD
HETATM    3  H   UNL     1      -5.578   1.494 -31.591  1.00  0.00     0.278 HD
ENDROOT
BRANCH   1   4
HETATM    4  C   UNL     1      -5.749   3.284 -32.620  1.00  0.00     0.275 C 
BRANCH   4   5
HETATM    5  C   UNL     1      -4.683   4.062 -33.324  1.00  0.00     0.004 A 
HETATM    6  C   UNL     1      -3.449   4.294 -32.734  1.00  0.00     0.113 A 
HETATM    7  C   UNL     1      -2.441   4.976 -33.375  1.00  0.00     0.105 A 
HETATM    8  O   UNL     1      -3.091   3.909 -31.473  1.00  0.00    -0.322 OA
HETATM    9  C   UNL     1      -2.600   5.467 -34.651  1.00  0.00     0.040 A 
HETATM   10  O   UNL     1      -1.324   5.093 -32.613  1.00  0.00    -0.323 OA
HETATM   11  C   UNL     1      -3.825   5.246 -35.284  1.00  0.00     0.003 A 
HETATM   12  C   UNL     1      -4.858   4.546 -34.631  1.00  0.00     0.012 A 
HETATM   13  C   UNL     1      -1.713   4.371 -31.430  1.00  0.00     0.352 A 
ENDBRANCH   4   5
ENDBRANCH   1   4
BRANCH   1  14
HETATM   14  C   UNL     1      -6.149   0.942 -33.502  1.00  0.00     0.292 C 
BRANCH  14  15
HETATM   15  C   UNL     1      -7.593   0.729 -33.135  1.00  0.00     0.190 A 
HETATM   16  N   UNL     1      -7.959   0.393 -31.887  1.00  0.00    -0.109 NA
HETATM   17  O   UNL     1      -9.356   0.346 -31.972  1.00  0.00    -0.205 OA
HETATM   18  C   UNL     1      -9.676   0.695 -33.247  1.00  0.00     0.288 A 
HETATM   19  N   UNL     1      -8.634   0.969 -33.996  1.00  0.00    -0.215 NA
ENDBRANCH  14  15
BRANCH  14  20
HETATM   20  C   UNL     1      -5.535  -0.445 -33.596  1.00  0.00    -0.020 A 
HETATM   21  C   UNL     1      -6.049  -1.370 -34.523  1.00  0.00     0.011 A 
HETATM   22  C   UNL     1      -5.483  -2.641 -34.654  1.00  0.00     0.024 A 
HETATM   23  C   UNL     1      -4.398  -3.006 -33.861  1.00  0.00     0.034 A 
HETATM   24 CL   UNL     1      -3.703  -4.567 -34.025  1.00  0.00    -0.084 Cl
HETATM   25  C   UNL     1      -3.876  -2.108 -32.934  1.00  0.00     0.024 A 
HETATM   26  C   UNL     1      -4.438  -0.834 -32.801  1.00  0.00     0.011 A 
ENDBRANCH  14  20
ENDBRANCH   1  14
TORSDOF 5
ENDMDL
MODEL 6
REMARK VINA RESULT:      -7.8      1.302      2.235
REMARK  5 active torsions:
REMARK  status: ('A' for Active; 'I' for Inactive)
REMARK    1  A    between atoms: C_8  and  C_9 
REMARK    2  A    between atoms: C_9  and  N_10 
REMARK    3  A    between atoms: N_10  and  C_13 
REMARK    4  A    between atoms: C_13  and  C_14 
REMARK    5  A    between atoms: C_13  and  C_19 
ROOT
HETATM    1  N   UNL     1      -5.201  -0.158 -32.415  1.00  0.00    -0.056 N 
HETATM    2  H   UNL     1      -5.924  -0.815 -32.089  1.00  0.00     0.278 HD
HETATM    3  H   UNL     1      -4.598  -0.021 -31.594  1.00  0.00     0.278 HD
ENDROOT
BRANCH   1   4
HETATM    4  C   UNL     1      -4.432  -0.802 -33.505  1.00  0.00     0.275 C 
BRANCH   4   5
HETATM    5  C   UNL     1      -5.152  -1.983 -34.076  1.00  0.00     0.004 A 
HETATM    6  C   UNL     1      -4.639  -3.267 -33.961  1.00  0.00     0.113 A 
HETATM    7  C   UNL     1      -5.300  -4.371 -34.446  1.00  0.00     0.105 A 
HETATM    8  O   UNL     1      -3.442  -3.591 -33.389  1.00  0.00    -0.322 OA
HETATM    9  C   UNL     1      -6.519  -4.264 -35.076  1.00  0.00     0.040 A 
HETATM   10  O   UNL     1      -4.616  -5.523 -34.230  1.00  0.00    -0.323 OA
HETATM   11  C   UNL     1      -7.074  -2.988 -35.205  1.00  0.00     0.003 A 
HETATM   12  C   UNL     1      -6.401  -1.856 -34.706  1.00  0.00     0.012 A 
HETATM   13  C   UNL     1      -3.467  -5.039 -33.513  1.00  0.00     0.352 A 
ENDBRANCH   4   5
ENDBRANCH   1   4
BRANCH   1  14
HETATM   14  C   UNL     1      -5.862   1.146 -32.745  1.00  0.00     0.292 C 
BRANCH  14  15
HETATM   15  C   UNL     1      -5.728   2.172 -31.652  1.00  0.00     0.190 A 
HETATM   16  N   UNL     1      -5.194   1.863 -30.459  1.00  0.00    -0.109 NA
HETATM   17  O   UNL     1      -5.214   3.087 -29.779  1.00  0.00    -0.205 OA
HETATM   18  C   UNL     1      -5.720   4.001 -30.649  1.00  0.00     0.288 A 
HETATM   19  N   UNL     1      -6.024   3.500 -31.822  1.00  0.00    -0.215 NA
ENDBRANCH  14  15
BRANCH  14  20
HETATM   20  C   UNL     1      -7.353   1.006 -33.003  1.00  0.00    -0.020 A 
HETATM   21  C   UNL     1      -8.167   0.378 -32.042  1.00  0.00     0.011 A 
HETATM   22  C   UNL     1      -9.547   0.264 -32.238  1.00  0.00     0.024 A 
HETATM   23  C   UNL     1     -10.130   0.773 -33.395  1.00  0.00     0.034 A 
HETATM   24 CL   UNL     1     -11.825   0.634 -33.632  1.00  0.00    -0.084 Cl
HETATM   25  C   UNL     1      -9.343   1.394 -34.361  1.00  0.00     0.024 A 
HETATM   26  C   UNL     1      -7.963   1.513 -34.168  1.00  0.00     0.011 A 
ENDBRANCH  14  20
ENDBRANCH   1  14
TORSDOF 5
ENDMDL
MODEL 7
REMARK VINA RESULT:      -7.6      2.604      3.882
REMARK  5 active torsions:
REMARK  status: ('A' for Active; 'I' for Inactive)
REMARK    1  A    between atoms: C_8  and  C_9 
REMARK    2  A    between atoms: C_9  and  N_10 
REMARK    3  A    between atoms: N_10  and  C_13 
REMARK    4  A    between atoms: C_13  and  C_14 
REMARK    5  A    between atoms: C_13  and  C_19 
ROOT
HETATM    1  N   UNL     1      -8.693   0.340 -33.850  1.00  0.00    -0.056 N 
HETATM    2  H   UNL     1      -9.364  -0.431 -33.721  1.00  0.00     0.278 HD
HETATM    3  H   UNL     1      -8.163   0.361 -32.970  1.00  0.00     0.278 HD
ENDROOT
BRANCH   1   4
HETATM    4  C   UNL     1      -7.790  -0.001 -34.975  1.00  0.00     0.275 C 
BRANCH   4   5
HETATM    5  C   UNL     1      -6.514  -0.621 -34.501  1.00  0.00     0.004 A 
HETATM    6  C   UNL     1      -5.634   0.074 -33.684  1.00  0.00     0.113 A 
HETATM    7  C   UNL     1      -4.473  -0.487 -33.206  1.00  0.00     0.105 A 
HETATM    8  O   UNL     1      -5.788   1.368 -33.277  1.00  0.00    -0.322 OA
HETATM    9  C   UNL     1      -4.117  -1.781 -33.512  1.00  0.00     0.040 A 
HETATM   10  O   UNL     1      -3.760   0.370 -32.432  1.00  0.00    -0.323 OA
HETATM   11  C   UNL     1      -4.981  -2.518 -34.326  1.00  0.00     0.003 A 
HETATM   12  C   UNL     1      -6.173  -1.947 -34.814  1.00  0.00     0.012 A 
HETATM   13  C   UNL     1      -4.617   1.526 -32.429  1.00  0.00     0.352 A 
ENDBRANCH   4   5
ENDBRANCH   1   4
BRANCH   1  14
HETATM   14  C   UNL     1      -9.463   1.620 -33.975  1.00  0.00     0.292 C 
BRANCH  14  15
HETATM   15  C   UNL     1      -9.303   2.527 -32.785  1.00  0.00     0.190 A 
HETATM   16  N   UNL     1      -9.057   3.839 -32.929  1.00  0.00    -0.109 NA
HETATM   17  O   UNL     1      -9.033   4.301 -31.607  1.00  0.00    -0.205 OA
HETATM   18  C   UNL     1      -9.306   3.226 -30.819  1.00  0.00     0.288 A 
HETATM   19  N   UNL     1      -9.509   2.118 -31.492  1.00  0.00    -0.215 NA
ENDBRANCH  14  15
BRANCH  14  20
HETATM   20  C   UNL     1     -10.958   1.399 -34.133  1.00  0.00    -0.020 A 
HETATM   21  C   UNL     1     -11.569   0.308 -33.489  1.00  0.00     0.011 A 
HETATM   22  C   UNL     1     -12.948   0.099 -33.589  1.00  0.00     0.024 A 
HETATM   23  C   UNL     1     -13.732   0.975 -34.336  1.00  0.00     0.034 A 
HETATM   24 CL   UNL     1     -15.426   0.717 -34.456  1.00  0.00    -0.084 Cl
HETATM   25  C   UNL     1     -13.148   2.058 -34.986  1.00  0.00     0.024 A 
HETATM   26  C   UNL     1     -11.769   2.272 -34.886  1.00  0.00     0.011 A 
ENDBRANCH  14  20
ENDBRANCH   1  14
TORSDOF 5
ENDMDL
MODEL 8
REMARK VINA RESULT:      -7.5      4.360      8.110
REMARK  5 active torsions:
REMARK  status: ('A' for Active; 'I' for Inactive)
REMARK    1  A    between atoms: C_8  and  C_9 
REMARK    2  A    between atoms: C_9  and  N_10 
REMARK    3  A    between atoms: N_10  and  C_13 
REMARK    4  A    between atoms: C_13  and  C_14 
REMARK    5  A    between atoms: C_13  and  C_19 
ROOT
HETATM    1  N   UNL     1      -3.430   3.155 -32.049  1.00  0.00    -0.056 N 
HETATM    2  H   UNL     1      -2.812   2.630 -31.412  1.00  0.00     0.278 HD
HETATM    3  H   UNL     1      -3.777   3.933 -31.476  1.00  0.00     0.278 HD
ENDROOT
BRANCH   1   4
HETATM    4  C   UNL     1      -2.617   3.677 -33.173  1.00  0.00     0.275 C 
BRANCH   4   5
HETATM    5  C   UNL     1      -2.086   5.047 -32.889  1.00  0.00     0.004 A 
HETATM    6  C   UNL     1      -1.221   5.281 -31.830  1.00  0.00     0.113 A 
HETATM    7  C   UNL     1      -0.692   6.524 -31.571  1.00  0.00     0.105 A 
HETATM    8  O   UNL     1      -0.812   4.347 -30.923  1.00  0.00    -0.322 OA
HETATM    9  C   UNL     1      -0.991   7.614 -32.357  1.00  0.00     0.040 A 
HETATM   10  O   UNL     1       0.123   6.527 -30.486  1.00  0.00    -0.323 OA
HETATM   11  C   UNL     1      -1.852   7.418 -33.440  1.00  0.00     0.003 A 
HETATM   12  C   UNL     1      -2.392   6.146 -33.709  1.00  0.00     0.012 A 
HETATM   13  C   UNL     1       0.093   5.140 -30.107  1.00  0.00     0.352 A 
ENDBRANCH   4   5
ENDBRANCH   1   4
BRANCH   1  14
HETATM   14  C   UNL     1      -4.587   2.276 -32.415  1.00  0.00     0.292 C 
BRANCH  14  15
HETATM   15  C   UNL     1      -5.775   2.452 -31.507  1.00  0.00     0.190 A 
HETATM   16  N   UNL     1      -5.639   2.497 -30.172  1.00  0.00    -0.109 NA
HETATM   17  O   UNL     1      -6.950   2.716 -29.730  1.00  0.00    -0.205 OA
HETATM   18  C   UNL     1      -7.720   2.817 -30.846  1.00  0.00     0.288 A 
HETATM   19  N   UNL     1      -7.046   2.692 -31.965  1.00  0.00    -0.215 NA
ENDBRANCH  14  15
BRANCH  14  20
HETATM   20  C   UNL     1      -4.245   0.796 -32.370  1.00  0.00    -0.020 A 
HETATM   21  C   UNL     1      -5.011  -0.116 -33.121  1.00  0.00     0.011 A 
HETATM   22  C   UNL     1      -4.699  -1.479 -33.124  1.00  0.00     0.024 A 
HETATM   23  C   UNL     1      -3.621  -1.948 -32.378  1.00  0.00     0.034 A 
HETATM   24 CL   UNL     1      -3.239  -3.623 -32.386  1.00  0.00    -0.084 Cl
HETATM   25  C   UNL     1      -2.854  -1.065 -31.623  1.00  0.00     0.024 A 
HETATM   26  C   UNL     1      -3.160   0.299 -31.619  1.00  0.00     0.011 A 
ENDBRANCH  14  20
ENDBRANCH   1  14
TORSDOF 5
ENDMDL
MODEL 9
REMARK VINA RESULT:      -7.5      3.322      6.504
REMARK  5 active torsions:
REMARK  status: ('A' for Active; 'I' for Inactive)
REMARK    1  A    between atoms: C_8  and  C_9 
REMARK    2  A    between atoms: C_9  and  N_10 
REMARK    3  A    between atoms: N_10  and  C_13 
REMARK    4  A    between atoms: C_13  and  C_14 
REMARK    5  A    between atoms: C_13  and  C_19 
ROOT
HETATM    1  N   UNL     1      -6.502   1.831 -34.704  1.00  0.00    -0.056 N 
HETATM    2  H   UNL     1      -6.833   2.446 -35.462  1.00  0.00     0.278 HD
HETATM    3  H   UNL     1      -5.517   1.654 -34.937  1.00  0.00     0.278 HD
ENDROOT
BRANCH   1   4
HETATM    4  C   UNL     1      -6.593   2.568 -33.422  1.00  0.00     0.275 C 
BRANCH   4   5
HETATM    5  C   UNL     1      -5.247   2.974 -32.912  1.00  0.00     0.004 A 
HETATM    6  C   UNL     1      -4.479   3.921 -33.576  1.00  0.00     0.113 A 
HETATM    7  C   UNL     1      -3.255   4.336 -33.108  1.00  0.00     0.105 A 
HETATM    8  O   UNL     1      -4.817   4.528 -34.751  1.00  0.00    -0.322 OA
HETATM    9  C   UNL     1      -2.718   3.834 -31.944  1.00  0.00     0.040 A 
HETATM   10  O   UNL     1      -2.676   5.262 -33.915  1.00  0.00    -0.323 OA
HETATM   11  C   UNL     1      -3.464   2.885 -31.241  1.00  0.00     0.003 A 
HETATM   12  C   UNL     1      -4.720   2.460 -31.716  1.00  0.00     0.012 A 
HETATM   13  C   UNL     1      -3.686   5.427 -34.926  1.00  0.00     0.352 A 
ENDBRANCH   4   5
ENDBRANCH   1   4
BRANCH   1  14
HETATM   14  C   UNL     1      -7.252   0.536 -34.785  1.00  0.00     0.292 C 
BRANCH  14  15
HETATM   15  C   UNL     1      -8.374   0.437 -33.786  1.00  0.00     0.190 A 
HETATM   16  N   UNL     1      -8.148   0.094 -32.507  1.00  0.00    -0.109 NA
HETATM   17  O   UNL     1      -9.422   0.172 -31.932  1.00  0.00    -0.205 OA
HETATM   18  C   UNL     1     -10.264   0.589 -32.916  1.00  0.00     0.288 A 
HETATM   19  N   UNL     1      -9.668   0.796 -34.066  1.00  0.00    -0.215 NA
ENDBRANCH  14  15
BRANCH  14  20
HETATM   20  C   UNL     1      -6.370  -0.677 -34.540  1.00  0.00    -0.020 A 
HETATM   21  C   UNL     1      -5.148  -0.519 -33.858  1.00  0.00     0.011 A 
HETATM   22  C   UNL     1      -4.332  -1.621 -33.590  1.00  0.00     0.024 A 
HETATM   23  C   UNL     1      -4.722  -2.893 -34.000  1.00  0.00     0.034 A 
HETATM   24 CL   UNL     1      -3.718  -4.247 -33.667  1.00  0.00    -0.084 Cl
HETATM   25  C   UNL     1      -5.923  -3.072 -34.680  1.00  0.00     0.024 A 
HETATM   26  C   UNL     1      -6.745  -1.973 -34.948  1.00  0.00     0.011 A 
ENDBRANCH  14  20
ENDBRANCH   1  14
TORSDOF 5
ENDMDL
MODEL 10
REMARK VINA RESULT:      -7.4      3.659      5.619
REMARK  5 active torsions:
REMARK  status: ('A' for Active; 'I' for Inactive)
REMARK    1  A    between atoms: C_8  and  C_9 
REMARK    2  A    between atoms: C_9  and  N_10 
REMARK    3  A    between atoms: N_10  and  C_13 
REMARK    4  A    between atoms: C_13  and  C_14 
REMARK    5  A    between atoms: C_13  and  C_19 
ROOT
HETATM    1  N   UNL     1      -6.416   2.125 -34.135  1.00  0.00    -0.056 N 
HETATM    2  H   UNL     1      -5.559   1.824 -34.621  1.00  0.00     0.278 HD
HETATM    3  H   UNL     1      -7.004   2.513 -34.882  1.00  0.00     0.278 HD
ENDROOT
BRANCH   1   4
HETATM    4  C   UNL     1      -7.070   0.933 -33.545  1.00  0.00     0.275 C 
BRANCH   4   5
HETATM    5  C   UNL     1      -6.273  -0.313 -33.773  1.00  0.00     0.004 A 
HETATM    6  C   UNL     1      -5.096  -0.554 -33.079  1.00  0.00     0.113 A 
HETATM    7  C   UNL     1      -4.365  -1.707 -33.246  1.00  0.00     0.105 A 
HETATM    8  O   UNL     1      -4.516   0.301 -32.187  1.00  0.00    -0.322 OA
HETATM    9  C   UNL     1      -4.765  -2.696 -34.115  1.00  0.00     0.040 A 
HETATM   10  O   UNL     1      -3.249  -1.732 -32.474  1.00  0.00    -0.323 OA
HETATM   11  C   UNL     1      -5.950  -2.496 -34.827  1.00  0.00     0.003 A 
HETATM   12  C   UNL     1      -6.702  -1.317 -34.656  1.00  0.00     0.012 A 
HETATM   13  C   UNL     1      -3.370  -0.487 -31.762  1.00  0.00     0.352 A 
ENDBRANCH   4   5
ENDBRANCH   1   4
BRANCH   1  14
HETATM   14  C   UNL     1      -6.059   3.228 -33.185  1.00  0.00     0.292 C 
BRANCH  14  15
HETATM   15  C   UNL     1      -7.104   4.309 -33.112  1.00  0.00     0.190 A 
HETATM   16  N   UNL     1      -7.138   5.186 -32.095  1.00  0.00    -0.109 NA
HETATM   17  O   UNL     1      -8.206   6.024 -32.439  1.00  0.00    -0.205 OA
HETATM   18  C   UNL     1      -8.668   5.584 -33.640  1.00  0.00     0.288 A 
HETATM   19  N   UNL     1      -8.009   4.553 -34.113  1.00  0.00    -0.215 NA
ENDBRANCH  14  15
BRANCH  14  20
HETATM   20  C   UNL     1      -4.761   3.929 -33.552  1.00  0.00    -0.020 A 
HETATM   21  C   UNL     1      -3.603   3.688 -32.788  1.00  0.00     0.011 A 
HETATM   22  C   UNL     1      -2.388   4.293 -33.122  1.00  0.00     0.024 A 
HETATM   23  C   UNL     1      -2.313   5.146 -34.220  1.00  0.00     0.034 A 
HETATM   24 CL   UNL     1      -0.818   5.886 -34.630  1.00  0.00    -0.084 Cl
HETATM   25  C   UNL     1      -3.446   5.402 -34.987  1.00  0.00     0.024 A 
HETATM   26  C   UNL     1      -4.664   4.797 -34.658  1.00  0.00     0.011 A 
ENDBRANCH  14  20
ENDBRANCH   1  14
TORSDOF 5
ENDMDL
