MODEL 1
REMARK VINA RESULT:      -9.3      0.000      0.000
REMARK  8 active torsions:
REMARK  status: ('A' for Active; 'I' for Inactive)
REMARK    1  A    between atoms: O_2  and  C_3 
REMARK    2  A    between atoms: C_5  and  N_6 
REMARK       I    between atoms: N_6  and  C_7 
REMARK    3  A    between atoms: C_7  and  C_8 
REMARK    4  A    between atoms: C_8  and  N_9 
REMARK    5  A    between atoms: C_8  and  C_25 
REMARK    6  A    between atoms: N_9  and  C_12 
REMARK    7  A    between atoms: C_12  and  C_13 
REMARK    8  A    between atoms: C_16  and  N_17 
ROOT
HETATM    1  C   UNL     1      -6.609  -0.035 -33.326  1.00  0.00     0.310 C 
ENDROOT
BRANCH   1   2
HETATM    2  C   UNL     1      -7.644   0.721 -34.199  1.00  0.00     0.257 C 
HETATM    3  N   UNL     1      -8.748   1.221 -33.544  1.00  0.00    -0.325 N 
HETATM    4  H   UNL     1      -8.823   1.083 -32.540  1.00  0.00     0.169 HD
HETATM    5  O   UNL     1      -7.417   0.760 -35.411  1.00  0.00    -0.270 OA
BRANCH   3   6
HETATM    6  C   UNL     1      -9.807   1.964 -34.118  1.00  0.00     0.037 A 
HETATM    7  C   UNL     1     -11.037   1.417 -34.488  1.00  0.00     0.066 A 
HETATM    8  C   UNL     1     -12.035   2.208 -35.074  1.00  0.00     0.070 A 
HETATM    9  C   UNL     1     -11.805   3.567 -35.274  1.00  0.00     0.037 A 
HETATM   10  C   UNL     1     -10.581   4.126 -34.903  1.00  0.00     0.005 A 
HETATM   11  C   UNL     1      -9.586   3.329 -34.334  1.00  0.00     0.029 A 
BRANCH   8  12
HETATM   12  O   UNL     1     -13.178   1.530 -35.399  1.00  0.00    -0.356 OA
HETATM   13  C   UNL     1     -13.848   0.848 -34.344  1.00  0.00     0.210 C 
ENDBRANCH   8  12
ENDBRANCH   3   6
ENDBRANCH   1   2
BRANCH   1  14
HETATM   14  N   UNL     1      -7.187  -0.152 -31.935  1.00  0.00    -0.054 N 
HETATM   15  H   UNL     1      -8.012   0.475 -31.923  1.00  0.00     0.278 HD
HETATM   16  H   UNL     1      -7.611  -1.080 -31.818  1.00  0.00     0.278 HD
BRANCH  14  17
HETATM   17  C   UNL     1      -6.307   0.150 -30.787  1.00  0.00     0.272 C 
BRANCH  17  18
HETATM   18  C   UNL     1      -5.353   1.242 -31.175  1.00  0.00    -0.033 A 
HETATM   19  C   UNL     1      -5.800   2.557 -31.325  1.00  0.00     0.011 A 
HETATM   20  C   UNL     1      -4.946   3.542 -31.838  1.00  0.00     0.030 A 
HETATM   21  C   UNL     1      -3.633   3.247 -32.224  1.00  0.00     0.037 A 
HETATM   22  C   UNL     1      -3.184   1.933 -32.028  1.00  0.00     0.030 A 
HETATM   23  C   UNL     1      -4.030   0.941 -31.517  1.00  0.00     0.011 A 
BRANCH  21  24
HETATM   24  N   UNL     1      -2.786   4.225 -32.812  1.00  0.00    -0.318 N 
HETATM   25  C   UNL     1      -1.636   4.782 -32.228  1.00  0.00     0.224 C 
HETATM   26  O   UNL     1      -1.112   4.516 -31.157  1.00  0.00    -0.273 OA
HETATM   27  C   UNL     1      -1.153   5.898 -33.126  1.00  0.00     0.105 C 
HETATM   28  C   UNL     1      -1.836   5.603 -34.446  1.00  0.00     0.029 C 
HETATM   29  C   UNL     1      -3.123   4.924 -34.032  1.00  0.00     0.133 C 
ENDBRANCH  21  24
ENDBRANCH  17  18
ENDBRANCH  14  17
ENDBRANCH   1  14
BRANCH   1  30
HETATM   30  C   UNL     1      -6.214  -1.387 -33.870  1.00  0.00    -0.019 A 
HETATM   31  C   UNL     1      -4.859  -1.751 -33.931  1.00  0.00     0.010 A 
HETATM   32  C   UNL     1      -4.485  -3.007 -34.412  1.00  0.00     0.001 A 
HETATM   33  C   UNL     1      -5.456  -3.912 -34.831  1.00  0.00     0.000 A 
HETATM   34  C   UNL     1      -6.803  -3.567 -34.772  1.00  0.00     0.001 A 
HETATM   35  C   UNL     1      -7.184  -2.314 -34.294  1.00  0.00     0.010 A 
ENDBRANCH   1  30
TORSDOF 8
ENDMDL
MODEL 2
REMARK VINA RESULT:      -9.3      1.087      1.766
REMARK  8 active torsions:
REMARK  status: ('A' for Active; 'I' for Inactive)
REMARK    1  A    between atoms: O_2  and  C_3 
REMARK    2  A    between atoms: C_5  and  N_6 
REMARK       I    between atoms: N_6  and  C_7 
REMARK    3  A    between atoms: C_7  and  C_8 
REMARK    4  A    between atoms: C_8  and  N_9 
REMARK    5  A    between atoms: C_8  and  C_25 
REMARK    6  A    between atoms: N_9  and  C_12 
REMARK    7  A    between atoms: C_12  and  C_13 
REMARK    8  A    between atoms: C_16  and  N_17 
ROOT
HETATM    1  C   UNL     1      -6.407   0.041 -33.560  1.00  0.00     0.310 C 
ENDROOT
BRANCH   1   2
HETATM    2  C   UNL     1      -7.529   0.723 -34.384  1.00  0.00     0.257 C 
HETATM    3  N   UNL     1      -8.605   1.204 -33.671  1.00  0.00    -0.325 N 
HETATM    4  H   UNL     1      -8.606   1.101 -32.660  1.00  0.00     0.169 HD
HETATM    5  O   UNL     1      -7.388   0.726 -35.610  1.00  0.00    -0.270 OA
BRANCH   3   6
HETATM    6  C   UNL     1      -9.731   1.884 -34.194  1.00  0.00     0.037 A 
HETATM    7  C   UNL     1     -10.956   1.274 -34.471  1.00  0.00     0.066 A 
HETATM    8  C   UNL     1     -12.023   2.004 -35.011  1.00  0.00     0.070 A 
HETATM    9  C   UNL     1     -11.868   3.365 -35.260  1.00  0.00     0.037 A 
HETATM   10  C   UNL     1     -10.650   3.987 -34.983  1.00  0.00     0.005 A 
HETATM   11  C   UNL     1      -9.585   3.251 -34.458  1.00  0.00     0.029 A 
BRANCH   8  12
HETATM   12  O   UNL     1     -13.152   1.268 -35.245  1.00  0.00    -0.356 OA
HETATM   13  C   UNL     1     -14.158   1.289 -34.238  1.00  0.00     0.210 C 
ENDBRANCH   8  12
ENDBRANCH   3   6
ENDBRANCH   1   2
BRANCH   1  14
HETATM   14  N   UNL     1      -6.806   0.108 -32.104  1.00  0.00    -0.054 N 
HETATM   15  H   UNL     1      -7.646   0.714 -32.075  1.00  0.00     0.278 HD
HETATM   16  H   UNL     1      -7.178  -0.803 -31.810  1.00  0.00     0.278 HD
BRANCH  14  17
HETATM   17  C   UNL     1      -5.805   0.585 -31.128  1.00  0.00     0.272 C 
BRANCH  17  18
HETATM   18  C   UNL     1      -5.113   1.794 -31.687  1.00  0.00    -0.033 A 
HETATM   19  C   UNL     1      -3.751   1.758 -31.991  1.00  0.00     0.011 A 
HETATM   20  C   UNL     1      -3.075   2.928 -32.361  1.00  0.00     0.030 A 
HETATM   21  C   UNL     1      -3.730   4.164 -32.430  1.00  0.00     0.037 A 
HETATM   22  C   UNL     1      -5.107   4.178 -32.165  1.00  0.00     0.030 A 
HETATM   23  C   UNL     1      -5.791   3.014 -31.793  1.00  0.00     0.011 A 
BRANCH  21  24
HETATM   24  N   UNL     1      -3.036   5.366 -32.735  1.00  0.00    -0.318 N 
HETATM   25  C   UNL     1      -3.020   6.020 -33.978  1.00  0.00     0.224 C 
HETATM   26  O   UNL     1      -3.620   5.735 -35.003  1.00  0.00    -0.273 OA
HETATM   27  C   UNL     1      -2.021   7.151 -33.896  1.00  0.00     0.105 C 
HETATM   28  C   UNL     1      -1.844   7.351 -32.404  1.00  0.00     0.029 C 
HETATM   29  C   UNL     1      -2.079   5.969 -31.834  1.00  0.00     0.133 C 
ENDBRANCH  21  24
ENDBRANCH  17  18
ENDBRANCH  14  17
ENDBRANCH   1  14
BRANCH   1  30
HETATM   30  C   UNL     1      -6.109  -1.379 -33.981  1.00  0.00    -0.019 A 
HETATM   31  C   UNL     1      -7.162  -2.267 -34.250  1.00  0.00     0.010 A 
HETATM   32  C   UNL     1      -6.897  -3.575 -34.660  1.00  0.00     0.001 A 
HETATM   33  C   UNL     1      -5.582  -4.008 -34.809  1.00  0.00     0.000 A 
HETATM   34  C   UNL     1      -4.527  -3.137 -34.549  1.00  0.00     0.001 A 
HETATM   35  C   UNL     1      -4.785  -1.829 -34.139  1.00  0.00     0.010 A 
ENDBRANCH   1  30
TORSDOF 8
ENDMDL
MODEL 3
REMARK VINA RESULT:      -9.0      1.755      5.492
REMARK  8 active torsions:
REMARK  status: ('A' for Active; 'I' for Inactive)
REMARK    1  A    between atoms: O_2  and  C_3 
REMARK    2  A    between atoms: C_5  and  N_6 
REMARK       I    between atoms: N_6  and  C_7 
REMARK    3  A    between atoms: C_7  and  C_8 
REMARK    4  A    between atoms: C_8  and  N_9 
REMARK    5  A    between atoms: C_8  and  C_25 
REMARK    6  A    between atoms: N_9  and  C_12 
REMARK    7  A    between atoms: C_12  and  C_13 
REMARK    8  A    between atoms: C_16  and  N_17 
ROOT
HETATM    1  C   UNL     1      -9.567   1.615 -32.660  1.00  0.00     0.310 C 
ENDROOT
BRANCH   1   2
HETATM    2  C   UNL     1      -8.334   0.989 -33.359  1.00  0.00     0.257 C 
HETATM    3  N   UNL     1      -7.721  -0.055 -32.701  1.00  0.00    -0.325 N 
HETATM    4  H   UNL     1      -8.106  -0.364 -31.814  1.00  0.00     0.169 HD
HETATM    5  O   UNL     1      -7.974   1.515 -34.417  1.00  0.00    -0.270 OA
BRANCH   3   6
HETATM    6  C   UNL     1      -6.604  -0.799 -33.151  1.00  0.00     0.037 A 
HETATM    7  C   UNL     1      -6.665  -1.785 -34.138  1.00  0.00     0.066 A 
HETATM    8  C   UNL     1      -5.521  -2.500 -34.519  1.00  0.00     0.070 A 
HETATM    9  C   UNL     1      -4.299  -2.211 -33.918  1.00  0.00     0.037 A 
HETATM   10  C   UNL     1      -4.225  -1.224 -32.933  1.00  0.00     0.005 A 
HETATM   11  C   UNL     1      -5.371  -0.526 -32.547  1.00  0.00     0.029 A 
BRANCH   8  12
HETATM   12  O   UNL     1      -5.739  -3.444 -35.484  1.00  0.00    -0.356 OA
HETATM   13  C   UNL     1      -6.654  -4.489 -35.171  1.00  0.00     0.210 C 
ENDBRANCH   8  12
ENDBRANCH   3   6
ENDBRANCH   1   2
BRANCH   1  14
HETATM   14  N   UNL     1      -9.187   3.017 -32.240  1.00  0.00    -0.054 N 
HETATM   15  H   UNL     1      -8.734   3.442 -33.069  1.00  0.00     0.278 HD
HETATM   16  H   UNL     1     -10.037   3.584 -32.134  1.00  0.00     0.278 HD
BRANCH  14  17
HETATM   17  C   UNL     1      -8.322   3.178 -31.053  1.00  0.00     0.272 C 
BRANCH  17  18
HETATM   18  C   UNL     1      -6.978   3.681 -31.491  1.00  0.00    -0.033 A 
HETATM   19  C   UNL     1      -6.849   4.934 -32.095  1.00  0.00     0.011 A 
HETATM   20  C   UNL     1      -5.624   5.334 -32.646  1.00  0.00     0.030 A 
HETATM   21  C   UNL     1      -4.500   4.500 -32.618  1.00  0.00     0.037 A 
HETATM   22  C   UNL     1      -4.631   3.264 -31.971  1.00  0.00     0.030 A 
HETATM   23  C   UNL     1      -5.851   2.854 -31.419  1.00  0.00     0.011 A 
BRANCH  21  24
HETATM   24  N   UNL     1      -3.275   4.871 -33.237  1.00  0.00    -0.318 N 
HETATM   25  C   UNL     1      -3.099   5.199 -34.592  1.00  0.00     0.224 C 
HETATM   26  O   UNL     1      -3.936   5.285 -35.477  1.00  0.00    -0.273 OA
HETATM   27  C   UNL     1      -1.616   5.355 -34.843  1.00  0.00     0.105 C 
HETATM   28  C   UNL     1      -1.046   5.544 -33.453  1.00  0.00     0.029 C 
HETATM   29  C   UNL     1      -1.996   4.761 -32.573  1.00  0.00     0.133 C 
ENDBRANCH  21  24
ENDBRANCH  17  18
ENDBRANCH  14  17
ENDBRANCH   1  14
BRANCH   1  30
HETATM   30  C   UNL     1     -10.820   1.618 -33.503  1.00  0.00    -0.019 A 
HETATM   31  C   UNL     1     -11.719   0.543 -33.428  1.00  0.00     0.010 A 
HETATM   32  C   UNL     1     -12.890   0.546 -34.188  1.00  0.00     0.001 A 
HETATM   33  C   UNL     1     -13.178   1.621 -35.024  1.00  0.00     0.000 A 
HETATM   34  C   UNL     1     -12.297   2.697 -35.106  1.00  0.00     0.001 A 
HETATM   35  C   UNL     1     -11.125   2.700 -34.350  1.00  0.00     0.010 A 
ENDBRANCH   1  30
TORSDOF 8
ENDMDL
MODEL 4
REMARK VINA RESULT:      -8.9      0.893      1.993
REMARK  8 active torsions:
REMARK  status: ('A' for Active; 'I' for Inactive)
REMARK    1  A    between atoms: O_2  and  C_3 
REMARK    2  A    between atoms: C_5  and  N_6 
REMARK       I    between atoms: N_6  and  C_7 
REMARK    3  A    between atoms: C_7  and  C_8 
REMARK    4  A    between atoms: C_8  and  N_9 
REMARK    5  A    between atoms: C_8  and  C_25 
REMARK    6  A    between atoms: N_9  and  C_12 
REMARK    7  A    between atoms: C_12  and  C_13 
REMARK    8  A    between atoms: C_16  and  N_17 
ROOT
HETATM    1  C   UNL     1      -6.628  -0.068 -33.409  1.00  0.00     0.310 C 
ENDROOT
BRANCH   1   2
HETATM    2  C   UNL     1      -7.896   0.466 -34.123  1.00  0.00     0.257 C 
HETATM    3  N   UNL     1      -9.010   0.656 -33.335  1.00  0.00    -0.325 N 
HETATM    4  H   UNL     1      -8.944   0.451 -32.342  1.00  0.00     0.169 HD
HETATM    5  O   UNL     1      -7.814   0.622 -35.345  1.00  0.00    -0.270 OA
BRANCH   3   6
HETATM    6  C   UNL     1     -10.266   1.157 -33.752  1.00  0.00     0.037 A 
HETATM    7  C   UNL     1     -10.444   2.376 -34.409  1.00  0.00     0.066 A 
HETATM    8  C   UNL     1     -11.721   2.822 -34.774  1.00  0.00     0.070 A 
HETATM    9  C   UNL     1     -12.832   2.030 -34.494  1.00  0.00     0.037 A 
HETATM   10  C   UNL     1     -12.665   0.807 -33.842  1.00  0.00     0.005 A 
HETATM   11  C   UNL     1     -11.391   0.375 -33.468  1.00  0.00     0.029 A 
BRANCH   8  12
HETATM   12  O   UNL     1     -11.740   4.041 -35.394  1.00  0.00    -0.356 OA
HETATM   13  C   UNL     1     -10.552   4.822 -35.322  1.00  0.00     0.210 C 
ENDBRANCH   8  12
ENDBRANCH   3   6
ENDBRANCH   1   2
BRANCH   1  14
HETATM   14  N   UNL     1      -6.904  -0.053 -31.923  1.00  0.00    -0.054 N 
HETATM   15  H   UNL     1      -7.693   0.606 -31.794  1.00  0.00     0.278 HD
HETATM   16  H   UNL     1      -7.313  -0.951 -31.642  1.00  0.00     0.278 HD
BRANCH  14  17
HETATM   17  C   UNL     1      -5.796   0.304 -31.013  1.00  0.00     0.272 C 
BRANCH  17  18
HETATM   18  C   UNL     1      -5.080   1.505 -31.559  1.00  0.00    -0.033 A 
HETATM   19  C   UNL     1      -3.822   1.376 -32.152  1.00  0.00     0.011 A 
HETATM   20  C   UNL     1      -3.089   2.513 -32.517  1.00  0.00     0.030 A 
HETATM   21  C   UNL     1      -3.580   3.805 -32.296  1.00  0.00     0.037 A 
HETATM   22  C   UNL     1      -4.863   3.920 -31.742  1.00  0.00     0.030 A 
HETATM   23  C   UNL     1      -5.602   2.790 -31.372  1.00  0.00     0.011 A 
BRANCH  21  24
HETATM   24  N   UNL     1      -2.812   4.962 -32.599  1.00  0.00    -0.318 N 
HETATM   25  C   UNL     1      -1.545   5.273 -32.078  1.00  0.00     0.224 C 
HETATM   26  O   UNL     1      -0.840   4.615 -31.328  1.00  0.00    -0.273 OA
HETATM   27  C   UNL     1      -1.186   6.669 -32.532  1.00  0.00     0.105 C 
HETATM   28  C   UNL     1      -2.124   6.908 -33.697  1.00  0.00     0.029 C 
HETATM   29  C   UNL     1      -3.341   6.082 -33.345  1.00  0.00     0.133 C 
ENDBRANCH  21  24
ENDBRANCH  17  18
ENDBRANCH  14  17
ENDBRANCH   1  14
BRANCH   1  30
HETATM   30  C   UNL     1      -6.192  -1.439 -33.869  1.00  0.00    -0.019 A 
HETATM   31  C   UNL     1      -7.149  -2.378 -34.287  1.00  0.00     0.010 A 
HETATM   32  C   UNL     1      -6.754  -3.639 -34.735  1.00  0.00     0.001 A 
HETATM   33  C   UNL     1      -5.403  -3.975 -34.774  1.00  0.00     0.000 A 
HETATM   34  C   UNL     1      -4.443  -3.054 -34.366  1.00  0.00     0.001 A 
HETATM   35  C   UNL     1      -4.830  -1.791 -33.918  1.00  0.00     0.010 A 
ENDBRANCH   1  30
TORSDOF 8
ENDMDL
MODEL 5
REMARK VINA RESULT:      -8.8      2.482      3.635
REMARK  8 active torsions:
REMARK  status: ('A' for Active; 'I' for Inactive)
REMARK    1  A    between atoms: O_2  and  C_3 
REMARK    2  A    between atoms: C_5  and  N_6 
REMARK       I    between atoms: N_6  and  C_7 
REMARK    3  A    between atoms: C_7  and  C_8 
REMARK    4  A    between atoms: C_8  and  N_9 
REMARK    5  A    between atoms: C_8  and  C_25 
REMARK    6  A    between atoms: N_9  and  C_12 
REMARK    7  A    between atoms: C_12  and  C_13 
REMARK    8  A    between atoms: C_16  and  N_17 
ROOT
HETATM    1  C   UNL     1      -5.360  -0.742 -33.841  1.00  0.00     0.310 C 
ENDROOT
BRANCH   1   2
HETATM    2  C   UNL     1      -6.649   0.061 -34.152  1.00  0.00     0.257 C 
HETATM    3  N   UNL     1      -7.527   0.239 -33.106  1.00  0.00    -0.325 N 
HETATM    4  H   UNL     1      -7.286  -0.146 -32.197  1.00  0.00     0.169 HD
HETATM    5  O   UNL     1      -6.804   0.422 -35.323  1.00  0.00    -0.270 OA
BRANCH   3   6
HETATM    6  C   UNL     1      -8.748   0.954 -33.138  1.00  0.00     0.037 A 
HETATM    7  C   UNL     1      -9.998   0.361 -33.323  1.00  0.00     0.066 A 
HETATM    8  C   UNL     1     -11.167   1.134 -33.368  1.00  0.00     0.070 A 
HETATM    9  C   UNL     1     -11.084   2.514 -33.207  1.00  0.00     0.037 A 
HETATM   10  C   UNL     1      -9.840   3.118 -33.017  1.00  0.00     0.005 A 
HETATM   11  C   UNL     1      -8.678   2.344 -32.988  1.00  0.00     0.029 A 
BRANCH   8  12
HETATM   12  O   UNL     1     -12.313   0.416 -33.573  1.00  0.00    -0.356 OA
HETATM   13  C   UNL     1     -13.538   1.141 -33.582  1.00  0.00     0.210 C 
ENDBRANCH   8  12
ENDBRANCH   3   6
ENDBRANCH   1   2
BRANCH   1  14
HETATM   14  N   UNL     1      -5.028  -0.522 -32.383  1.00  0.00    -0.054 N 
HETATM   15  H   UNL     1      -5.936  -0.347 -31.916  1.00  0.00     0.278 HD
HETATM   16  H   UNL     1      -4.728  -1.409 -31.964  1.00  0.00     0.278 HD
BRANCH  14  17
HETATM   17  C   UNL     1      -4.070   0.549 -32.041  1.00  0.00     0.272 C 
BRANCH  17  18
HETATM   18  C   UNL     1      -4.793   1.634 -31.296  1.00  0.00    -0.033 A 
HETATM   19  C   UNL     1      -5.765   1.318 -30.344  1.00  0.00     0.011 A 
HETATM   20  C   UNL     1      -6.548   2.326 -29.767  1.00  0.00     0.030 A 
HETATM   21  C   UNL     1      -6.393   3.671 -30.125  1.00  0.00     0.037 A 
HETATM   22  C   UNL     1      -5.385   3.979 -31.049  1.00  0.00     0.030 A 
HETATM   23  C   UNL     1      -4.598   2.978 -31.632  1.00  0.00     0.011 A 
BRANCH  21  24
HETATM   24  N   UNL     1      -7.231   4.690 -29.597  1.00  0.00    -0.318 N 
HETATM   25  C   UNL     1      -6.941   5.512 -28.495  1.00  0.00     0.224 C 
HETATM   26  O   UNL     1      -5.924   5.560 -27.820  1.00  0.00    -0.273 OA
HETATM   27  C   UNL     1      -8.177   6.323 -28.181  1.00  0.00     0.105 C 
HETATM   28  C   UNL     1      -8.991   6.224 -29.455  1.00  0.00     0.029 C 
HETATM   29  C   UNL     1      -8.602   4.874 -30.017  1.00  0.00     0.133 C 
ENDBRANCH  21  24
ENDBRANCH  17  18
ENDBRANCH  14  17
ENDBRANCH   1  14
BRANCH   1  30
HETATM   30  C   UNL     1      -5.456  -2.214 -34.164  1.00  0.00    -0.019 A 
HETATM   31  C   UNL     1      -6.662  -2.751 -34.644  1.00  0.00     0.010 A 
HETATM   32  C   UNL     1      -6.754  -4.106 -34.965  1.00  0.00     0.001 A 
HETATM   33  C   UNL     1      -5.647  -4.937 -34.816  1.00  0.00     0.000 A 
HETATM   34  C   UNL     1      -4.444  -4.418 -34.345  1.00  0.00     0.001 A 
HETATM   35  C   UNL     1      -4.344  -3.065 -34.021  1.00  0.00     0.010 A 
ENDBRANCH   1  30
TORSDOF 8
ENDMDL
MODEL 6
REMARK VINA RESULT:      -8.7      1.949      2.735
REMARK  8 active torsions:
REMARK  status: ('A' for Active; 'I' for Inactive)
REMARK    1  A    between atoms: O_2  and  C_3 
REMARK    2  A    between atoms: C_5  and  N_6 
REMARK       I    between atoms: N_6  and  C_7 
REMARK    3  A    between atoms: C_7  and  C_8 
REMARK    4  A    between atoms: C_8  and  N_9 
REMARK    5  A    between atoms: C_8  and  C_25 
REMARK    6  A    between atoms: N_9  and  C_12 
REMARK    7  A    between atoms: C_12  and  C_13 
REMARK    8  A    between atoms: C_16  and  N_17 
ROOT
HETATM    1  C   UNL     1      -6.947   1.326 -34.345  1.00  0.00     0.310 C 
ENDROOT
BRANCH   1   2
HETATM    2  C   UNL     1      -8.384   1.458 -33.778  1.00  0.00     0.257 C 
HETATM    3  N   UNL     1      -9.281   2.170 -34.543  1.00  0.00    -0.325 N 
HETATM    4  H   UNL     1      -8.967   2.555 -35.429  1.00  0.00     0.169 HD
HETATM    5  O   UNL     1      -8.584   0.964 -32.664  1.00  0.00    -0.270 OA
BRANCH   3   6
HETATM    6  C   UNL     1     -10.646   2.401 -34.250  1.00  0.00     0.037 A 
HETATM    7  C   UNL     1     -11.697   1.631 -34.752  1.00  0.00     0.066 A 
HETATM    8  C   UNL     1     -13.030   1.931 -34.438  1.00  0.00     0.070 A 
HETATM    9  C   UNL     1     -13.312   3.004 -33.596  1.00  0.00     0.037 A 
HETATM   10  C   UNL     1     -12.270   3.778 -33.084  1.00  0.00     0.005 A 
HETATM   11  C   UNL     1     -10.945   3.483 -33.413  1.00  0.00     0.029 A 
BRANCH   8  12
HETATM   12  O   UNL     1     -13.949   1.100 -35.017  1.00  0.00    -0.356 OA
HETATM   13  C   UNL     1     -15.107   0.783 -34.252  1.00  0.00     0.210 C 
ENDBRANCH   8  12
ENDBRANCH   3   6
ENDBRANCH   1   2
BRANCH   1  14
HETATM   14  N   UNL     1      -6.061   2.265 -33.560  1.00  0.00    -0.054 N 
HETATM   15  H   UNL     1      -6.433   2.255 -32.593  1.00  0.00     0.278 HD
HETATM   16  H   UNL     1      -5.132   1.843 -33.447  1.00  0.00     0.278 HD
BRANCH  14  17
HETATM   17  C   UNL     1      -5.928   3.658 -34.035  1.00  0.00     0.272 C 
BRANCH  17  18
HETATM   18  C   UNL     1      -4.714   4.277 -33.406  1.00  0.00    -0.033 A 
HETATM   19  C   UNL     1      -3.971   3.576 -32.453  1.00  0.00     0.011 A 
HETATM   20  C   UNL     1      -2.936   4.210 -31.753  1.00  0.00     0.030 A 
HETATM   21  C   UNL     1      -2.618   5.556 -31.974  1.00  0.00     0.037 A 
HETATM   22  C   UNL     1      -3.343   6.235 -32.964  1.00  0.00     0.030 A 
HETATM   23  C   UNL     1      -4.380   5.610 -33.667  1.00  0.00     0.011 A 
BRANCH  21  24
HETATM   24  N   UNL     1      -1.618   6.225 -31.217  1.00  0.00    -0.318 N 
HETATM   25  C   UNL     1      -1.800   6.842 -29.968  1.00  0.00     0.224 C 
HETATM   26  O   UNL     1      -2.802   6.887 -29.272  1.00  0.00    -0.273 OA
HETATM   27  C   UNL     1      -0.523   7.574 -29.621  1.00  0.00     0.105 C 
HETATM   28  C   UNL     1       0.503   6.933 -30.533  1.00  0.00     0.029 C 
HETATM   29  C   UNL     1      -0.307   6.529 -31.745  1.00  0.00     0.133 C 
ENDBRANCH  21  24
ENDBRANCH  17  18
ENDBRANCH  14  17
ENDBRANCH   1  14
BRANCH   1  30
HETATM   30  C   UNL     1      -6.404  -0.083 -34.325  1.00  0.00    -0.019 A 
HETATM   31  C   UNL     1      -5.154  -0.346 -33.740  1.00  0.00     0.010 A 
HETATM   32  C   UNL     1      -4.653  -1.648 -33.698  1.00  0.00     0.001 A 
HETATM   33  C   UNL     1      -5.393  -2.699 -34.234  1.00  0.00     0.000 A 
HETATM   34  C   UNL     1      -6.634  -2.454 -34.814  1.00  0.00     0.001 A 
HETATM   35  C   UNL     1      -7.141  -1.156 -34.860  1.00  0.00     0.010 A 
ENDBRANCH   1  30
TORSDOF 8
ENDMDL
MODEL 7
REMARK VINA RESULT:      -8.6      1.835      8.033
REMARK  8 active torsions:
REMARK  status: ('A' for Active; 'I' for Inactive)
REMARK    1  A    between atoms: O_2  and  C_3 
REMARK    2  A    between atoms: C_5  and  N_6 
REMARK       I    between atoms: N_6  and  C_7 
REMARK    3  A    between atoms: C_7  and  C_8 
REMARK    4  A    between atoms: C_8  and  N_9 
REMARK    5  A    between atoms: C_8  and  C_25 
REMARK    6  A    between atoms: N_9  and  C_12 
REMARK    7  A    between atoms: C_12  and  C_13 
REMARK    8  A    between atoms: C_16  and  N_17 
ROOT
HETATM    1  C   UNL     1      -4.871   1.048 -31.810  1.00  0.00     0.310 C 
ENDROOT
BRANCH   1   2
HETATM    2  C   UNL     1      -3.633   1.864 -32.262  1.00  0.00     0.257 C 
HETATM    3  N   UNL     1      -3.747   3.235 -32.202  1.00  0.00    -0.325 N 
HETATM    4  H   UNL     1      -4.615   3.637 -31.861  1.00  0.00     0.169 HD
HETATM    5  O   UNL     1      -2.673   1.215 -32.690  1.00  0.00    -0.270 OA
BRANCH   3   6
HETATM    6  C   UNL     1      -2.749   4.182 -32.534  1.00  0.00     0.037 A 
HETATM    7  C   UNL     1      -1.815   4.687 -31.626  1.00  0.00     0.066 A 
HETATM    8  C   UNL     1      -0.867   5.642 -32.018  1.00  0.00     0.070 A 
HETATM    9  C   UNL     1      -0.842   6.083 -33.339  1.00  0.00     0.037 A 
HETATM   10  C   UNL     1      -1.767   5.581 -34.256  1.00  0.00     0.005 A 
HETATM   11  C   UNL     1      -2.718   4.641 -33.855  1.00  0.00     0.029 A 
BRANCH   8  12
HETATM   12  O   UNL     1      -0.032   6.055 -31.017  1.00  0.00    -0.356 OA
HETATM   13  C   UNL     1       0.335   5.087 -30.040  1.00  0.00     0.210 C 
ENDBRANCH   8  12
ENDBRANCH   3   6
ENDBRANCH   1   2
BRANCH   1  14
HETATM   14  N   UNL     1      -5.744   1.967 -30.987  1.00  0.00    -0.054 N 
HETATM   15  H   UNL     1      -5.107   2.420 -30.307  1.00  0.00     0.278 HD
HETATM   16  H   UNL     1      -6.051   2.757 -31.568  1.00  0.00     0.278 HD
BRANCH  14  17
HETATM   17  C   UNL     1      -6.902   1.381 -30.281  1.00  0.00     0.272 C 
BRANCH  17  18
HETATM   18  C   UNL     1      -8.136   1.583 -31.110  1.00  0.00    -0.033 A 
HETATM   19  C   UNL     1      -8.824   0.489 -31.641  1.00  0.00     0.011 A 
HETATM   20  C   UNL     1      -9.880   0.683 -32.542  1.00  0.00     0.030 A 
HETATM   21  C   UNL     1     -10.273   1.965 -32.946  1.00  0.00     0.037 A 
HETATM   22  C   UNL     1      -9.604   3.055 -32.372  1.00  0.00     0.030 A 
HETATM   23  C   UNL     1      -8.547   2.871 -31.472  1.00  0.00     0.011 A 
BRANCH  21  24
HETATM   24  N   UNL     1     -11.295   2.167 -33.913  1.00  0.00    -0.318 N 
HETATM   25  C   UNL     1     -12.422   1.351 -34.108  1.00  0.00     0.224 C 
HETATM   26  O   UNL     1     -12.776   0.367 -33.477  1.00  0.00    -0.273 OA
HETATM   27  C   UNL     1     -13.139   1.837 -35.347  1.00  0.00     0.105 C 
HETATM   28  C   UNL     1     -12.591   3.237 -35.538  1.00  0.00     0.029 C 
HETATM   29  C   UNL     1     -11.193   3.149 -34.969  1.00  0.00     0.133 C 
ENDBRANCH  21  24
ENDBRANCH  17  18
ENDBRANCH  14  17
ENDBRANCH   1  14
BRANCH   1  30
HETATM   30  C   UNL     1      -5.649   0.427 -32.945  1.00  0.00    -0.019 A 
HETATM   31  C   UNL     1      -6.195   1.241 -33.952  1.00  0.00     0.010 A 
HETATM   32  C   UNL     1      -6.897   0.673 -35.016  1.00  0.00     0.001 A 
HETATM   33  C   UNL     1      -7.059  -0.707 -35.091  1.00  0.00     0.000 A 
HETATM   34  C   UNL     1      -6.520  -1.527 -34.103  1.00  0.00     0.001 A 
HETATM   35  C   UNL     1      -5.818  -0.967 -33.035  1.00  0.00     0.010 A 
ENDBRANCH   1  30
TORSDOF 8
ENDMDL
MODEL 8
REMARK VINA RESULT:      -8.5      2.166      5.921
REMARK  8 active torsions:
REMARK  status: ('A' for Active; 'I' for Inactive)
REMARK    1  A    between atoms: O_2  and  C_3 
REMARK    2  A    between atoms: C_5  and  N_6 
REMARK       I    between atoms: N_6  and  C_7 
REMARK    3  A    between atoms: C_7  and  C_8 
REMARK    4  A    between atoms: C_8  and  N_9 
REMARK    5  A    between atoms: C_8  and  C_25 
REMARK    6  A    between atoms: N_9  and  C_12 
REMARK    7  A    between atoms: C_12  and  C_13 
REMARK    8  A    between atoms: C_16  and  N_17 
ROOT
HETATM    1  C   UNL     1      -9.208   2.456 -32.740  1.00  0.00     0.310 C 
ENDROOT
BRANCH   1   2
HETATM    2  C   UNL     1      -8.221   1.272 -32.571  1.00  0.00     0.257 C 
HETATM    3  N   UNL     1      -7.406   0.996 -33.647  1.00  0.00    -0.325 N 
HETATM    4  H   UNL     1      -7.483   1.577 -34.477  1.00  0.00     0.169 HD
HETATM    5  O   UNL     1      -8.290   0.645 -31.510  1.00  0.00    -0.270 OA
BRANCH   3   6
HETATM    6  C   UNL     1      -6.415  -0.010 -33.721  1.00  0.00     0.037 A 
HETATM    7  C   UNL     1      -5.150   0.092 -33.137  1.00  0.00     0.066 A 
HETATM    8  C   UNL     1      -4.206  -0.936 -33.269  1.00  0.00     0.070 A 
HETATM    9  C   UNL     1      -4.539  -2.087 -33.978  1.00  0.00     0.037 A 
HETATM   10  C   UNL     1      -5.802  -2.203 -34.562  1.00  0.00     0.005 A 
HETATM   11  C   UNL     1      -6.732  -1.169 -34.439  1.00  0.00     0.029 A 
BRANCH   8  12
HETATM   12  O   UNL     1      -3.008  -0.686 -32.659  1.00  0.00    -0.356 OA
HETATM   13  C   UNL     1      -3.052  -0.161 -31.337  1.00  0.00     0.210 C 
ENDBRANCH   8  12
ENDBRANCH   3   6
ENDBRANCH   1   2
BRANCH   1  14
HETATM   14  N   UNL     1      -8.651   3.363 -33.813  1.00  0.00    -0.054 N 
HETATM   15  H   UNL     1      -7.727   2.965 -34.060  1.00  0.00     0.278 HD
HETATM   16  H   UNL     1      -9.188   3.237 -34.679  1.00  0.00     0.278 HD
BRANCH  14  17
HETATM   17  C   UNL     1      -8.515   4.802 -33.508  1.00  0.00     0.272 C 
BRANCH  17  18
HETATM   18  C   UNL     1      -7.058   5.157 -33.460  1.00  0.00    -0.033 A 
HETATM   19  C   UNL     1      -6.114   4.384 -34.140  1.00  0.00     0.011 A 
HETATM   20  C   UNL     1      -4.744   4.621 -33.967  1.00  0.00     0.030 A 
HETATM   21  C   UNL     1      -4.276   5.625 -33.110  1.00  0.00     0.037 A 
HETATM   22  C   UNL     1      -5.234   6.422 -32.468  1.00  0.00     0.030 A 
HETATM   23  C   UNL     1      -6.605   6.192 -32.633  1.00  0.00     0.011 A 
BRANCH  21  24
HETATM   24  N   UNL     1      -2.888   5.824 -32.875  1.00  0.00    -0.318 N 
HETATM   25  C   UNL     1      -2.026   4.936 -32.211  1.00  0.00     0.224 C 
HETATM   26  O   UNL     1      -2.264   3.825 -31.760  1.00  0.00    -0.273 OA
HETATM   27  C   UNL     1      -0.692   5.626 -32.036  1.00  0.00     0.105 C 
HETATM   28  C   UNL     1      -0.749   6.753 -33.047  1.00  0.00     0.029 C 
HETATM   29  C   UNL     1      -2.223   7.083 -33.124  1.00  0.00     0.133 C 
ENDBRANCH  21  24
ENDBRANCH  17  18
ENDBRANCH  14  17
ENDBRANCH   1  14
BRANCH   1  30
HETATM   30  C   UNL     1     -10.624   2.039 -33.057  1.00  0.00    -0.019 A 
HETATM   31  C   UNL     1     -10.903   0.707 -33.403  1.00  0.00     0.010 A 
HETATM   32  C   UNL     1     -12.212   0.307 -33.678  1.00  0.00     0.001 A 
HETATM   33  C   UNL     1     -13.254   1.227 -33.605  1.00  0.00     0.000 A 
HETATM   34  C   UNL     1     -12.993   2.550 -33.259  1.00  0.00     0.001 A 
HETATM   35  C   UNL     1     -11.687   2.957 -32.984  1.00  0.00     0.010 A 
ENDBRANCH   1  30
TORSDOF 8
ENDMDL
MODEL 9
REMARK VINA RESULT:      -8.5      2.073      6.895
REMARK  8 active torsions:
REMARK  status: ('A' for Active; 'I' for Inactive)
REMARK    1  A    between atoms: O_2  and  C_3 
REMARK    2  A    between atoms: C_5  and  N_6 
REMARK       I    between atoms: N_6  and  C_7 
REMARK    3  A    between atoms: C_7  and  C_8 
REMARK    4  A    between atoms: C_8  and  N_9 
REMARK    5  A    between atoms: C_8  and  C_25 
REMARK    6  A    between atoms: N_9  and  C_12 
REMARK    7  A    between atoms: C_12  and  C_13 
REMARK    8  A    between atoms: C_16  and  N_17 
ROOT
HETATM    1  C   UNL     1      -7.084  -0.269 -33.146  1.00  0.00     0.310 C 
ENDROOT
BRANCH   1   2
HETATM    2  C   UNL     1      -6.531   1.083 -33.666  1.00  0.00     0.257 C 
HETATM    3  N   UNL     1      -5.988   1.926 -32.721  1.00  0.00    -0.325 N 
HETATM    4  H   UNL     1      -5.967   1.622 -31.752  1.00  0.00     0.169 HD
HETATM    5  O   UNL     1      -6.675   1.310 -34.871  1.00  0.00    -0.270 OA
BRANCH   3   6
HETATM    6  C   UNL     1      -5.401   3.192 -32.956  1.00  0.00     0.037 A 
HETATM    7  C   UNL     1      -4.025   3.411 -33.053  1.00  0.00     0.066 A 
HETATM    8  C   UNL     1      -3.510   4.698 -33.265  1.00  0.00     0.070 A 
HETATM    9  C   UNL     1      -4.383   5.774 -33.398  1.00  0.00     0.037 A 
HETATM   10  C   UNL     1      -5.761   5.566 -33.307  1.00  0.00     0.005 A 
HETATM   11  C   UNL     1      -6.267   4.284 -33.082  1.00  0.00     0.029 A 
BRANCH   8  12
HETATM   12  O   UNL     1      -2.145   4.759 -33.320  1.00  0.00    -0.356 OA
HETATM   13  C   UNL     1      -1.568   5.268 -34.518  1.00  0.00     0.210 C 
ENDBRANCH   8  12
ENDBRANCH   3   6
ENDBRANCH   1   2
BRANCH   1  14
HETATM   14  N   UNL     1      -8.557  -0.315 -33.478  1.00  0.00    -0.054 N 
HETATM   15  H   UNL     1      -8.663   0.233 -34.351  1.00  0.00     0.278 HD
HETATM   16  H   UNL     1      -8.811  -1.264 -33.776  1.00  0.00     0.278 HD
BRANCH  14  17
HETATM   17  C   UNL     1      -9.515   0.168 -32.461  1.00  0.00     0.272 C 
BRANCH  17  18
HETATM   18  C   UNL     1     -10.196   1.402 -32.977  1.00  0.00    -0.033 A 
HETATM   19  C   UNL     1     -11.033   1.340 -34.094  1.00  0.00     0.011 A 
HETATM   20  C   UNL     1     -11.540   2.513 -34.668  1.00  0.00     0.030 A 
HETATM   21  C   UNL     1     -11.223   3.777 -34.155  1.00  0.00     0.037 A 
HETATM   22  C   UNL     1     -10.419   3.823 -33.008  1.00  0.00     0.030 A 
HETATM   23  C   UNL     1      -9.906   2.656 -32.428  1.00  0.00     0.011 A 
BRANCH  21  24
HETATM   24  N   UNL     1     -11.676   4.973 -34.774  1.00  0.00    -0.318 N 
HETATM   25  C   UNL     1     -10.869   5.937 -35.402  1.00  0.00     0.224 C 
HETATM   26  O   UNL     1      -9.661   5.924 -35.588  1.00  0.00    -0.273 OA
HETATM   27  C   UNL     1     -11.744   7.115 -35.760  1.00  0.00     0.105 C 
HETATM   28  C   UNL     1     -13.144   6.538 -35.705  1.00  0.00     0.029 C 
HETATM   29  C   UNL     1     -13.036   5.451 -34.658  1.00  0.00     0.133 C 
ENDBRANCH  21  24
ENDBRANCH  17  18
ENDBRANCH  14  17
ENDBRANCH   1  14
BRANCH   1  30
HETATM   30  C   UNL     1      -6.364  -1.480 -33.690  1.00  0.00    -0.019 A 
HETATM   31  C   UNL     1      -7.083  -2.485 -34.357  1.00  0.00     0.010 A 
HETATM   32  C   UNL     1      -6.424  -3.597 -34.882  1.00  0.00     0.001 A 
HETATM   33  C   UNL     1      -5.043  -3.718 -34.750  1.00  0.00     0.000 A 
HETATM   34  C   UNL     1      -4.316  -2.728 -34.094  1.00  0.00     0.001 A 
HETATM   35  C   UNL     1      -4.968  -1.614 -33.567  1.00  0.00     0.010 A 
ENDBRANCH   1  30
TORSDOF 8
ENDMDL
MODEL 10
REMARK VINA RESULT:      -8.3      3.629      6.831
REMARK  8 active torsions:
REMARK  status: ('A' for Active; 'I' for Inactive)
REMARK    1  A    between atoms: O_2  and  C_3 
REMARK    2  A    between atoms: C_5  and  N_6 
REMARK       I    between atoms: N_6  and  C_7 
REMARK    3  A    between atoms: C_7  and  C_8 
REMARK    4  A    between atoms: C_8  and  N_9 
REMARK    5  A    between atoms: C_8  and  C_25 
REMARK    6  A    between atoms: N_9  and  C_12 
REMARK    7  A    between atoms: C_12  and  C_13 
REMARK    8  A    between atoms: C_16  and  N_17 
ROOT
HETATM    1  C   UNL     1      -5.397   4.125 -32.286  1.00  0.00     0.310 C 
ENDROOT
BRANCH   1   2
HETATM    2  C   UNL     1      -5.699   2.605 -32.247  1.00  0.00     0.257 C 
HETATM    3  N   UNL     1      -5.606   1.931 -33.445  1.00  0.00    -0.325 N 
HETATM    4  H   UNL     1      -5.339   2.450 -34.276  1.00  0.00     0.169 HD
HETATM    5  O   UNL     1      -6.050   2.141 -31.158  1.00  0.00    -0.270 OA
BRANCH   3   6
HETATM    6  C   UNL     1      -5.808   0.546 -33.653  1.00  0.00     0.037 A 
HETATM    7  C   UNL     1      -4.845  -0.433 -33.396  1.00  0.00     0.066 A 
HETATM    8  C   UNL     1      -5.105  -1.788 -33.648  1.00  0.00     0.070 A 
HETATM    9  C   UNL     1      -6.349  -2.168 -34.146  1.00  0.00     0.037 A 
HETATM   10  C   UNL     1      -7.320  -1.198 -34.402  1.00  0.00     0.005 A 
HETATM   11  C   UNL     1      -7.050   0.150 -34.163  1.00  0.00     0.029 A 
BRANCH   8  12
HETATM   12  O   UNL     1      -4.063  -2.626 -33.364  1.00  0.00    -0.356 OA
HETATM   13  C   UNL     1      -3.380  -2.417 -32.133  1.00  0.00     0.210 C 
ENDBRANCH   8  12
ENDBRANCH   3   6
ENDBRANCH   1   2
BRANCH   1  14
HETATM   14  N   UNL     1      -5.205   4.587 -30.860  1.00  0.00    -0.054 N 
HETATM   15  H   UNL     1      -5.803   3.967 -30.285  1.00  0.00     0.278 HD
HETATM   16  H   UNL     1      -4.259   4.340 -30.546  1.00  0.00     0.278 HD
BRANCH  14  17
HETATM   17  C   UNL     1      -5.490   6.001 -30.542  1.00  0.00     0.272 C 
BRANCH  17  18
HETATM   18  C   UNL     1      -4.270   6.620 -29.924  1.00  0.00    -0.033 A 
HETATM   19  C   UNL     1      -3.162   6.946 -30.710  1.00  0.00     0.011 A 
HETATM   20  C   UNL     1      -1.970   7.375 -30.112  1.00  0.00     0.030 A 
HETATM   21  C   UNL     1      -1.843   7.483 -28.722  1.00  0.00     0.037 A 
HETATM   22  C   UNL     1      -2.976   7.196 -27.948  1.00  0.00     0.030 A 
HETATM   23  C   UNL     1      -4.172   6.765 -28.536  1.00  0.00     0.011 A 
BRANCH  21  24
HETATM   24  N   UNL     1      -0.616   7.849 -28.106  1.00  0.00    -0.318 N 
HETATM   25  C   UNL     1       0.456   6.986 -27.819  1.00  0.00     0.224 C 
HETATM   26  O   UNL     1       0.575   5.797 -28.077  1.00  0.00    -0.273 OA
HETATM   27  C   UNL     1       1.472   7.759 -27.012  1.00  0.00     0.105 C 
HETATM   28  C   UNL     1       1.100   9.204 -27.276  1.00  0.00     0.029 C 
HETATM   29  C   UNL     1      -0.394   9.146 -27.508  1.00  0.00     0.133 C 
ENDBRANCH  21  24
ENDBRANCH  17  18
ENDBRANCH  14  17
ENDBRANCH   1  14
BRANCH   1  30
HETATM   30  C   UNL     1      -4.212   4.497 -33.145  1.00  0.00    -0.019 A 
HETATM   31  C   UNL     1      -4.413   5.137 -34.379  1.00  0.00     0.010 A 
HETATM   32  C   UNL     1      -3.323   5.504 -35.171  1.00  0.00     0.001 A 
HETATM   33  C   UNL     1      -2.026   5.241 -34.739  1.00  0.00     0.000 A 
HETATM   34  C   UNL     1      -1.811   4.610 -33.517  1.00  0.00     0.001 A 
HETATM   35  C   UNL     1      -2.896   4.240 -32.721  1.00  0.00     0.010 A 
ENDBRANCH   1  30
TORSDOF 8
ENDMDL
