MODEL 1
REMARK VINA RESULT:      -8.7      0.000      0.000
REMARK  5 active torsions:
REMARK  status: ('A' for Active; 'I' for Inactive)
REMARK    1  A    between atoms: C_8  and  C_9 
REMARK    2  A    between atoms: C_9  and  C_10 
REMARK       I    between atoms: C_10  and  N_11 
REMARK    3  A    between atoms: N_11  and  C_12 
REMARK    4  A    between atoms: C_12  and  C_13 
REMARK    5  A    between atoms: C_13  and  C_14 
ROOT
HETATM    1  C   UNL     1     -10.919   1.439 -34.240  1.00  0.00     0.226 C 
HETATM    2  N   UNL     1      -9.798   2.098 -34.699  1.00  0.00    -0.360 N 
HETATM    3  O   UNL     1     -10.841   0.535 -33.408  1.00  0.00    -0.273 OA
HETATM    4  H   UNL     1      -9.882   2.856 -35.361  1.00  0.00     0.162 HD
ENDROOT
BRANCH   2   5
HETATM    5  C   UNL     1      -8.474   1.780 -34.193  1.00  0.00     0.127 C 
BRANCH   5   6
HETATM    6  C   UNL     1      -7.843   0.575 -34.897  1.00  0.00     0.060 C 
BRANCH   6   7
HETATM    7  C   UNL     1      -6.580   0.132 -34.228  1.00  0.00    -0.029 A 
HETATM    8  C   UNL     1      -5.998  -1.176 -34.291  1.00  0.00    -0.002 A 
HETATM    9  C   UNL     1      -4.837  -1.153 -33.520  1.00  0.00     0.044 A 
HETATM   10  C   UNL     1      -6.360  -2.377 -34.935  1.00  0.00     0.016 A 
HETATM   11  C   UNL     1      -4.015  -2.276 -33.355  1.00  0.00     0.054 A 
HETATM   12  N   UNL     1      -4.712   0.119 -33.013  1.00  0.00    -0.365 N 
HETATM   13  C   UNL     1      -4.400  -3.454 -34.003  1.00  0.00     0.036 A 
HETATM   14 CL   UNL     1      -3.424  -4.864 -33.829  1.00  0.00    -0.084 Cl
HETATM   15  C   UNL     1      -5.552  -3.511 -34.782  1.00  0.00     0.025 A 
HETATM   16  H   UNL     1      -3.955   0.427 -32.418  1.00  0.00     0.165 HD
HETATM   17  C   UNL     1      -5.755   0.900 -33.431  1.00  0.00     0.096 A 
ENDBRANCH   6   7
ENDBRANCH   5   6
ENDBRANCH   2   5
BRANCH   1  18
HETATM   18  C   UNL     1     -12.276   1.911 -34.786  1.00  0.00     0.111 C 
HETATM   19  C   UNL     1     -12.214   3.106 -35.737  1.00  0.00     0.025 C 
BRANCH  18  20
HETATM   20  C   UNL     1     -13.283   2.113 -33.685  1.00  0.00     0.004 A 
HETATM   21  C   UNL     1     -13.145   2.942 -32.582  1.00  0.00     0.033 A 
HETATM   22  C   UNL     1     -12.054   3.852 -32.159  1.00  0.00     0.070 C 
HETATM   23  N   UNL     1     -14.296   2.810 -31.860  1.00  0.00    -0.282 N 
HETATM   24  H   UNL     1     -14.554   3.278 -30.999  1.00  0.00     0.189 HD
HETATM   25  N   UNL     1     -15.164   1.940 -32.389  1.00  0.00    -0.179 NA
HETATM   26  C   UNL     1     -14.570   1.519 -33.511  1.00  0.00     0.060 A 
HETATM   27  C   UNL     1     -15.283   0.551 -34.381  1.00  0.00     0.073 C 
ENDBRANCH  18  20
ENDBRANCH   1  18
TORSDOF 5
ENDMDL
MODEL 2
REMARK VINA RESULT:      -8.6      5.792      8.287
REMARK  5 active torsions:
REMARK  status: ('A' for Active; 'I' for Inactive)
REMARK    1  A    between atoms: C_8  and  C_9 
REMARK    2  A    between atoms: C_9  and  C_10 
REMARK       I    between atoms: C_10  and  N_11 
REMARK    3  A    between atoms: N_11  and  C_12 
REMARK    4  A    between atoms: C_12  and  C_13 
REMARK    5  A    between atoms: C_13  and  C_14 
ROOT
HETATM    1  C   UNL     1      -3.314   3.944 -31.219  1.00  0.00     0.226 C 
HETATM    2  N   UNL     1      -4.535   3.460 -30.800  1.00  0.00    -0.360 N 
HETATM    3  O   UNL     1      -2.415   3.190 -31.591  1.00  0.00    -0.273 OA
HETATM    4  H   UNL     1      -5.272   4.093 -30.524  1.00  0.00     0.162 HD
ENDROOT
BRANCH   2   5
HETATM    5  C   UNL     1      -4.830   2.038 -30.813  1.00  0.00     0.127 C 
BRANCH   5   6
HETATM    6  C   UNL     1      -5.345   1.550 -32.171  1.00  0.00     0.060 C 
BRANCH   6   7
HETATM    7  C   UNL     1      -4.721   0.253 -32.576  1.00  0.00    -0.029 A 
HETATM    8  C   UNL     1      -5.344  -0.790 -33.336  1.00  0.00    -0.002 A 
HETATM    9  C   UNL     1      -4.411  -1.818 -33.476  1.00  0.00     0.044 A 
HETATM   10  C   UNL     1      -6.620  -0.950 -33.913  1.00  0.00     0.016 A 
HETATM   11  C   UNL     1      -4.691  -3.005 -34.166  1.00  0.00     0.054 A 
HETATM   12  N   UNL     1      -3.264  -1.415 -32.834  1.00  0.00    -0.365 N 
HETATM   13  C   UNL     1      -5.965  -3.137 -34.726  1.00  0.00     0.036 A 
HETATM   14 CL   UNL     1      -6.360  -4.580 -35.582  1.00  0.00    -0.084 Cl
HETATM   15  C   UNL     1      -6.919  -2.130 -34.606  1.00  0.00     0.025 A 
HETATM   16  H   UNL     1      -2.416  -1.962 -32.779  1.00  0.00     0.165 HD
HETATM   17  C   UNL     1      -3.439  -0.172 -32.287  1.00  0.00     0.096 A 
ENDBRANCH   6   7
ENDBRANCH   5   6
ENDBRANCH   2   5
BRANCH   1  18
HETATM   18  C   UNL     1      -3.139   5.470 -31.236  1.00  0.00     0.111 C 
HETATM   19  C   UNL     1      -4.360   6.270 -30.784  1.00  0.00     0.025 C 
BRANCH  18  20
HETATM   20  C   UNL     1      -2.598   5.957 -32.555  1.00  0.00     0.004 A 
HETATM   21  C   UNL     1      -3.209   5.831 -33.794  1.00  0.00     0.033 A 
HETATM   22  C   UNL     1      -4.504   5.240 -34.203  1.00  0.00     0.070 C 
HETATM   23  N   UNL     1      -2.364   6.414 -34.694  1.00  0.00    -0.282 N 
HETATM   24  H   UNL     1      -2.490   6.522 -35.694  1.00  0.00     0.189 HD
HETATM   25  N   UNL     1      -1.239   6.886 -34.147  1.00  0.00    -0.179 NA
HETATM   26  C   UNL     1      -1.374   6.633 -32.840  1.00  0.00     0.060 A 
HETATM   27  C   UNL     1      -0.299   7.062 -31.912  1.00  0.00     0.073 C 
ENDBRANCH  18  20
ENDBRANCH   1  18
TORSDOF 5
ENDMDL
MODEL 3
REMARK VINA RESULT:      -8.5      5.269      8.178
REMARK  5 active torsions:
REMARK  status: ('A' for Active; 'I' for Inactive)
REMARK    1  A    between atoms: C_8  and  C_9 
REMARK    2  A    between atoms: C_9  and  C_10 
REMARK       I    between atoms: C_10  and  N_11 
REMARK    3  A    between atoms: N_11  and  C_12 
REMARK    4  A    between atoms: C_12  and  C_13 
REMARK    5  A    between atoms: C_13  and  C_14 
ROOT
HETATM    1  C   UNL     1      -3.282   3.828 -32.114  1.00  0.00     0.226 C 
HETATM    2  N   UNL     1      -3.915   2.634 -32.387  1.00  0.00    -0.360 N 
HETATM    3  O   UNL     1      -2.224   3.868 -31.486  1.00  0.00    -0.273 OA
HETATM    4  H   UNL     1      -4.768   2.615 -32.927  1.00  0.00     0.162 HD
ENDROOT
BRANCH   2   5
HETATM    5  C   UNL     1      -3.343   1.363 -31.977  1.00  0.00     0.127 C 
BRANCH   5   6
HETATM    6  C   UNL     1      -4.311   0.516 -31.146  1.00  0.00     0.060 C 
BRANCH   6   7
HETATM    7  C   UNL     1      -5.430  -0.033 -31.974  1.00  0.00    -0.029 A 
HETATM    8  C   UNL     1      -5.361  -1.156 -32.860  1.00  0.00    -0.002 A 
HETATM    9  C   UNL     1      -6.623  -1.315 -33.433  1.00  0.00     0.044 A 
HETATM   10  C   UNL     1      -4.334  -2.051 -33.227  1.00  0.00     0.016 A 
HETATM   11  C   UNL     1      -6.912  -2.324 -34.361  1.00  0.00     0.054 A 
HETATM   12  N   UNL     1      -7.430  -0.332 -32.911  1.00  0.00    -0.365 N 
HETATM   13  C   UNL     1      -5.874  -3.194 -34.707  1.00  0.00     0.036 A 
HETATM   14 CL   UNL     1      -6.178  -4.452 -35.846  1.00  0.00    -0.084 Cl
HETATM   15  C   UNL     1      -4.603  -3.066 -34.153  1.00  0.00     0.025 A 
HETATM   16  H   UNL     1      -8.406  -0.208 -33.145  1.00  0.00     0.165 HD
HETATM   17  C   UNL     1      -6.724   0.446 -32.034  1.00  0.00     0.096 A 
ENDBRANCH   6   7
ENDBRANCH   5   6
ENDBRANCH   2   5
BRANCH   1  18
HETATM   18  C   UNL     1      -3.938   5.104 -32.663  1.00  0.00     0.111 C 
HETATM   19  C   UNL     1      -4.881   4.894 -33.847  1.00  0.00     0.025 C 
BRANCH  18  20
HETATM   20  C   UNL     1      -2.923   6.184 -32.931  1.00  0.00     0.004 A 
HETATM   21  C   UNL     1      -2.786   7.378 -32.239  1.00  0.00     0.033 A 
HETATM   22  C   UNL     1      -3.522   7.940 -31.082  1.00  0.00     0.070 C 
HETATM   23  N   UNL     1      -1.743   8.038 -32.822  1.00  0.00    -0.282 N 
HETATM   24  H   UNL     1      -1.348   8.937 -32.569  1.00  0.00     0.189 HD
HETATM   25  N   UNL     1      -1.205   7.383 -33.857  1.00  0.00    -0.179 NA
HETATM   26  C   UNL     1      -1.900   6.242 -33.925  1.00  0.00     0.060 A 
HETATM   27  C   UNL     1      -1.539   5.244 -34.962  1.00  0.00     0.073 C 
ENDBRANCH  18  20
ENDBRANCH   1  18
TORSDOF 5
ENDMDL
MODEL 4
REMARK VINA RESULT:      -7.8      3.233      4.143
REMARK  5 active torsions:
REMARK  status: ('A' for Active; 'I' for Inactive)
REMARK    1  A    between atoms: C_8  and  C_9 
REMARK    2  A    between atoms: C_9  and  C_10 
REMARK       I    between atoms: C_10  and  N_11 
REMARK    3  A    between atoms: N_11  and  C_12 
REMARK    4  A    between atoms: C_12  and  C_13 
REMARK    5  A    between atoms: C_13  and  C_14 
ROOT
HETATM    1  C   UNL     1      -7.584   3.080 -30.853  1.00  0.00     0.226 C 
HETATM    2  N   UNL     1      -6.526   2.928 -31.724  1.00  0.00    -0.360 N 
HETATM    3  O   UNL     1      -7.468   2.846 -29.650  1.00  0.00    -0.273 OA
HETATM    4  H   UNL     1      -6.630   3.151 -32.704  1.00  0.00     0.162 HD
ENDROOT
BRANCH   2   5
HETATM    5  C   UNL     1      -5.213   2.521 -31.255  1.00  0.00     0.127 C 
BRANCH   5   6
HETATM    6  C   UNL     1      -4.261   2.156 -32.397  1.00  0.00     0.060 C 
BRANCH   6   7
HETATM    7  C   UNL     1      -4.059   0.678 -32.509  1.00  0.00    -0.029 A 
HETATM    8  C   UNL     1      -4.883  -0.241 -33.236  1.00  0.00    -0.002 A 
HETATM    9  C   UNL     1      -4.340  -1.514 -33.066  1.00  0.00     0.044 A 
HETATM   10  C   UNL     1      -6.047  -0.101 -34.020  1.00  0.00     0.016 A 
HETATM   11  C   UNL     1      -4.904  -2.661 -33.641  1.00  0.00     0.054 A 
HETATM   12  N   UNL     1      -3.224  -1.376 -32.274  1.00  0.00    -0.365 N 
HETATM   13  C   UNL     1      -6.058  -2.491 -34.411  1.00  0.00     0.036 A 
HETATM   14 CL   UNL     1      -6.791  -3.872 -35.137  1.00  0.00    -0.084 Cl
HETATM   15  C   UNL     1      -6.626  -1.235 -34.603  1.00  0.00     0.025 A 
HETATM   16  H   UNL     1      -2.625  -2.139 -31.990  1.00  0.00     0.165 HD
HETATM   17  C   UNL     1      -3.046  -0.062 -31.932  1.00  0.00     0.096 A 
ENDBRANCH   6   7
ENDBRANCH   5   6
ENDBRANCH   2   5
BRANCH   1  18
HETATM   18  C   UNL     1      -8.906   3.590 -31.446  1.00  0.00     0.111 C 
HETATM   19  C   UNL     1     -10.078   3.651 -30.467  1.00  0.00     0.025 C 
BRANCH  18  20
HETATM   20  C   UNL     1      -9.266   2.867 -32.717  1.00  0.00     0.004 A 
HETATM   21  C   UNL     1      -9.519   3.444 -33.952  1.00  0.00     0.033 A 
HETATM   22  C   UNL     1      -9.503   4.855 -34.406  1.00  0.00     0.070 C 
HETATM   23  N   UNL     1      -9.798   2.414 -34.803  1.00  0.00    -0.282 N 
HETATM   24  H   UNL     1     -10.017   2.459 -35.792  1.00  0.00     0.189 HD
HETATM   25  N   UNL     1      -9.775   1.213 -34.218  1.00  0.00    -0.179 NA
HETATM   26  C   UNL     1      -9.433   1.468 -32.950  1.00  0.00     0.060 A 
HETATM   27  C   UNL     1      -9.280   0.333 -32.006  1.00  0.00     0.073 C 
ENDBRANCH  18  20
ENDBRANCH   1  18
TORSDOF 5
ENDMDL
MODEL 5
REMARK VINA RESULT:      -7.8      5.900      8.908
REMARK  5 active torsions:
REMARK  status: ('A' for Active; 'I' for Inactive)
REMARK    1  A    between atoms: C_8  and  C_9 
REMARK    2  A    between atoms: C_9  and  C_10 
REMARK       I    between atoms: C_10  and  N_11 
REMARK    3  A    between atoms: N_11  and  C_12 
REMARK    4  A    between atoms: C_12  and  C_13 
REMARK    5  A    between atoms: C_13  and  C_14 
ROOT
HETATM    1  C   UNL     1      -2.978   4.306 -31.574  1.00  0.00     0.226 C 
HETATM    2  N   UNL     1      -4.127   3.914 -30.921  1.00  0.00    -0.360 N 
HETATM    3  O   UNL     1      -2.225   3.488 -32.103  1.00  0.00    -0.273 OA
HETATM    4  H   UNL     1      -4.748   4.600 -30.516  1.00  0.00     0.162 HD
ENDROOT
BRANCH   2   5
HETATM    5  C   UNL     1      -4.522   2.518 -30.858  1.00  0.00     0.127 C 
BRANCH   5   6
HETATM    6  C   UNL     1      -5.030   1.983 -32.201  1.00  0.00     0.060 C 
BRANCH   6   7
HETATM    7  C   UNL     1      -4.490   0.621 -32.503  1.00  0.00    -0.029 A 
HETATM    8  C   UNL     1      -5.139  -0.400 -33.270  1.00  0.00    -0.002 A 
HETATM    9  C   UNL     1      -4.290  -1.506 -33.295  1.00  0.00     0.044 A 
HETATM   10  C   UNL     1      -6.376  -0.481 -33.942  1.00  0.00     0.016 A 
HETATM   11  C   UNL     1      -4.616  -2.697 -33.959  1.00  0.00     0.054 A 
HETATM   12  N   UNL     1      -3.165  -1.170 -32.578  1.00  0.00    -0.365 N 
HETATM   13  C   UNL     1      -5.850  -2.748 -34.614  1.00  0.00     0.036 A 
HETATM   14 CL   UNL     1      -6.299  -4.191 -35.443  1.00  0.00    -0.084 Cl
HETATM   15  C   UNL     1      -6.720  -1.662 -34.611  1.00  0.00     0.025 A 
HETATM   16  H   UNL     1      -2.374  -1.782 -32.434  1.00  0.00     0.165 HD
HETATM   17  C   UNL     1      -3.275   0.106 -32.096  1.00  0.00     0.096 A 
ENDBRANCH   6   7
ENDBRANCH   5   6
ENDBRANCH   2   5
BRANCH   1  18
HETATM   18  C   UNL     1      -2.698   5.815 -31.645  1.00  0.00     0.111 C 
HETATM   19  C   UNL     1      -2.100   6.304 -32.964  1.00  0.00     0.025 C 
BRANCH  18  20
HETATM   20  C   UNL     1      -1.914   6.296 -30.453  1.00  0.00     0.004 A 
HETATM   21  C   UNL     1      -2.393   7.072 -29.408  1.00  0.00     0.033 A 
HETATM   22  C   UNL     1      -3.737   7.629 -29.126  1.00  0.00     0.070 C 
HETATM   23  N   UNL     1      -1.339   7.261 -28.561  1.00  0.00    -0.282 N 
HETATM   24  H   UNL     1      -1.323   7.767 -27.683  1.00  0.00     0.189 HD
HETATM   25  N   UNL     1      -0.204   6.694 -28.982  1.00  0.00    -0.179 NA
HETATM   26  C   UNL     1      -0.540   6.085 -30.125  1.00  0.00     0.060 A 
HETATM   27  C   UNL     1       0.494   5.315 -30.859  1.00  0.00     0.073 C 
ENDBRANCH  18  20
ENDBRANCH   1  18
TORSDOF 5
ENDMDL
MODEL 6
REMARK VINA RESULT:      -7.7      5.421      8.408
REMARK  5 active torsions:
REMARK  status: ('A' for Active; 'I' for Inactive)
REMARK    1  A    between atoms: C_8  and  C_9 
REMARK    2  A    between atoms: C_9  and  C_10 
REMARK       I    between atoms: C_10  and  N_11 
REMARK    3  A    between atoms: N_11  and  C_12 
REMARK    4  A    between atoms: C_12  and  C_13 
REMARK    5  A    between atoms: C_13  and  C_14 
ROOT
HETATM    1  C   UNL     1      -6.820   1.034 -33.884  1.00  0.00     0.226 C 
HETATM    2  N   UNL     1      -6.310   2.205 -33.366  1.00  0.00    -0.360 N 
HETATM    3  O   UNL     1      -7.176   0.949 -35.059  1.00  0.00    -0.273 OA
HETATM    4  H   UNL     1      -5.996   2.251 -32.407  1.00  0.00     0.162 HD
ENDROOT
BRANCH   2   5
HETATM    5  C   UNL     1      -6.136   3.385 -34.195  1.00  0.00     0.127 C 
BRANCH   5   6
HETATM    6  C   UNL     1      -5.698   4.615 -33.395  1.00  0.00     0.060 C 
BRANCH   6   7
HETATM    7  C   UNL     1      -4.342   5.098 -33.802  1.00  0.00    -0.029 A 
HETATM    8  C   UNL     1      -3.273   5.470 -32.925  1.00  0.00    -0.002 A 
HETATM    9  C   UNL     1      -2.198   5.865 -33.722  1.00  0.00     0.044 A 
HETATM   10  C   UNL     1      -3.127   5.510 -31.523  1.00  0.00     0.016 A 
HETATM   11  C   UNL     1      -0.979   6.302 -33.186  1.00  0.00     0.054 A 
HETATM   12  N   UNL     1      -2.593   5.731 -35.032  1.00  0.00    -0.365 N 
HETATM   13  C   UNL     1      -0.864   6.333 -31.793  1.00  0.00     0.036 A 
HETATM   14 CL   UNL     1       0.615   6.865 -31.086  1.00  0.00    -0.084 Cl
HETATM   15  C   UNL     1      -1.916   5.944 -30.969  1.00  0.00     0.025 A 
HETATM   16  H   UNL     1      -2.011   5.942 -35.831  1.00  0.00     0.165 HD
HETATM   17  C   UNL     1      -3.882   5.272 -35.093  1.00  0.00     0.096 A 
ENDBRANCH   6   7
ENDBRANCH   5   6
ENDBRANCH   2   5
BRANCH   1  18
HETATM   18  C   UNL     1      -6.887  -0.174 -32.936  1.00  0.00     0.111 C 
HETATM   19  C   UNL     1      -7.136   0.165 -31.467  1.00  0.00     0.025 C 
BRANCH  18  20
HETATM   20  C   UNL     1      -5.707  -1.093 -33.115  1.00  0.00     0.004 A 
HETATM   21  C   UNL     1      -5.671  -2.251 -33.876  1.00  0.00     0.033 A 
HETATM   22  C   UNL     1      -6.695  -2.914 -34.718  1.00  0.00     0.070 C 
HETATM   23  N   UNL     1      -4.407  -2.751 -33.747  1.00  0.00    -0.282 N 
HETATM   24  H   UNL     1      -4.013  -3.581 -34.176  1.00  0.00     0.189 HD
HETATM   25  N   UNL     1      -3.623  -2.026 -32.942  1.00  0.00    -0.179 NA
HETATM   26  C   UNL     1      -4.393  -1.001 -32.563  1.00  0.00     0.060 A 
HETATM   27  C   UNL     1      -3.818   0.038 -31.672  1.00  0.00     0.073 C 
ENDBRANCH  18  20
ENDBRANCH   1  18
TORSDOF 5
ENDMDL
MODEL 7
REMARK VINA RESULT:      -7.6      2.292      3.073
REMARK  5 active torsions:
REMARK  status: ('A' for Active; 'I' for Inactive)
REMARK    1  A    between atoms: C_8  and  C_9 
REMARK    2  A    between atoms: C_9  and  C_10 
REMARK       I    between atoms: C_10  and  N_11 
REMARK    3  A    between atoms: N_11  and  C_12 
REMARK    4  A    between atoms: C_12  and  C_13 
REMARK    5  A    between atoms: C_13  and  C_14 
ROOT
HETATM    1  C   UNL     1      -9.043   4.102 -33.675  1.00  0.00     0.226 C 
HETATM    2  N   UNL     1      -8.155   3.235 -33.074  1.00  0.00    -0.360 N 
HETATM    3  O   UNL     1      -8.686   4.881 -34.559  1.00  0.00    -0.273 OA
HETATM    4  H   UNL     1      -8.469   2.582 -32.370  1.00  0.00     0.162 HD
ENDROOT
BRANCH   2   5
HETATM    5  C   UNL     1      -6.763   3.176 -33.483  1.00  0.00     0.127 C 
BRANCH   5   6
HETATM    6  C   UNL     1      -6.014   1.987 -32.874  1.00  0.00     0.060 C 
BRANCH   6   7
HETATM    7  C   UNL     1      -6.163   0.747 -33.699  1.00  0.00    -0.029 A 
HETATM    8  C   UNL     1      -5.415  -0.466 -33.553  1.00  0.00    -0.002 A 
HETATM    9  C   UNL     1      -5.868  -1.355 -34.528  1.00  0.00     0.044 A 
HETATM   10  C   UNL     1      -4.391  -0.884 -32.678  1.00  0.00     0.016 A 
HETATM   11  C   UNL     1      -5.345  -2.646 -34.676  1.00  0.00     0.054 A 
HETATM   12  N   UNL     1      -6.856  -0.712 -35.235  1.00  0.00    -0.365 N 
HETATM   13  C   UNL     1      -4.329  -3.032 -33.797  1.00  0.00     0.036 A 
HETATM   14 CL   UNL     1      -3.651  -4.610 -33.940  1.00  0.00    -0.084 Cl
HETATM   15  C   UNL     1      -3.855  -2.172 -32.811  1.00  0.00     0.025 A 
HETATM   16  H   UNL     1      -7.370  -1.121 -36.003  1.00  0.00     0.165 HD
HETATM   17  C   UNL     1      -7.042   0.554 -34.746  1.00  0.00     0.096 A 
ENDBRANCH   6   7
ENDBRANCH   5   6
ENDBRANCH   2   5
BRANCH   1  18
HETATM   18  C   UNL     1     -10.508   4.024 -33.218  1.00  0.00     0.111 C 
HETATM   19  C   UNL     1     -10.713   3.654 -31.750  1.00  0.00     0.025 C 
BRANCH  18  20
HETATM   20  C   UNL     1     -11.338   3.169 -34.140  1.00  0.00     0.004 A 
HETATM   21  C   UNL     1     -11.349   1.784 -34.193  1.00  0.00     0.033 A 
HETATM   22  C   UNL     1     -10.619   0.758 -33.411  1.00  0.00     0.070 C 
HETATM   23  N   UNL     1     -12.245   1.448 -35.167  1.00  0.00    -0.282 N 
HETATM   24  H   UNL     1     -12.523   0.522 -35.472  1.00  0.00     0.189 HD
HETATM   25  N   UNL     1     -12.800   2.504 -35.772  1.00  0.00    -0.179 NA
HETATM   26  C   UNL     1     -12.272   3.561 -35.146  1.00  0.00     0.060 A 
HETATM   27  C   UNL     1     -12.702   4.923 -35.550  1.00  0.00     0.073 C 
ENDBRANCH  18  20
ENDBRANCH   1  18
TORSDOF 5
ENDMDL
MODEL 8
REMARK VINA RESULT:      -7.6     14.283     15.704
REMARK  5 active torsions:
REMARK  status: ('A' for Active; 'I' for Inactive)
REMARK    1  A    between atoms: C_8  and  C_9 
REMARK    2  A    between atoms: C_9  and  C_10 
REMARK       I    between atoms: C_10  and  N_11 
REMARK    3  A    between atoms: N_11  and  C_12 
REMARK    4  A    between atoms: C_12  and  C_13 
REMARK    5  A    between atoms: C_13  and  C_14 
ROOT
HETATM    1  C   UNL     1      -7.120 -12.816 -39.537  1.00  0.00     0.226 C 
HETATM    2  N   UNL     1      -5.970 -12.624 -38.801  1.00  0.00    -0.360 N 
HETATM    3  O   UNL     1      -7.085 -12.979 -40.757  1.00  0.00    -0.273 OA
HETATM    4  H   UNL     1      -6.013 -12.519 -37.798  1.00  0.00     0.162 HD
ENDROOT
BRANCH   2   5
HETATM    5  C   UNL     1      -4.659 -12.643 -39.427  1.00  0.00     0.127 C 
BRANCH   5   6
HETATM    6  C   UNL     1      -3.573 -12.011 -38.552  1.00  0.00     0.060 C 
BRANCH   6   7
HETATM    7  C   UNL     1      -3.013 -12.983 -37.562  1.00  0.00    -0.029 A 
HETATM    8  C   UNL     1      -1.770 -13.686 -37.671  1.00  0.00    -0.002 A 
HETATM    9  C   UNL     1      -1.645 -14.490 -36.539  1.00  0.00     0.044 A 
HETATM   10  C   UNL     1      -0.743 -13.712 -38.637  1.00  0.00     0.016 A 
HETATM   11  C   UNL     1      -0.540 -15.325 -36.321  1.00  0.00     0.054 A 
HETATM   12  N   UNL     1      -2.763 -14.280 -35.766  1.00  0.00    -0.365 N 
HETATM   13  C   UNL     1       0.461 -15.331 -37.296  1.00  0.00     0.036 A 
HETATM   14 CL   UNL     1       1.839 -16.343 -37.076  1.00  0.00    -0.084 Cl
HETATM   15  C   UNL     1       0.369 -14.540 -38.437  1.00  0.00     0.025 A 
HETATM   16  H   UNL     1      -2.939 -14.729 -34.878  1.00  0.00     0.165 HD
HETATM   17  C   UNL     1      -3.594 -13.376 -36.372  1.00  0.00     0.096 A 
ENDBRANCH   6   7
ENDBRANCH   5   6
ENDBRANCH   2   5
BRANCH   1  18
HETATM   18  C   UNL     1      -8.445 -12.855 -38.761  1.00  0.00     0.111 C 
HETATM   19  C   UNL     1      -8.366 -13.487 -37.372  1.00  0.00     0.025 C 
BRANCH  18  20
HETATM   20  C   UNL     1      -9.561 -13.437 -39.587  1.00  0.00     0.004 A 
HETATM   21  C   UNL     1     -10.517 -12.728 -40.299  1.00  0.00     0.033 A 
HETATM   22  C   UNL     1     -10.733 -11.274 -40.488  1.00  0.00     0.070 C 
HETATM   23  N   UNL     1     -11.318 -13.661 -40.893  1.00  0.00    -0.282 N 
HETATM   24  H   UNL     1     -12.113 -13.509 -41.503  1.00  0.00     0.189 HD
HETATM   25  N   UNL     1     -10.978 -14.922 -40.604  1.00  0.00    -0.179 NA
HETATM   26  C   UNL     1      -9.898 -14.804 -39.824  1.00  0.00     0.060 A 
HETATM   27  C   UNL     1      -9.227 -16.035 -39.336  1.00  0.00     0.073 C 
ENDBRANCH  18  20
ENDBRANCH   1  18
TORSDOF 5
ENDMDL
MODEL 9
REMARK VINA RESULT:      -7.4      5.641      7.801
REMARK  5 active torsions:
REMARK  status: ('A' for Active; 'I' for Inactive)
REMARK    1  A    between atoms: C_8  and  C_9 
REMARK    2  A    between atoms: C_9  and  C_10 
REMARK       I    between atoms: C_10  and  N_11 
REMARK    3  A    between atoms: N_11  and  C_12 
REMARK    4  A    between atoms: C_12  and  C_13 
REMARK    5  A    between atoms: C_13  and  C_14 
ROOT
HETATM    1  C   UNL     1      -4.771   4.619 -30.559  1.00  0.00     0.226 C 
HETATM    2  N   UNL     1      -4.490   3.436 -31.209  1.00  0.00    -0.360 N 
HETATM    3  O   UNL     1      -5.537   4.659 -29.595  1.00  0.00    -0.273 OA
HETATM    4  H   UNL     1      -3.838   3.416 -31.981  1.00  0.00     0.162 HD
ENDROOT
BRANCH   2   5
HETATM    5  C   UNL     1      -5.055   2.175 -30.763  1.00  0.00     0.127 C 
BRANCH   5   6
HETATM    6  C   UNL     1      -5.816   1.440 -31.870  1.00  0.00     0.060 C 
BRANCH   6   7
HETATM    7  C   UNL     1      -5.041   0.280 -32.410  1.00  0.00    -0.029 A 
HETATM    8  C   UNL     1      -5.563  -0.802 -33.191  1.00  0.00    -0.002 A 
HETATM    9  C   UNL     1      -4.502  -1.663 -33.472  1.00  0.00     0.044 A 
HETATM   10  C   UNL     1      -6.845  -1.125 -33.681  1.00  0.00     0.016 A 
HETATM   11  C   UNL     1      -4.659  -2.838 -34.219  1.00  0.00     0.054 A 
HETATM   12  N   UNL     1      -3.378  -1.125 -32.892  1.00  0.00    -0.365 N 
HETATM   13  C   UNL     1      -5.942  -3.134 -34.689  1.00  0.00     0.036 A 
HETATM   14 CL   UNL     1      -6.187  -4.569 -35.611  1.00  0.00    -0.084 Cl
HETATM   15  C   UNL     1      -7.022  -2.296 -34.429  1.00  0.00     0.025 A 
HETATM   16  H   UNL     1      -2.456  -1.536 -32.938  1.00  0.00     0.165 HD
HETATM   17  C   UNL     1      -3.690   0.043 -32.249  1.00  0.00     0.096 A 
ENDBRANCH   6   7
ENDBRANCH   5   6
ENDBRANCH   2   5
BRANCH   1  18
HETATM   18  C   UNL     1      -4.057   5.880 -31.068  1.00  0.00     0.111 C 
HETATM   19  C   UNL     1      -4.978   7.022 -31.495  1.00  0.00     0.025 C 
BRANCH  18  20
HETATM   20  C   UNL     1      -3.030   5.556 -32.121  1.00  0.00     0.004 A 
HETATM   21  C   UNL     1      -1.658   5.475 -31.938  1.00  0.00     0.033 A 
HETATM   22  C   UNL     1      -0.809   5.648 -30.736  1.00  0.00     0.070 C 
HETATM   23  N   UNL     1      -1.130   5.156 -33.156  1.00  0.00    -0.282 N 
HETATM   24  H   UNL     1      -0.158   5.000 -33.397  1.00  0.00     0.189 HD
HETATM   25  N   UNL     1      -2.045   5.048 -34.125  1.00  0.00    -0.179 NA
HETATM   26  C   UNL     1      -3.211   5.271 -33.508  1.00  0.00     0.060 A 
HETATM   27  C   UNL     1      -4.466   5.195 -34.296  1.00  0.00     0.073 C 
ENDBRANCH  18  20
ENDBRANCH   1  18
TORSDOF 5
ENDMDL
MODEL 10
REMARK VINA RESULT:      -7.4      6.166      9.283
REMARK  5 active torsions:
REMARK  status: ('A' for Active; 'I' for Inactive)
REMARK    1  A    between atoms: C_8  and  C_9 
REMARK    2  A    between atoms: C_9  and  C_10 
REMARK       I    between atoms: C_10  and  N_11 
REMARK    3  A    between atoms: N_11  and  C_12 
REMARK    4  A    between atoms: C_12  and  C_13 
REMARK    5  A    between atoms: C_13  and  C_14 
ROOT
HETATM    1  C   UNL     1      -5.889   1.672 -32.685  1.00  0.00     0.226 C 
HETATM    2  N   UNL     1      -4.701   2.224 -32.256  1.00  0.00    -0.360 N 
HETATM    3  O   UNL     1      -6.604   2.242 -33.509  1.00  0.00    -0.273 OA
HETATM    4  H   UNL     1      -4.111   1.732 -31.599  1.00  0.00     0.162 HD
ENDROOT
BRANCH   2   5
HETATM    5  C   UNL     1      -4.219   3.488 -32.785  1.00  0.00     0.127 C 
BRANCH   5   6
HETATM    6  C   UNL     1      -2.811   3.839 -32.297  1.00  0.00     0.060 C 
BRANCH   6   7
HETATM    7  C   UNL     1      -2.808   5.041 -31.406  1.00  0.00    -0.029 A 
HETATM    8  C   UNL     1      -1.661   5.643 -30.793  1.00  0.00    -0.002 A 
HETATM    9  C   UNL     1      -2.111   6.728 -30.042  1.00  0.00     0.044 A 
HETATM   10  C   UNL     1      -0.281   5.356 -30.809  1.00  0.00     0.016 A 
HETATM   11  C   UNL     1      -1.248   7.545 -29.300  1.00  0.00     0.054 A 
HETATM   12  N   UNL     1      -3.476   6.790 -30.197  1.00  0.00    -0.365 N 
HETATM   13  C   UNL     1       0.115   7.236 -29.333  1.00  0.00     0.036 A 
HETATM   14 CL   UNL     1       1.218   8.209 -28.435  1.00  0.00    -0.084 Cl
HETATM   15  C   UNL     1       0.598   6.161 -30.073  1.00  0.00     0.025 A 
HETATM   16  H   UNL     1      -4.070   7.486 -29.768  1.00  0.00     0.165 HD
HETATM   17  C   UNL     1      -3.907   5.780 -31.014  1.00  0.00     0.096 A 
ENDBRANCH   6   7
ENDBRANCH   5   6
ENDBRANCH   2   5
BRANCH   1  18
HETATM   18  C   UNL     1      -6.262   0.295 -32.116  1.00  0.00     0.111 C 
HETATM   19  C   UNL     1      -6.230   0.191 -30.591  1.00  0.00     0.025 C 
BRANCH  18  20
HETATM   20  C   UNL     1      -5.485  -0.813 -32.776  1.00  0.00     0.004 A 
HETATM   21  C   UNL     1      -5.920  -1.618 -33.818  1.00  0.00     0.033 A 
HETATM   22  C   UNL     1      -7.188  -1.645 -34.585  1.00  0.00     0.070 C 
HETATM   23  N   UNL     1      -4.892  -2.474 -34.092  1.00  0.00    -0.282 N 
HETATM   24  H   UNL     1      -4.847  -3.194 -34.803  1.00  0.00     0.189 HD
HETATM   25  N   UNL     1      -3.831  -2.310 -33.294  1.00  0.00    -0.179 NA
HETATM   26  C   UNL     1      -4.168  -1.289 -32.498  1.00  0.00     0.060 A 
HETATM   27  C   UNL     1      -3.188  -0.811 -31.491  1.00  0.00     0.073 C 
ENDBRANCH  18  20
ENDBRANCH   1  18
TORSDOF 5
ENDMDL
