MODEL 1
REMARK VINA RESULT:      -8.6      0.000      0.000
REMARK  9 active torsions:
REMARK  status: ('A' for Active; 'I' for Inactive)
REMARK    1  A    between atoms: C_3  and  C_4 
REMARK    2  A    between atoms: C_4  and  C_5 
REMARK       I    between atoms: C_5  and  N_6 
REMARK    3  A    between atoms: N_6  and  C_7 
REMARK    4  A    between atoms: C_16  and  N_17 
REMARK       I    between atoms: N_17  and  C_18 
REMARK    5  A    between atoms: C_18  and  C_19 
REMARK    6  A    between atoms: C_19  and  O_20 
REMARK    7  A    between atoms: C_26  and  C_27 
REMARK    8  A    between atoms: C_27  and  O_28 
REMARK    9  A    between atoms: C_30  and  O_31 
ROOT
HETATM    1  C   UNL     1      -5.627   2.772 -30.085  1.00  0.00     0.016 C 
HETATM    2  C   UNL     1      -4.907   3.035 -31.444  1.00  0.00    -0.030 C 
HETATM    3  C   UNL     1      -5.521   2.091 -32.567  1.00  0.00     0.056 C 
HETATM    4  C   UNL     1      -6.862   2.621 -33.025  1.00  0.00     0.056 A 
HETATM    5  C   UNL     1      -7.298   3.911 -32.799  1.00  0.00     0.012 A 
HETATM    6  S   UNL     1      -8.806   4.171 -33.549  1.00  0.00    -0.055 SA
HETATM    7  C   UNL     1      -8.786   2.550 -34.083  1.00  0.00     0.174 A 
HETATM    8  N   UNL     1      -7.735   1.837 -33.758  1.00  0.00    -0.227 NA
HETATM    9  C   UNL     1      -6.587   4.952 -32.009  1.00  0.00     0.055 C 
HETATM   10  C   UNL     1      -5.092   4.572 -31.805  1.00  0.00     0.012 C 
HETATM   11  C   UNL     1      -4.126   5.147 -32.928  1.00  0.00     0.008 C 
HETATM   12  C   UNL     1      -3.892   6.653 -32.594  1.00  0.00     0.020 C 
HETATM   13  C   UNL     1      -2.725   4.462 -32.882  1.00  0.00     0.128 C 
HETATM   14  C   UNL     1      -2.434   3.833 -31.526  1.00  0.00     0.033 C 
HETATM   15  C   UNL     1      -3.399   2.689 -31.228  1.00  0.00     0.013 C 
ENDROOT
BRANCH   3  16
HETATM   16  C   UNL     1      -5.609   0.609 -32.143  1.00  0.00     0.114 C 
BRANCH  16  17
HETATM   17  C   UNL     1      -5.106  -0.351 -33.204  1.00  0.00     0.218 C 
HETATM   18  N   UNL     1      -6.047  -1.203 -33.723  1.00  0.00    -0.356 N 
HETATM   19  H   UNL     1      -6.963  -1.229 -33.265  1.00  0.00     0.162 HD
HETATM   20  O   UNL     1      -3.923  -0.359 -33.540  1.00  0.00    -0.274 OA
BRANCH  18  21
HETATM   21  C   UNL     1      -5.678  -2.332 -34.546  1.00  0.00     0.084 C 
HETATM   22  C   UNL     1      -4.621  -3.208 -33.878  1.00  0.00     0.025 C 
HETATM   23  C   UNL     1      -4.809  -4.601 -34.474  1.00  0.00     0.002 C 
HETATM   24  C   UNL     1      -6.142  -4.579 -35.219  1.00  0.00     0.002 C 
HETATM   25  C   UNL     1      -6.834  -3.293 -34.792  1.00  0.00     0.025 C 
ENDBRANCH  18  21
ENDBRANCH  16  17
ENDBRANCH   3  16
BRANCH  11  26
HETATM   26  C   UNL     1      -4.725   5.097 -34.359  1.00  0.00     0.176 C 
BRANCH  26  27
HETATM   27  O   UNL     1      -3.811   5.620 -35.322  1.00  0.00    -0.400 OA
HETATM   28  H   UNL     1      -3.299   6.297 -34.834  1.00  0.00     0.209 HD
ENDBRANCH  26  27
ENDBRANCH  11  26
BRANCH   7  29
HETATM   29  N   UNL     1      -9.876   2.188 -34.815  1.00  0.00    -0.304 N 
HETATM   30  C   UNL     1     -11.118   1.998 -34.254  1.00  0.00     0.247 C 
HETATM   31  O   UNL     1     -11.447   2.229 -33.095  1.00  0.00    -0.271 OA
HETATM   32  H   UNL     1      -9.756   2.026 -35.806  1.00  0.00     0.171 HD
BRANCH  30  33
HETATM   33  C   UNL     1     -12.134   1.502 -35.286  1.00  0.00     0.270 C 
BRANCH  33  34
HETATM   34  O   UNL     1     -13.477   1.865 -34.968  1.00  0.00    -0.387 OA
HETATM   35  C   UNL     1     -14.182   0.796 -34.343  1.00  0.00     0.202 C 
ENDBRANCH  33  34
ENDBRANCH  30  33
ENDBRANCH   7  29
BRANCH  13  36
HETATM   36  O   UNL     1      -2.623   3.456 -33.895  1.00  0.00    -0.395 OA
HETATM   37  H   UNL     1      -3.044   2.645 -33.556  1.00  0.00     0.210 HD
ENDBRANCH  13  36
TORSDOF 9
ENDMDL
MODEL 2
REMARK VINA RESULT:      -8.2      2.626      6.695
REMARK  9 active torsions:
REMARK  status: ('A' for Active; 'I' for Inactive)
REMARK    1  A    between atoms: C_3  and  C_4 
REMARK    2  A    between atoms: C_4  and  C_5 
REMARK       I    between atoms: C_5  and  N_6 
REMARK    3  A    between atoms: N_6  and  C_7 
REMARK    4  A    between atoms: C_16  and  N_17 
REMARK       I    between atoms: N_17  and  C_18 
REMARK    5  A    between atoms: C_18  and  C_19 
REMARK    6  A    between atoms: C_19  and  O_20 
REMARK    7  A    between atoms: C_26  and  C_27 
REMARK    8  A    between atoms: C_27  and  O_28 
REMARK    9  A    between atoms: C_30  and  O_31 
ROOT
HETATM    1  C   UNL     1      -6.648   2.103 -34.994  1.00  0.00     0.016 C 
HETATM    2  C   UNL     1      -7.338   1.802 -33.627  1.00  0.00    -0.030 C 
HETATM    3  C   UNL     1      -6.252   1.808 -32.466  1.00  0.00     0.056 C 
HETATM    4  C   UNL     1      -5.869   3.227 -32.110  1.00  0.00     0.056 A 
HETATM    5  C   UNL     1      -6.618   4.336 -32.451  1.00  0.00     0.012 A 
HETATM    6  S   UNL     1      -5.928   5.747 -31.791  1.00  0.00    -0.055 SA
HETATM    7  C   UNL     1      -4.674   4.792 -31.137  1.00  0.00     0.174 A 
HETATM    8  N   UNL     1      -4.740   3.502 -31.360  1.00  0.00    -0.227 NA
HETATM    9  C   UNL     1      -7.851   4.339 -33.283  1.00  0.00     0.055 C 
HETATM   10  C   UNL     1      -8.455   2.909 -33.391  1.00  0.00     0.012 C 
HETATM   11  C   UNL     1      -9.535   2.584 -32.272  1.00  0.00     0.008 C 
HETATM   12  C   UNL     1     -10.860   3.284 -32.707  1.00  0.00     0.020 C 
HETATM   13  C   UNL     1      -9.844   1.056 -32.203  1.00  0.00     0.128 C 
HETATM   14  C   UNL     1      -9.480   0.335 -33.495  1.00  0.00     0.033 C 
HETATM   15  C   UNL     1      -7.976   0.382 -33.749  1.00  0.00     0.013 C 
ENDROOT
BRANCH   3  16
HETATM   16  C   UNL     1      -5.011   0.945 -32.782  1.00  0.00     0.114 C 
BRANCH  16  17
HETATM   17  C   UNL     1      -5.246  -0.541 -32.588  1.00  0.00     0.218 C 
HETATM   18  N   UNL     1      -5.042  -1.320 -33.698  1.00  0.00    -0.356 N 
HETATM   19  H   UNL     1      -4.892  -0.840 -34.590  1.00  0.00     0.162 HD
HETATM   20  O   UNL     1      -5.618  -0.987 -31.504  1.00  0.00    -0.274 OA
BRANCH  18  21
HETATM   21  C   UNL     1      -5.464  -2.702 -33.745  1.00  0.00     0.084 C 
HETATM   22  C   UNL     1      -6.625  -2.914 -34.713  1.00  0.00     0.025 C 
HETATM   23  C   UNL     1      -6.526  -4.373 -35.153  1.00  0.00     0.002 C 
HETATM   24  C   UNL     1      -5.160  -4.875 -34.692  1.00  0.00     0.002 C 
HETATM   25  C   UNL     1      -4.384  -3.636 -34.272  1.00  0.00     0.025 C 
ENDBRANCH  18  21
ENDBRANCH  16  17
ENDBRANCH   3  16
BRANCH  11  26
HETATM   26  C   UNL     1      -9.176   3.143 -30.870  1.00  0.00     0.176 C 
BRANCH  26  27
HETATM   27  O   UNL     1     -10.222   2.900 -29.931  1.00  0.00    -0.400 OA
HETATM   28  H   UNL     1      -9.861   2.216 -29.330  1.00  0.00     0.209 HD
ENDBRANCH  26  27
ENDBRANCH  11  26
BRANCH   7  29
HETATM   29  N   UNL     1      -3.746   5.495 -30.430  1.00  0.00    -0.304 N 
HETATM   30  C   UNL     1      -2.596   5.990 -30.999  1.00  0.00     0.247 C 
HETATM   31  O   UNL     1      -2.300   5.982 -32.189  1.00  0.00    -0.271 OA
HETATM   32  H   UNL     1      -3.900   5.633 -29.439  1.00  0.00     0.171 HD
BRANCH  30  33
HETATM   33  C   UNL     1      -1.689   6.652 -29.958  1.00  0.00     0.270 C 
BRANCH  33  34
HETATM   34  O   UNL     1      -0.300   6.499 -30.249  1.00  0.00    -0.387 OA
HETATM   35  C   UNL     1       0.260   5.369 -29.586  1.00  0.00     0.202 C 
ENDBRANCH  33  34
ENDBRANCH  30  33
ENDBRANCH   7  29
BRANCH  13  36
HETATM   36  O   UNL     1      -9.142   0.448 -31.115  1.00  0.00    -0.395 OA
HETATM   37  H   UNL     1      -8.602  -0.279 -31.475  1.00  0.00     0.210 HD
ENDBRANCH  13  36
TORSDOF 9
ENDMDL
MODEL 3
REMARK VINA RESULT:      -8.0      2.691      6.589
REMARK  9 active torsions:
REMARK  status: ('A' for Active; 'I' for Inactive)
REMARK    1  A    between atoms: C_3  and  C_4 
REMARK    2  A    between atoms: C_4  and  C_5 
REMARK       I    between atoms: C_5  and  N_6 
REMARK    3  A    between atoms: N_6  and  C_7 
REMARK    4  A    between atoms: C_16  and  N_17 
REMARK       I    between atoms: N_17  and  C_18 
REMARK    5  A    between atoms: C_18  and  C_19 
REMARK    6  A    between atoms: C_19  and  O_20 
REMARK    7  A    between atoms: C_26  and  C_27 
REMARK    8  A    between atoms: C_27  and  O_28 
REMARK    9  A    between atoms: C_30  and  O_31 
ROOT
HETATM    1  C   UNL     1      -7.017   3.159 -29.456  1.00  0.00     0.016 C 
HETATM    2  C   UNL     1      -6.944   4.003 -30.767  1.00  0.00    -0.030 C 
HETATM    3  C   UNL     1      -5.907   3.340 -31.773  1.00  0.00     0.056 C 
HETATM    4  C   UNL     1      -6.519   2.124 -32.434  1.00  0.00     0.056 A 
HETATM    5  C   UNL     1      -7.874   1.863 -32.463  1.00  0.00     0.012 A 
HETATM    6  S   UNL     1      -8.192   0.464 -33.383  1.00  0.00    -0.055 SA
HETATM    7  C   UNL     1      -6.514   0.290 -33.642  1.00  0.00     0.174 A 
HETATM    8  N   UNL     1      -5.738   1.202 -33.108  1.00  0.00    -0.227 NA
HETATM    9  C   UNL     1      -8.934   2.659 -31.790  1.00  0.00     0.055 C 
HETATM   10  C   UNL     1      -8.406   4.066 -31.389  1.00  0.00     0.012 C 
HETATM   11  C   UNL     1      -8.647   5.181 -32.495  1.00  0.00     0.008 C 
HETATM   12  C   UNL     1     -10.145   5.605 -32.389  1.00  0.00     0.020 C 
HETATM   13  C   UNL     1      -7.804   6.462 -32.207  1.00  0.00     0.128 C 
HETATM   14  C   UNL     1      -7.388   6.564 -30.745  1.00  0.00     0.033 C 
HETATM   15  C   UNL     1      -6.449   5.426 -30.357  1.00  0.00     0.013 C 
ENDROOT
BRANCH   3  16
HETATM   16  C   UNL     1      -4.545   3.010 -31.124  1.00  0.00     0.114 C 
BRANCH  16  17
HETATM   17  C   UNL     1      -3.368   3.648 -31.838  1.00  0.00     0.218 C 
HETATM   18  N   UNL     1      -2.411   4.198 -31.023  1.00  0.00    -0.356 N 
HETATM   19  H   UNL     1      -2.625   4.265 -30.024  1.00  0.00     0.162 HD
HETATM   20  O   UNL     1      -3.314   3.678 -33.066  1.00  0.00    -0.274 OA
BRANCH  18  21
HETATM   21  C   UNL     1      -1.370   5.054 -31.545  1.00  0.00     0.084 C 
HETATM   22  C   UNL     1      -1.859   6.485 -31.757  1.00  0.00     0.025 C 
HETATM   23  C   UNL     1      -0.611   7.360 -31.655  1.00  0.00     0.002 C 
HETATM   24  C   UNL     1       0.495   6.476 -31.083  1.00  0.00     0.002 C 
HETATM   25  C   UNL     1      -0.197   5.216 -30.587  1.00  0.00     0.025 C 
ENDBRANCH  18  21
ENDBRANCH  16  17
ENDBRANCH   3  16
BRANCH  11  26
HETATM   26  C   UNL     1      -8.426   4.683 -33.948  1.00  0.00     0.176 C 
BRANCH  26  27
HETATM   27  O   UNL     1      -8.799   5.679 -34.899  1.00  0.00    -0.400 OA
HETATM   28  H   UNL     1      -9.698   5.420 -35.188  1.00  0.00     0.209 HD
ENDBRANCH  26  27
ENDBRANCH  11  26
BRANCH   7  29
HETATM   29  N   UNL     1      -6.174  -0.787 -34.404  1.00  0.00    -0.304 N 
HETATM   30  C   UNL     1      -5.263  -1.732 -33.992  1.00  0.00     0.247 C 
HETATM   31  O   UNL     1      -4.734  -1.814 -32.888  1.00  0.00    -0.271 OA
HETATM   32  H   UNL     1      -6.591  -0.877 -35.321  1.00  0.00     0.171 HD
BRANCH  30  33
HETATM   33  C   UNL     1      -4.999  -2.775 -35.081  1.00  0.00     0.270 C 
BRANCH  33  34
HETATM   34  O   UNL     1      -5.324  -4.104 -34.673  1.00  0.00    -0.387 OA
HETATM   35  C   UNL     1      -6.631  -4.483 -35.097  1.00  0.00     0.202 C 
ENDBRANCH  33  34
ENDBRANCH  30  33
ENDBRANCH   7  29
BRANCH  13  36
HETATM   36  O   UNL     1      -6.633   6.490 -33.029  1.00  0.00    -0.395 OA
HETATM   37  H   UNL     1      -6.601   7.356 -33.476  1.00  0.00     0.210 HD
ENDBRANCH  13  36
TORSDOF 9
ENDMDL
MODEL 4
REMARK VINA RESULT:      -7.9      3.598      6.599
REMARK  9 active torsions:
REMARK  status: ('A' for Active; 'I' for Inactive)
REMARK    1  A    between atoms: C_3  and  C_4 
REMARK    2  A    between atoms: C_4  and  C_5 
REMARK       I    between atoms: C_5  and  N_6 
REMARK    3  A    between atoms: N_6  and  C_7 
REMARK    4  A    between atoms: C_16  and  N_17 
REMARK       I    between atoms: N_17  and  C_18 
REMARK    5  A    between atoms: C_18  and  C_19 
REMARK    6  A    between atoms: C_19  and  O_20 
REMARK    7  A    between atoms: C_26  and  C_27 
REMARK    8  A    between atoms: C_27  and  O_28 
REMARK    9  A    between atoms: C_30  and  O_31 
ROOT
HETATM    1  C   UNL     1      -6.323   3.050 -34.295  1.00  0.00     0.016 C 
HETATM    2  C   UNL     1      -7.271   2.567 -33.154  1.00  0.00    -0.030 C 
HETATM    3  C   UNL     1      -6.453   2.438 -31.797  1.00  0.00     0.056 C 
HETATM    4  C   UNL     1      -6.212   3.805 -31.196  1.00  0.00     0.056 A 
HETATM    5  C   UNL     1      -6.917   4.938 -31.550  1.00  0.00     0.012 A 
HETATM    6  S   UNL     1      -6.439   6.262 -30.590  1.00  0.00    -0.055 SA
HETATM    7  C   UNL     1      -5.312   5.248 -29.806  1.00  0.00     0.174 A 
HETATM    8  N   UNL     1      -5.276   3.997 -30.195  1.00  0.00    -0.227 NA
HETATM    9  C   UNL     1      -7.947   5.031 -32.619  1.00  0.00     0.055 C 
HETATM   10  C   UNL     1      -8.456   3.619 -33.027  1.00  0.00     0.012 C 
HETATM   11  C   UNL     1      -9.733   3.138 -32.212  1.00  0.00     0.008 C 
HETATM   12  C   UNL     1     -10.965   3.870 -32.830  1.00  0.00     0.020 C 
HETATM   13  C   UNL     1      -9.988   1.610 -32.399  1.00  0.00     0.128 C 
HETATM   14  C   UNL     1      -9.332   1.066 -33.662  1.00  0.00     0.033 C 
HETATM   15  C   UNL     1      -7.812   1.165 -33.582  1.00  0.00     0.013 C 
ENDROOT
BRANCH   3  16
HETATM   16  C   UNL     1      -5.140   1.640 -31.944  1.00  0.00     0.114 C 
BRANCH  16  17
HETATM   17  C   UNL     1      -5.345   0.137 -31.943  1.00  0.00     0.218 C 
HETATM   18  N   UNL     1      -4.895  -0.521 -33.059  1.00  0.00    -0.356 N 
HETATM   19  H   UNL     1      -4.593   0.051 -33.854  1.00  0.00     0.162 HD
HETATM   20  O   UNL     1      -5.904  -0.425 -31.003  1.00  0.00    -0.274 OA
BRANCH  18  21
HETATM   21  C   UNL     1      -5.240  -1.899 -33.320  1.00  0.00     0.084 C 
HETATM   22  C   UNL     1      -6.399  -2.023 -34.308  1.00  0.00     0.025 C 
HETATM   23  C   UNL     1      -6.224  -3.388 -34.970  1.00  0.00     0.002 C 
HETATM   24  C   UNL     1      -4.827  -3.878 -34.596  1.00  0.00     0.002 C 
HETATM   25  C   UNL     1      -4.116  -2.679 -33.989  1.00  0.00     0.025 C 
ENDBRANCH  18  21
ENDBRANCH  16  17
ENDBRANCH   3  16
BRANCH  11  26
HETATM   26  C   UNL     1      -9.699   3.517 -30.708  1.00  0.00     0.176 C 
BRANCH  26  27
HETATM   27  O   UNL     1     -10.974   3.330 -30.096  1.00  0.00    -0.400 OA
HETATM   28  H   UNL     1     -11.499   4.107 -30.378  1.00  0.00     0.209 HD
ENDBRANCH  26  27
ENDBRANCH  11  26
BRANCH   7  29
HETATM   29  N   UNL     1      -4.582   5.867 -28.836  1.00  0.00    -0.304 N 
HETATM   30  C   UNL     1      -5.079   6.118 -27.578  1.00  0.00     0.247 C 
HETATM   31  O   UNL     1      -6.150   5.738 -27.119  1.00  0.00    -0.271 OA
HETATM   32  H   UNL     1      -3.647   6.179 -29.065  1.00  0.00     0.171 HD
BRANCH  30  33
HETATM   33  C   UNL     1      -4.084   6.910 -26.726  1.00  0.00     0.270 C 
BRANCH  33  34
HETATM   34  O   UNL     1      -4.705   7.611 -25.648  1.00  0.00    -0.387 OA
HETATM   35  C   UNL     1      -4.864   8.997 -25.938  1.00  0.00     0.202 C 
ENDBRANCH  33  34
ENDBRANCH  30  33
ENDBRANCH   7  29
BRANCH  13  36
HETATM   36  O   UNL     1      -9.505   0.877 -31.269  1.00  0.00    -0.395 OA
HETATM   37  H   UNL     1      -9.838  -0.037 -31.341  1.00  0.00     0.210 HD
ENDBRANCH  13  36
TORSDOF 9
ENDMDL
MODEL 5
REMARK VINA RESULT:      -7.9      2.754      6.675
REMARK  9 active torsions:
REMARK  status: ('A' for Active; 'I' for Inactive)
REMARK    1  A    between atoms: C_3  and  C_4 
REMARK    2  A    between atoms: C_4  and  C_5 
REMARK       I    between atoms: C_5  and  N_6 
REMARK    3  A    between atoms: N_6  and  C_7 
REMARK    4  A    between atoms: C_16  and  N_17 
REMARK       I    between atoms: N_17  and  C_18 
REMARK    5  A    between atoms: C_18  and  C_19 
REMARK    6  A    between atoms: C_19  and  O_20 
REMARK    7  A    between atoms: C_26  and  C_27 
REMARK    8  A    between atoms: C_27  and  O_28 
REMARK    9  A    between atoms: C_30  and  O_31 
ROOT
HETATM    1  C   UNL     1     -10.225   4.646 -34.821  1.00  0.00     0.016 C 
HETATM    2  C   UNL     1     -10.081   4.212 -33.329  1.00  0.00    -0.030 C 
HETATM    3  C   UNL     1      -8.729   3.398 -33.137  1.00  0.00     0.056 C 
HETATM    4  C   UNL     1      -7.545   4.340 -33.114  1.00  0.00     0.056 A 
HETATM    5  C   UNL     1      -7.647   5.699 -32.898  1.00  0.00     0.012 A 
HETATM    6  S   UNL     1      -6.099   6.411 -32.840  1.00  0.00    -0.055 SA
HETATM    7  C   UNL     1      -5.416   4.876 -33.141  1.00  0.00     0.174 A 
HETATM    8  N   UNL     1      -6.252   3.874 -33.265  1.00  0.00    -0.227 NA
HETATM    9  C   UNL     1      -8.909   6.471 -32.745  1.00  0.00     0.055 C 
HETATM   10  C   UNL     1     -10.106   5.527 -32.435  1.00  0.00     0.012 C 
HETATM   11  C   UNL     1     -10.366   5.311 -30.883  1.00  0.00     0.008 C 
HETATM   12  C   UNL     1     -11.108   6.583 -30.368  1.00  0.00     0.020 C 
HETATM   13  C   UNL     1     -11.324   4.107 -30.626  1.00  0.00     0.128 C 
HETATM   14  C   UNL     1     -12.171   3.772 -31.847  1.00  0.00     0.033 C 
HETATM   15  C   UNL     1     -11.303   3.294 -33.008  1.00  0.00     0.013 C 
ENDROOT
BRANCH   3  16
HETATM   16  C   UNL     1      -8.539   2.269 -34.172  1.00  0.00     0.114 C 
BRANCH  16  17
HETATM   17  C   UNL     1      -8.059   0.966 -33.560  1.00  0.00     0.218 C 
HETATM   18  N   UNL     1      -6.777   0.600 -33.882  1.00  0.00    -0.356 N 
HETATM   19  H   UNL     1      -6.300   1.143 -34.609  1.00  0.00     0.162 HD
HETATM   20  O   UNL     1      -8.799   0.291 -32.847  1.00  0.00    -0.274 OA
BRANCH  18  21
HETATM   21  C   UNL     1      -6.267  -0.720 -33.590  1.00  0.00     0.084 C 
HETATM   22  C   UNL     1      -6.632  -1.729 -34.677  1.00  0.00     0.025 C 
HETATM   23  C   UNL     1      -5.554  -2.808 -34.610  1.00  0.00     0.002 C 
HETATM   24  C   UNL     1      -4.439  -2.255 -33.725  1.00  0.00     0.002 C 
HETATM   25  C   UNL     1      -4.746  -0.775 -33.549  1.00  0.00     0.025 C 
ENDBRANCH  18  21
ENDBRANCH  16  17
ENDBRANCH   3  16
BRANCH  11  26
HETATM   26  C   UNL     1      -9.069   5.181 -30.040  1.00  0.00     0.176 C 
BRANCH  26  27
HETATM   27  O   UNL     1      -9.111   6.025 -28.890  1.00  0.00    -0.400 OA
HETATM   28  H   UNL     1      -9.381   6.900 -29.237  1.00  0.00     0.209 HD
ENDBRANCH  26  27
ENDBRANCH  11  26
BRANCH   7  29
HETATM   29  N   UNL     1      -4.055   4.871 -33.197  1.00  0.00    -0.304 N 
HETATM   30  C   UNL     1      -3.358   5.121 -34.356  1.00  0.00     0.247 C 
HETATM   31  O   UNL     1      -3.821   5.486 -35.431  1.00  0.00    -0.271 OA
HETATM   32  H   UNL     1      -3.540   4.646 -32.355  1.00  0.00     0.171 HD
BRANCH  30  33
HETATM   33  C   UNL     1      -1.849   4.955 -34.155  1.00  0.00     0.270 C 
BRANCH  33  34
HETATM   34  O   UNL     1      -1.106   6.122 -34.507  1.00  0.00    -0.387 OA
HETATM   35  C   UNL     1      -1.352   7.199 -33.607  1.00  0.00     0.202 C 
ENDBRANCH  33  34
ENDBRANCH  30  33
ENDBRANCH   7  29
BRANCH  13  36
HETATM   36  O   UNL     1     -10.582   2.946 -30.240  1.00  0.00    -0.395 OA
HETATM   37  H   UNL     1     -10.731   2.257 -30.914  1.00  0.00     0.210 HD
ENDBRANCH  13  36
TORSDOF 9
ENDMDL
MODEL 6
REMARK VINA RESULT:      -7.8      1.798      2.085
REMARK  9 active torsions:
REMARK  status: ('A' for Active; 'I' for Inactive)
REMARK    1  A    between atoms: C_3  and  C_4 
REMARK    2  A    between atoms: C_4  and  C_5 
REMARK       I    between atoms: C_5  and  N_6 
REMARK    3  A    between atoms: N_6  and  C_7 
REMARK    4  A    between atoms: C_16  and  N_17 
REMARK       I    between atoms: N_17  and  C_18 
REMARK    5  A    between atoms: C_18  and  C_19 
REMARK    6  A    between atoms: C_19  and  O_20 
REMARK    7  A    between atoms: C_26  and  C_27 
REMARK    8  A    between atoms: C_27  and  O_28 
REMARK    9  A    between atoms: C_30  and  O_31 
ROOT
HETATM    1  C   UNL     1      -6.555   2.464 -29.820  1.00  0.00     0.016 C 
HETATM    2  C   UNL     1      -6.373   2.977 -31.282  1.00  0.00    -0.030 C 
HETATM    3  C   UNL     1      -7.235   2.084 -32.275  1.00  0.00     0.056 C 
HETATM    4  C   UNL     1      -8.698   2.459 -32.186  1.00  0.00     0.056 A 
HETATM    5  C   UNL     1      -9.158   3.639 -31.636  1.00  0.00     0.012 A 
HETATM    6  S   UNL     1     -10.850   3.756 -31.807  1.00  0.00    -0.055 SA
HETATM    7  C   UNL     1     -10.849   2.224 -32.561  1.00  0.00     0.174 A 
HETATM    8  N   UNL     1      -9.684   1.642 -32.707  1.00  0.00    -0.227 NA
HETATM    9  C   UNL     1      -8.329   4.678 -30.970  1.00  0.00     0.055 C 
HETATM   10  C   UNL     1      -6.824   4.501 -31.323  1.00  0.00     0.012 C 
HETATM   11  C   UNL     1      -6.363   5.332 -32.596  1.00  0.00     0.008 C 
HETATM   12  C   UNL     1      -6.181   6.810 -32.130  1.00  0.00     0.020 C 
HETATM   13  C   UNL     1      -4.969   4.859 -33.114  1.00  0.00     0.128 C 
HETATM   14  C   UNL     1      -4.170   4.133 -32.038  1.00  0.00     0.033 C 
HETATM   15  C   UNL     1      -4.855   2.834 -31.623  1.00  0.00     0.013 C 
ENDROOT
BRANCH   3  16
HETATM   16  C   UNL     1      -7.023   0.567 -32.078  1.00  0.00     0.114 C 
BRANCH  16  17
HETATM   17  C   UNL     1      -6.514  -0.136 -33.322  1.00  0.00     0.218 C 
HETATM   18  N   UNL     1      -6.778  -1.480 -33.391  1.00  0.00    -0.356 N 
HETATM   19  H   UNL     1      -7.162  -1.928 -32.554  1.00  0.00     0.162 HD
HETATM   20  O   UNL     1      -5.887   0.478 -34.184  1.00  0.00    -0.274 OA
BRANCH  18  21
HETATM   21  C   UNL     1      -6.148  -2.329 -34.376  1.00  0.00     0.084 C 
HETATM   22  C   UNL     1      -4.723  -2.709 -33.978  1.00  0.00     0.025 C 
HETATM   23  C   UNL     1      -4.445  -4.036 -34.680  1.00  0.00     0.002 C 
HETATM   24  C   UNL     1      -5.788  -4.544 -35.198  1.00  0.00     0.002 C 
HETATM   25  C   UNL     1      -6.844  -3.674 -34.535  1.00  0.00     0.025 C 
ENDBRANCH  18  21
ENDBRANCH  16  17
ENDBRANCH   3  16
BRANCH  11  26
HETATM   26  C   UNL     1      -7.405   5.354 -33.746  1.00  0.00     0.176 C 
BRANCH  26  27
HETATM   27  O   UNL     1      -8.264   6.489 -33.646  1.00  0.00    -0.400 OA
HETATM   28  H   UNL     1      -8.360   6.642 -32.684  1.00  0.00     0.209 HD
ENDBRANCH  26  27
ENDBRANCH  11  26
BRANCH   7  29
HETATM   29  N   UNL     1     -12.082   1.790 -32.945  1.00  0.00    -0.304 N 
HETATM   30  C   UNL     1     -12.581   1.998 -34.210  1.00  0.00     0.247 C 
HETATM   31  O   UNL     1     -11.984   2.472 -35.171  1.00  0.00    -0.271 OA
HETATM   32  H   UNL     1     -12.660   1.321 -32.261  1.00  0.00     0.171 HD
BRANCH  30  33
HETATM   33  C   UNL     1     -14.022   1.494 -34.338  1.00  0.00     0.270 C 
BRANCH  33  34
HETATM   34  O   UNL     1     -14.567   1.040 -33.100  1.00  0.00    -0.387 OA
HETATM   35  C   UNL     1     -15.468   1.989 -32.537  1.00  0.00     0.202 C 
ENDBRANCH  33  34
ENDBRANCH  30  33
ENDBRANCH   7  29
BRANCH  13  36
HETATM   36  O   UNL     1      -5.118   3.997 -34.246  1.00  0.00    -0.395 OA
HETATM   37  H   UNL     1      -6.020   3.628 -34.226  1.00  0.00     0.210 HD
ENDBRANCH  13  36
TORSDOF 9
ENDMDL
MODEL 7
REMARK VINA RESULT:      -7.5      2.876      6.800
REMARK  9 active torsions:
REMARK  status: ('A' for Active; 'I' for Inactive)
REMARK    1  A    between atoms: C_3  and  C_4 
REMARK    2  A    between atoms: C_4  and  C_5 
REMARK       I    between atoms: C_5  and  N_6 
REMARK    3  A    between atoms: N_6  and  C_7 
REMARK    4  A    between atoms: C_16  and  N_17 
REMARK       I    between atoms: N_17  and  C_18 
REMARK    5  A    between atoms: C_18  and  C_19 
REMARK    6  A    between atoms: C_19  and  O_20 
REMARK    7  A    between atoms: C_26  and  C_27 
REMARK    8  A    between atoms: C_27  and  O_28 
REMARK    9  A    between atoms: C_30  and  O_31 
ROOT
HETATM    1  C   UNL     1      -6.790   3.935 -34.193  1.00  0.00     0.016 C 
HETATM    2  C   UNL     1      -7.354   3.191 -32.942  1.00  0.00    -0.030 C 
HETATM    3  C   UNL     1      -7.897   1.760 -33.370  1.00  0.00     0.056 C 
HETATM    4  C   UNL     1      -6.745   0.802 -33.583  1.00  0.00     0.056 A 
HETATM    5  C   UNL     1      -5.467   1.016 -33.106  1.00  0.00     0.012 A 
HETATM    6  S   UNL     1      -4.471  -0.323 -33.452  1.00  0.00    -0.055 SA
HETATM    7  C   UNL     1      -5.792  -1.066 -34.237  1.00  0.00     0.174 A 
HETATM    8  N   UNL     1      -6.920  -0.399 -34.247  1.00  0.00    -0.227 NA
HETATM    9  C   UNL     1      -4.988   2.232 -32.397  1.00  0.00     0.055 C 
HETATM   10  C   UNL     1      -6.183   3.079 -31.873  1.00  0.00     0.012 C 
HETATM   11  C   UNL     1      -6.623   2.716 -30.390  1.00  0.00     0.008 C 
HETATM   12  C   UNL     1      -5.594   3.395 -29.434  1.00  0.00     0.020 C 
HETATM   13  C   UNL     1      -8.017   3.325 -30.042  1.00  0.00     0.128 C 
HETATM   14  C   UNL     1      -8.373   4.502 -30.942  1.00  0.00     0.033 C 
HETATM   15  C   UNL     1      -8.529   4.061 -32.394  1.00  0.00     0.013 C 
ENDROOT
BRANCH   3  16
HETATM   16  C   UNL     1      -8.838   1.800 -34.593  1.00  0.00     0.114 C 
BRANCH  16  17
HETATM   17  C   UNL     1     -10.286   1.506 -34.248  1.00  0.00     0.218 C 
HETATM   18  N   UNL     1     -11.218   2.212 -34.965  1.00  0.00    -0.356 N 
HETATM   19  H   UNL     1     -10.878   2.971 -35.562  1.00  0.00     0.162 HD
HETATM   20  O   UNL     1     -10.575   0.703 -33.363  1.00  0.00    -0.274 OA
BRANCH  18  21
HETATM   21  C   UNL     1     -12.612   2.233 -34.584  1.00  0.00     0.084 C 
HETATM   22  C   UNL     1     -13.235   0.839 -34.609  1.00  0.00     0.025 C 
HETATM   23  C   UNL     1     -14.393   0.893 -33.616  1.00  0.00     0.002 C 
HETATM   24  C   UNL     1     -14.225   2.186 -32.820  1.00  0.00     0.002 C 
HETATM   25  C   UNL     1     -12.831   2.696 -33.150  1.00  0.00     0.025 C 
ENDBRANCH  18  21
ENDBRANCH  16  17
ENDBRANCH   3  16
BRANCH  11  26
HETATM   26  C   UNL     1      -6.586   1.196 -30.076  1.00  0.00     0.176 C 
BRANCH  26  27
HETATM   27  O   UNL     1      -5.677   0.907 -29.016  1.00  0.00    -0.400 OA
HETATM   28  H   UNL     1      -6.124   1.238 -28.210  1.00  0.00     0.209 HD
ENDBRANCH  26  27
ENDBRANCH  11  26
BRANCH   7  29
HETATM   29  N   UNL     1      -5.516  -2.296 -34.753  1.00  0.00    -0.304 N 
HETATM   30  C   UNL     1      -6.363  -3.370 -34.606  1.00  0.00     0.247 C 
HETATM   31  O   UNL     1      -7.490  -3.360 -34.122  1.00  0.00    -0.271 OA
HETATM   32  H   UNL     1      -4.639  -2.427 -35.239  1.00  0.00     0.171 HD
BRANCH  30  33
HETATM   33  C   UNL     1      -5.763  -4.648 -35.197  1.00  0.00     0.270 C 
BRANCH  33  34
HETATM   34  O   UNL     1      -5.079  -5.444 -34.229  1.00  0.00    -0.387 OA
HETATM   35  C   UNL     1      -3.775  -4.941 -33.954  1.00  0.00     0.202 C 
ENDBRANCH  33  34
ENDBRANCH  30  33
ENDBRANCH   7  29
BRANCH  13  36
HETATM   36  O   UNL     1      -9.042   2.332 -30.147  1.00  0.00    -0.395 OA
HETATM   37  H   UNL     1      -9.399   2.364 -31.053  1.00  0.00     0.210 HD
ENDBRANCH  13  36
TORSDOF 9
ENDMDL
MODEL 8
REMARK VINA RESULT:      -7.4      2.629      6.613
REMARK  9 active torsions:
REMARK  status: ('A' for Active; 'I' for Inactive)
REMARK    1  A    between atoms: C_3  and  C_4 
REMARK    2  A    between atoms: C_4  and  C_5 
REMARK       I    between atoms: C_5  and  N_6 
REMARK    3  A    between atoms: N_6  and  C_7 
REMARK    4  A    between atoms: C_16  and  N_17 
REMARK       I    between atoms: N_17  and  C_18 
REMARK    5  A    between atoms: C_18  and  C_19 
REMARK    6  A    between atoms: C_19  and  O_20 
REMARK    7  A    between atoms: C_26  and  C_27 
REMARK    8  A    between atoms: C_27  and  O_28 
REMARK    9  A    between atoms: C_30  and  O_31 
ROOT
HETATM    1  C   UNL     1      -5.545   4.246 -34.616  1.00  0.00     0.016 C 
HETATM    2  C   UNL     1      -6.379   4.077 -33.307  1.00  0.00    -0.030 C 
HETATM    3  C   UNL     1      -6.750   2.544 -33.104  1.00  0.00     0.056 C 
HETATM    4  C   UNL     1      -5.551   1.775 -32.595  1.00  0.00     0.056 A 
HETATM    5  C   UNL     1      -4.441   2.366 -32.027  1.00  0.00     0.012 A 
HETATM    6  S   UNL     1      -3.346   1.178 -31.482  1.00  0.00    -0.055 SA
HETATM    7  C   UNL     1      -4.405  -0.024 -32.071  1.00  0.00     0.174 A 
HETATM    8  N   UNL     1      -5.516   0.392 -32.628  1.00  0.00    -0.227 NA
HETATM    9  C   UNL     1      -4.193   3.827 -31.901  1.00  0.00     0.055 C 
HETATM   10  C   UNL     1      -5.508   4.634 -32.099  1.00  0.00     0.012 C 
HETATM   11  C   UNL     1      -6.293   4.923 -30.748  1.00  0.00     0.008 C 
HETATM   12  C   UNL     1      -5.557   6.105 -30.043  1.00  0.00     0.020 C 
HETATM   13  C   UNL     1      -7.748   5.413 -31.026  1.00  0.00     0.128 C 
HETATM   14  C   UNL     1      -7.906   5.988 -32.428  1.00  0.00     0.033 C 
HETATM   15  C   UNL     1      -7.681   4.918 -33.492  1.00  0.00     0.013 C 
ENDROOT
BRANCH   3  16
HETATM   16  C   UNL     1      -7.358   1.887 -34.362  1.00  0.00     0.114 C 
BRANCH  16  17
HETATM   17  C   UNL     1      -8.715   1.256 -34.115  1.00  0.00     0.218 C 
HETATM   18  N   UNL     1      -9.792   1.983 -34.556  1.00  0.00    -0.356 N 
HETATM   19  H   UNL     1      -9.616   2.938 -34.879  1.00  0.00     0.162 HD
HETATM   20  O   UNL     1      -8.815   0.177 -33.535  1.00  0.00    -0.274 OA
BRANCH  18  21
HETATM   21  C   UNL     1     -11.144   1.644 -34.174  1.00  0.00     0.084 C 
HETATM   22  C   UNL     1     -11.711   2.618 -33.144  1.00  0.00     0.025 C 
HETATM   23  C   UNL     1     -13.225   2.571 -33.329  1.00  0.00     0.002 C 
HETATM   24  C   UNL     1     -13.481   1.832 -34.640  1.00  0.00     0.002 C 
HETATM   25  C   UNL     1     -12.130   1.736 -35.332  1.00  0.00     0.025 C 
ENDBRANCH  18  21
ENDBRANCH  16  17
ENDBRANCH   3  16
BRANCH  11  26
HETATM   26  C   UNL     1      -6.285   3.735 -29.750  1.00  0.00     0.176 C 
BRANCH  26  27
HETATM   27  O   UNL     1      -5.403   3.982 -28.656  1.00  0.00    -0.400 OA
HETATM   28  H   UNL     1      -5.161   4.927 -28.742  1.00  0.00     0.209 HD
ENDBRANCH  26  27
ENDBRANCH  11  26
BRANCH   7  29
HETATM   29  N   UNL     1      -3.970  -1.299 -31.871  1.00  0.00    -0.304 N 
HETATM   30  C   UNL     1      -3.831  -2.206 -32.896  1.00  0.00     0.247 C 
HETATM   31  O   UNL     1      -3.953  -1.987 -34.096  1.00  0.00    -0.271 OA
HETATM   32  H   UNL     1      -3.769  -1.595 -30.925  1.00  0.00     0.171 HD
BRANCH  30  33
HETATM   33  C   UNL     1      -3.420  -3.587 -32.376  1.00  0.00     0.270 C 
BRANCH  33  34
HETATM   34  O   UNL     1      -3.153  -4.521 -33.422  1.00  0.00    -0.387 OA
HETATM   35  C   UNL     1      -4.329  -5.217 -33.826  1.00  0.00     0.202 C 
ENDBRANCH  33  34
ENDBRANCH  30  33
ENDBRANCH   7  29
BRANCH  13  36
HETATM   36  O   UNL     1      -8.681   4.342 -30.852  1.00  0.00    -0.395 OA
HETATM   37  H   UNL     1      -9.231   4.290 -31.656  1.00  0.00     0.210 HD
ENDBRANCH  13  36
TORSDOF 9
ENDMDL
MODEL 9
REMARK VINA RESULT:      -7.4      2.560      3.288
REMARK  9 active torsions:
REMARK  status: ('A' for Active; 'I' for Inactive)
REMARK    1  A    between atoms: C_3  and  C_4 
REMARK    2  A    between atoms: C_4  and  C_5 
REMARK       I    between atoms: C_5  and  N_6 
REMARK    3  A    between atoms: N_6  and  C_7 
REMARK    4  A    between atoms: C_16  and  N_17 
REMARK       I    between atoms: N_17  and  C_18 
REMARK    5  A    between atoms: C_18  and  C_19 
REMARK    6  A    between atoms: C_19  and  O_20 
REMARK    7  A    between atoms: C_26  and  C_27 
REMARK    8  A    between atoms: C_27  and  O_28 
REMARK    9  A    between atoms: C_30  and  O_31 
ROOT
HETATM    1  C   UNL     1      -8.974   0.373 -31.185  1.00  0.00     0.016 C 
HETATM    2  C   UNL     1      -7.766   1.162 -31.781  1.00  0.00    -0.030 C 
HETATM    3  C   UNL     1      -8.116   1.643 -33.255  1.00  0.00     0.056 C 
HETATM    4  C   UNL     1      -9.045   2.836 -33.214  1.00  0.00     0.056 A 
HETATM    5  C   UNL     1      -9.242   3.621 -32.096  1.00  0.00     0.012 A 
HETATM    6  S   UNL     1     -10.275   4.927 -32.460  1.00  0.00    -0.055 SA
HETATM    7  C   UNL     1     -10.413   4.336 -34.055  1.00  0.00     0.174 A 
HETATM    8  N   UNL     1      -9.737   3.249 -34.339  1.00  0.00    -0.227 NA
HETATM    9  C   UNL     1      -8.662   3.387 -30.747  1.00  0.00     0.055 C 
HETATM   10  C   UNL     1      -7.467   2.393 -30.819  1.00  0.00     0.012 C 
HETATM   11  C   UNL     1      -6.056   3.100 -31.007  1.00  0.00     0.008 C 
HETATM   12  C   UNL     1      -5.639   3.654 -29.610  1.00  0.00     0.020 C 
HETATM   13  C   UNL     1      -4.955   2.075 -31.422  1.00  0.00     0.128 C 
HETATM   14  C   UNL     1      -5.326   0.645 -31.048  1.00  0.00     0.033 C 
HETATM   15  C   UNL     1      -6.557   0.175 -31.817  1.00  0.00     0.013 C 
ENDROOT
BRANCH   3  16
HETATM   16  C   UNL     1      -8.674   0.517 -34.152  1.00  0.00     0.114 C 
BRANCH  16  17
HETATM   17  C   UNL     1      -7.594  -0.265 -34.878  1.00  0.00     0.218 C 
HETATM   18  N   UNL     1      -7.492  -1.589 -34.534  1.00  0.00    -0.356 N 
HETATM   19  H   UNL     1      -8.038  -1.910 -33.729  1.00  0.00     0.162 HD
HETATM   20  O   UNL     1      -6.859   0.283 -35.697  1.00  0.00    -0.274 OA
BRANCH  18  21
HETATM   21  C   UNL     1      -6.364  -2.395 -34.942  1.00  0.00     0.084 C 
HETATM   22  C   UNL     1      -5.152  -2.187 -34.036  1.00  0.00     0.025 C 
HETATM   23  C   UNL     1      -4.343  -3.478 -34.136  1.00  0.00     0.002 C 
HETATM   24  C   UNL     1      -5.241  -4.502 -34.828  1.00  0.00     0.002 C 
HETATM   25  C   UNL     1      -6.633  -3.890 -34.840  1.00  0.00     0.025 C 
ENDBRANCH  18  21
ENDBRANCH  16  17
ENDBRANCH   3  16
BRANCH  11  26
HETATM   26  C   UNL     1      -6.084   4.311 -31.977  1.00  0.00     0.176 C 
BRANCH  26  27
HETATM   27  O   UNL     1      -4.814   4.958 -32.034  1.00  0.00    -0.400 OA
HETATM   28  H   UNL     1      -4.461   4.891 -31.123  1.00  0.00     0.209 HD
ENDBRANCH  26  27
ENDBRANCH  11  26
BRANCH   7  29
HETATM   29  N   UNL     1     -11.209   5.088 -34.863  1.00  0.00    -0.304 N 
HETATM   30  C   UNL     1     -12.571   4.909 -34.940  1.00  0.00     0.247 C 
HETATM   31  O   UNL     1     -13.258   4.170 -34.243  1.00  0.00    -0.271 OA
HETATM   32  H   UNL     1     -10.773   5.787 -35.451  1.00  0.00     0.171 HD
BRANCH  30  33
HETATM   33  C   UNL     1     -13.202   5.821 -35.996  1.00  0.00     0.270 C 
BRANCH  33  34
HETATM   34  O   UNL     1     -13.962   6.889 -35.431  1.00  0.00    -0.387 OA
HETATM   35  C   UNL     1     -15.040   7.278 -36.278  1.00  0.00     0.202 C 
ENDBRANCH  33  34
ENDBRANCH  30  33
ENDBRANCH   7  29
BRANCH  13  36
HETATM   36  O   UNL     1      -4.710   2.141 -32.830  1.00  0.00    -0.395 OA
HETATM   37  H   UNL     1      -5.571   2.107 -33.286  1.00  0.00     0.210 HD
ENDBRANCH  13  36
TORSDOF 9
ENDMDL
MODEL 10
REMARK VINA RESULT:      -7.4     15.793     18.377
REMARK  9 active torsions:
REMARK  status: ('A' for Active; 'I' for Inactive)
REMARK    1  A    between atoms: C_3  and  C_4 
REMARK    2  A    between atoms: C_4  and  C_5 
REMARK       I    between atoms: C_5  and  N_6 
REMARK    3  A    between atoms: N_6  and  C_7 
REMARK    4  A    between atoms: C_16  and  N_17 
REMARK       I    between atoms: N_17  and  C_18 
REMARK    5  A    between atoms: C_18  and  C_19 
REMARK    6  A    between atoms: C_19  and  O_20 
REMARK    7  A    between atoms: C_26  and  C_27 
REMARK    8  A    between atoms: C_27  and  O_28 
REMARK    9  A    between atoms: C_30  and  O_31 
ROOT
HETATM    1  C   UNL     1      -7.386 -12.442 -38.489  1.00  0.00     0.016 C 
HETATM    2  C   UNL     1      -6.483 -13.592 -39.033  1.00  0.00    -0.030 C 
HETATM    3  C   UNL     1      -5.241 -13.803 -38.063  1.00  0.00     0.056 C 
HETATM    4  C   UNL     1      -5.667 -14.550 -36.818  1.00  0.00     0.056 A 
HETATM    5  C   UNL     1      -6.839 -15.272 -36.715  1.00  0.00     0.012 A 
HETATM    6  S   UNL     1      -6.926 -16.056 -35.205  1.00  0.00    -0.055 SA
HETATM    7  C   UNL     1      -5.428 -15.353 -34.787  1.00  0.00     0.174 A 
HETATM    8  N   UNL     1      -4.863 -14.592 -35.693  1.00  0.00    -0.227 NA
HETATM    9  C   UNL     1      -7.903 -15.368 -37.750  1.00  0.00     0.055 C 
HETATM   10  C   UNL     1      -7.375 -14.905 -39.138  1.00  0.00     0.012 C 
HETATM   11  C   UNL     1      -6.783 -16.083 -40.024  1.00  0.00     0.008 C 
HETATM   12  C   UNL     1      -8.001 -16.846 -40.632  1.00  0.00     0.020 C 
HETATM   13  C   UNL     1      -5.960 -15.533 -41.230  1.00  0.00     0.128 C 
HETATM   14  C   UNL     1      -6.335 -14.098 -41.579  1.00  0.00     0.033 C 
HETATM   15  C   UNL     1      -5.983 -13.143 -40.443  1.00  0.00     0.013 C 
ENDROOT
BRANCH   3  16
HETATM   16  C   UNL     1      -4.502 -12.493 -37.717  1.00  0.00     0.114 C 
BRANCH  16  17
HETATM   17  C   UNL     1      -3.138 -12.381 -38.372  1.00  0.00     0.218 C 
HETATM   18  N   UNL     1      -2.610 -13.557 -38.840  1.00  0.00    -0.356 N 
HETATM   19  H   UNL     1      -3.094 -14.424 -38.589  1.00  0.00     0.162 HD
HETATM   20  O   UNL     1      -2.558 -11.299 -38.444  1.00  0.00    -0.274 OA
BRANCH  18  21
HETATM   21  C   UNL     1      -1.229 -13.658 -39.255  1.00  0.00     0.084 C 
HETATM   22  C   UNL     1      -0.321 -14.119 -38.117  1.00  0.00     0.025 C 
HETATM   23  C   UNL     1       0.871 -14.791 -38.795  1.00  0.00     0.002 C 
HETATM   24  C   UNL     1       0.486 -14.985 -40.260  1.00  0.00     0.002 C 
HETATM   25  C   UNL     1      -1.007 -14.707 -40.336  1.00  0.00     0.025 C 
ENDBRANCH  18  21
ENDBRANCH  16  17
ENDBRANCH   3  16
BRANCH  11  26
HETATM   26  C   UNL     1      -5.962 -17.125 -39.218  1.00  0.00     0.176 C 
BRANCH  26  27
HETATM   27  O   UNL     1      -5.534 -18.203 -40.049  1.00  0.00    -0.400 OA
HETATM   28  H   UNL     1      -4.582 -18.032 -40.203  1.00  0.00     0.209 HD
ENDBRANCH  26  27
ENDBRANCH  11  26
BRANCH   7  29
HETATM   29  N   UNL     1      -4.979 -15.688 -33.546  1.00  0.00    -0.304 N 
HETATM   30  C   UNL     1      -5.156 -14.878 -32.448  1.00  0.00     0.247 C 
HETATM   31  O   UNL     1      -5.813 -13.843 -32.392  1.00  0.00    -0.271 OA
HETATM   32  H   UNL     1      -4.472 -16.556 -33.437  1.00  0.00     0.171 HD
BRANCH  30  33
HETATM   33  C   UNL     1      -4.469 -15.452 -31.206  1.00  0.00     0.270 C 
BRANCH  33  34
HETATM   34  O   UNL     1      -5.296 -15.416 -30.043  1.00  0.00    -0.387 OA
HETATM   35  C   UNL     1      -5.758 -16.715 -29.680  1.00  0.00     0.202 C 
ENDBRANCH  33  34
ENDBRANCH  30  33
ENDBRANCH   7  29
BRANCH  13  36
HETATM   36  O   UNL     1      -4.558 -15.595 -40.953  1.00  0.00    -0.395 OA
HETATM   37  H   UNL     1      -4.258 -14.696 -40.723  1.00  0.00     0.210 HD
ENDBRANCH  13  36
TORSDOF 9
ENDMDL
