MODEL 1
REMARK VINA RESULT:      -8.5      0.000      0.000
REMARK  5 active torsions:
REMARK  status: ('A' for Active; 'I' for Inactive)
REMARK    1  A    between atoms: C_3  and  N_4 
REMARK       I    between atoms: N_4  and  C_5 
REMARK    2  A    between atoms: C_5  and  C_6 
REMARK    3  A    between atoms: C_6  and  C_7 
REMARK    4  A    between atoms: C_16  and  O_17 
REMARK    5  A    between atoms: O_17  and  C_18 
ROOT
HETATM    1  C   UNL     1      -4.286  -1.758 -33.474  1.00  0.00     0.190 A 
HETATM    2  N   UNL     1      -4.597  -2.843 -34.229  1.00  0.00    -0.235 NA
HETATM    3  C   UNL     1      -4.113  -4.038 -33.827  1.00  0.00     0.119 A 
HETATM    4  C   UNL     1      -3.311  -4.207 -32.711  1.00  0.00     0.021 A 
HETATM    5  C   UNL     1      -2.981  -3.081 -31.963  1.00  0.00     0.028 A 
HETATM    6  C   UNL     1      -3.472  -1.829 -32.347  1.00  0.00     0.097 A 
HETATM    7  C   UNL     1      -3.125  -0.662 -31.600  1.00  0.00     0.104 C 
HETATM    8  N   UNL     1      -2.818   0.268 -30.977  1.00  0.00    -0.191 NA
ENDROOT
BRANCH   1   9
HETATM    9  O   UNL     1      -4.745  -0.495 -33.837  1.00  0.00    -0.291 OA
BRANCH   9  10
HETATM   10  C   UNL     1      -6.092  -0.228 -33.874  1.00  0.00     0.078 A 
HETATM   11  C   UNL     1      -6.657  -0.124 -35.140  1.00  0.00     0.039 A 
HETATM   12  C   UNL     1      -8.000   0.233 -35.280  1.00  0.00     0.033 A 
HETATM   13  C   UNL     1      -8.801   0.515 -34.160  1.00  0.00     0.040 A 
HETATM   14  C   UNL     1      -8.250   0.357 -32.875  1.00  0.00    -0.033 A 
HETATM   15  C   UNL     1      -9.026   0.448 -31.590  1.00  0.00     0.050 C 
HETATM   16  C   UNL     1      -6.876   0.041 -32.754  1.00  0.00     0.046 A 
BRANCH  13  17
HETATM   17  N   UNL     1     -10.131   0.897 -34.453  1.00  0.00    -0.326 N 
HETATM   18  C   UNL     1     -10.709   2.139 -34.254  1.00  0.00     0.227 C 
HETATM   19  O   UNL     1     -10.125   3.158 -33.890  1.00  0.00    -0.273 OA
HETATM   20  H   UNL     1     -10.613   0.307 -35.121  1.00  0.00     0.169 HD
BRANCH  18  21
HETATM   21  C   UNL     1     -12.205   2.164 -34.575  1.00  0.00     0.159 C 
BRANCH  21  22
HETATM   22  C   UNL     1     -13.031   2.542 -33.385  1.00  0.00     0.017 A 
HETATM   23  N   UNL     1     -12.529   3.303 -32.351  1.00  0.00    -0.369 N 
HETATM   24  H   UNL     1     -11.590   3.692 -32.328  1.00  0.00     0.165 HD
HETATM   25  C   UNL     1     -13.489   3.470 -31.390  1.00  0.00     0.088 A 
HETATM   26  C   UNL     1     -14.619   2.799 -31.798  1.00  0.00     0.019 A 
HETATM   27  C   UNL     1     -14.332   2.213 -33.054  1.00  0.00     0.027 A 
ENDBRANCH  21  22
ENDBRANCH  18  21
ENDBRANCH  13  17
ENDBRANCH   9  10
ENDBRANCH   1   9
TORSDOF 5
ENDMDL
MODEL 2
REMARK VINA RESULT:      -8.1      4.982      8.185
REMARK  5 active torsions:
REMARK  status: ('A' for Active; 'I' for Inactive)
REMARK    1  A    between atoms: C_3  and  N_4 
REMARK       I    between atoms: N_4  and  C_5 
REMARK    2  A    between atoms: C_5  and  C_6 
REMARK    3  A    between atoms: C_6  and  C_7 
REMARK    4  A    between atoms: C_16  and  O_17 
REMARK    5  A    between atoms: O_17  and  C_18 
ROOT
HETATM    1  C   UNL     1      -5.513  -0.750 -33.026  1.00  0.00     0.190 A 
HETATM    2  N   UNL     1      -4.380  -1.450 -33.289  1.00  0.00    -0.235 NA
HETATM    3  C   UNL     1      -4.454  -2.425 -34.221  1.00  0.00     0.119 A 
HETATM    4  C   UNL     1      -5.617  -2.756 -34.896  1.00  0.00     0.021 A 
HETATM    5  C   UNL     1      -6.776  -2.046 -34.596  1.00  0.00     0.028 A 
HETATM    6  C   UNL     1      -6.731  -1.024 -33.642  1.00  0.00     0.097 A 
HETATM    7  C   UNL     1      -7.917  -0.300 -33.310  1.00  0.00     0.104 C 
HETATM    8  N   UNL     1      -8.899   0.263 -33.056  1.00  0.00    -0.191 NA
ENDROOT
BRANCH   1   9
HETATM    9  O   UNL     1      -5.507   0.263 -32.071  1.00  0.00    -0.291 OA
BRANCH   9  10
HETATM   10  C   UNL     1      -4.913   1.471 -32.342  1.00  0.00     0.078 A 
HETATM   11  C   UNL     1      -3.677   1.689 -31.742  1.00  0.00     0.039 A 
HETATM   12  C   UNL     1      -3.037   2.922 -31.886  1.00  0.00     0.033 A 
HETATM   13  C   UNL     1      -3.627   3.970 -32.613  1.00  0.00     0.040 A 
HETATM   14  C   UNL     1      -4.851   3.737 -33.268  1.00  0.00    -0.033 A 
HETATM   15  C   UNL     1      -5.511   4.695 -34.220  1.00  0.00     0.050 C 
HETATM   16  C   UNL     1      -5.506   2.499 -33.072  1.00  0.00     0.046 A 
BRANCH  13  17
HETATM   17  N   UNL     1      -2.882   5.172 -32.645  1.00  0.00    -0.326 N 
HETATM   18  C   UNL     1      -1.907   5.530 -33.561  1.00  0.00     0.227 C 
HETATM   19  O   UNL     1      -1.603   4.905 -34.574  1.00  0.00    -0.273 OA
HETATM   20  H   UNL     1      -3.290   5.947 -32.135  1.00  0.00     0.169 HD
BRANCH  18  21
HETATM   21  C   UNL     1      -1.224   6.857 -33.222  1.00  0.00     0.159 C 
BRANCH  21  22
HETATM   22  C   UNL     1      -0.745   6.897 -31.803  1.00  0.00     0.017 A 
HETATM   23  N   UNL     1      -1.414   7.591 -30.818  1.00  0.00    -0.369 N 
HETATM   24  H   UNL     1      -2.288   8.091 -30.961  1.00  0.00     0.165 HD
HETATM   25  C   UNL     1      -0.740   7.477 -29.633  1.00  0.00     0.088 A 
HETATM   26  C   UNL     1       0.384   6.716 -29.855  1.00  0.00     0.019 A 
HETATM   27  C   UNL     1       0.384   6.350 -31.221  1.00  0.00     0.027 A 
ENDBRANCH  21  22
ENDBRANCH  18  21
ENDBRANCH  13  17
ENDBRANCH   9  10
ENDBRANCH   1   9
TORSDOF 5
ENDMDL
MODEL 3
REMARK VINA RESULT:      -8.0      1.486      2.650
REMARK  5 active torsions:
REMARK  status: ('A' for Active; 'I' for Inactive)
REMARK    1  A    between atoms: C_3  and  N_4 
REMARK       I    between atoms: N_4  and  C_5 
REMARK    2  A    between atoms: C_5  and  C_6 
REMARK    3  A    between atoms: C_6  and  C_7 
REMARK    4  A    between atoms: C_16  and  O_17 
REMARK    5  A    between atoms: O_17  and  C_18 
ROOT
HETATM    1  C   UNL     1      -4.747  -2.139 -33.705  1.00  0.00     0.190 A 
HETATM    2  N   UNL     1      -4.048  -1.408 -32.800  1.00  0.00    -0.235 NA
HETATM    3  C   UNL     1      -3.177  -2.069 -32.007  1.00  0.00     0.119 A 
HETATM    4  C   UNL     1      -2.981  -3.439 -32.055  1.00  0.00     0.021 A 
HETATM    5  C   UNL     1      -3.725  -4.177 -32.972  1.00  0.00     0.028 A 
HETATM    6  C   UNL     1      -4.629  -3.521 -33.814  1.00  0.00     0.097 A 
HETATM    7  C   UNL     1      -5.413  -4.268 -34.745  1.00  0.00     0.104 C 
HETATM    8  N   UNL     1      -6.042  -4.904 -35.484  1.00  0.00    -0.191 NA
ENDROOT
BRANCH   1   9
HETATM    9  O   UNL     1      -5.667  -1.520 -34.547  1.00  0.00    -0.291 OA
BRANCH   9  10
HETATM   10  C   UNL     1      -6.510  -0.550 -34.064  1.00  0.00     0.078 A 
HETATM   11  C   UNL     1      -7.676  -1.004 -33.457  1.00  0.00     0.039 A 
HETATM   12  C   UNL     1      -8.636  -0.090 -33.015  1.00  0.00     0.033 A 
HETATM   13  C   UNL     1      -8.463   1.293 -33.189  1.00  0.00     0.040 A 
HETATM   14  C   UNL     1      -7.261   1.760 -33.753  1.00  0.00    -0.033 A 
HETATM   15  C   UNL     1      -6.859   3.207 -33.839  1.00  0.00     0.050 C 
HETATM   16  C   UNL     1      -6.322   0.820 -34.237  1.00  0.00     0.046 A 
BRANCH  13  17
HETATM   17  N   UNL     1      -9.531   2.096 -32.725  1.00  0.00    -0.326 N 
HETATM   18  C   UNL     1     -10.477   2.756 -33.491  1.00  0.00     0.227 C 
HETATM   19  O   UNL     1     -10.614   2.662 -34.709  1.00  0.00    -0.273 OA
HETATM   20  H   UNL     1      -9.798   1.944 -31.760  1.00  0.00     0.169 HD
BRANCH  18  21
HETATM   21  C   UNL     1     -11.418   3.631 -32.660  1.00  0.00     0.159 C 
BRANCH  21  22
HETATM   22  C   UNL     1     -12.778   3.020 -32.521  1.00  0.00     0.017 A 
HETATM   23  N   UNL     1     -13.159   1.898 -33.226  1.00  0.00    -0.369 N 
HETATM   24  H   UNL     1     -12.549   1.383 -33.857  1.00  0.00     0.165 HD
HETATM   25  C   UNL     1     -14.455   1.580 -32.926  1.00  0.00     0.088 A 
HETATM   26  C   UNL     1     -14.925   2.513 -32.030  1.00  0.00     0.019 A 
HETATM   27  C   UNL     1     -13.870   3.421 -31.774  1.00  0.00     0.027 A 
ENDBRANCH  21  22
ENDBRANCH  18  21
ENDBRANCH  13  17
ENDBRANCH   9  10
ENDBRANCH   1   9
TORSDOF 5
ENDMDL
MODEL 4
REMARK VINA RESULT:      -7.9      4.973      8.262
REMARK  5 active torsions:
REMARK  status: ('A' for Active; 'I' for Inactive)
REMARK    1  A    between atoms: C_3  and  N_4 
REMARK       I    between atoms: N_4  and  C_5 
REMARK    2  A    between atoms: C_5  and  C_6 
REMARK    3  A    between atoms: C_6  and  C_7 
REMARK    4  A    between atoms: C_16  and  O_17 
REMARK    5  A    between atoms: O_17  and  C_18 
ROOT
HETATM    1  C   UNL     1      -5.679  -1.073 -33.025  1.00  0.00     0.190 A 
HETATM    2  N   UNL     1      -4.544  -1.798 -33.193  1.00  0.00    -0.235 NA
HETATM    3  C   UNL     1      -4.540  -2.726 -34.174  1.00  0.00     0.119 A 
HETATM    4  C   UNL     1      -5.627  -2.986 -34.992  1.00  0.00     0.021 A 
HETATM    5  C   UNL     1      -6.791  -2.251 -34.789  1.00  0.00     0.028 A 
HETATM    6  C   UNL     1      -6.826  -1.276 -33.787  1.00  0.00     0.097 A 
HETATM    7  C   UNL     1      -8.021  -0.528 -33.554  1.00  0.00     0.104 C 
HETATM    8  N   UNL     1      -9.010   0.056 -33.385  1.00  0.00    -0.191 NA
ENDROOT
BRANCH   1   9
HETATM    9  O   UNL     1      -5.754  -0.106 -32.026  1.00  0.00    -0.291 OA
BRANCH   9  10
HETATM   10  C   UNL     1      -5.015   1.048 -32.118  1.00  0.00     0.078 A 
HETATM   11  C   UNL     1      -3.879   1.109 -31.319  1.00  0.00     0.039 A 
HETATM   12  C   UNL     1      -3.114   2.278 -31.278  1.00  0.00     0.033 A 
HETATM   13  C   UNL     1      -3.479   3.416 -32.017  1.00  0.00     0.040 A 
HETATM   14  C   UNL     1      -4.597   3.341 -32.869  1.00  0.00    -0.033 A 
HETATM   15  C   UNL     1      -5.003   4.409 -33.847  1.00  0.00     0.050 C 
HETATM   16  C   UNL     1      -5.385   2.167 -32.862  1.00  0.00     0.046 A 
BRANCH  13  17
HETATM   17  N   UNL     1      -2.633   4.537 -31.851  1.00  0.00    -0.326 N 
HETATM   18  C   UNL     1      -2.897   5.686 -31.125  1.00  0.00     0.227 C 
HETATM   19  O   UNL     1      -3.874   5.877 -30.404  1.00  0.00    -0.273 OA
HETATM   20  H   UNL     1      -1.651   4.368 -32.037  1.00  0.00     0.169 HD
BRANCH  18  21
HETATM   21  C   UNL     1      -1.802   6.746 -31.262  1.00  0.00     0.159 C 
BRANCH  21  22
HETATM   22  C   UNL     1      -0.916   6.800 -30.055  1.00  0.00     0.017 A 
HETATM   23  N   UNL     1      -1.336   6.375 -28.813  1.00  0.00    -0.369 N 
HETATM   24  H   UNL     1      -2.248   5.967 -28.624  1.00  0.00     0.165 HD
HETATM   25  C   UNL     1      -0.337   6.565 -27.897  1.00  0.00     0.088 A 
HETATM   26  C   UNL     1       0.735   7.130 -28.548  1.00  0.00     0.019 A 
HETATM   27  C   UNL     1       0.372   7.280 -29.908  1.00  0.00     0.027 A 
ENDBRANCH  21  22
ENDBRANCH  18  21
ENDBRANCH  13  17
ENDBRANCH   9  10
ENDBRANCH   1   9
TORSDOF 5
ENDMDL
MODEL 5
REMARK VINA RESULT:      -7.8      5.073      6.719
REMARK  5 active torsions:
REMARK  status: ('A' for Active; 'I' for Inactive)
REMARK    1  A    between atoms: C_3  and  N_4 
REMARK       I    between atoms: N_4  and  C_5 
REMARK    2  A    between atoms: C_5  and  C_6 
REMARK    3  A    between atoms: C_6  and  C_7 
REMARK    4  A    between atoms: C_16  and  O_17 
REMARK    5  A    between atoms: O_17  and  C_18 
ROOT
HETATM    1  C   UNL     1      -0.844   5.153 -31.671  1.00  0.00     0.190 A 
HETATM    2  N   UNL     1      -0.333   4.556 -30.564  1.00  0.00    -0.235 NA
HETATM    3  C   UNL     1       0.265   5.350 -29.649  1.00  0.00     0.119 A 
HETATM    4  C   UNL     1       0.400   6.720 -29.793  1.00  0.00     0.021 A 
HETATM    5  C   UNL     1      -0.107   7.313 -30.945  1.00  0.00     0.028 A 
HETATM    6  C   UNL     1      -0.740   6.520 -31.908  1.00  0.00     0.097 A 
HETATM    7  C   UNL     1      -1.248   7.113 -33.105  1.00  0.00     0.104 C 
HETATM    8  N   UNL     1      -1.641   7.623 -34.070  1.00  0.00    -0.191 NA
ENDROOT
BRANCH   1   9
HETATM    9  O   UNL     1      -1.466   4.391 -32.656  1.00  0.00    -0.291 OA
BRANCH   9  10
HETATM   10  C   UNL     1      -2.766   3.976 -32.498  1.00  0.00     0.078 A 
HETATM   11  C   UNL     1      -2.976   2.982 -31.548  1.00  0.00     0.039 A 
HETATM   12  C   UNL     1      -4.249   2.433 -31.379  1.00  0.00     0.033 A 
HETATM   13  C   UNL     1      -5.334   2.849 -32.169  1.00  0.00     0.040 A 
HETATM   14  C   UNL     1      -5.140   3.892 -33.094  1.00  0.00    -0.033 A 
HETATM   15  C   UNL     1      -6.236   4.560 -33.877  1.00  0.00     0.050 C 
HETATM   16  C   UNL     1      -3.834   4.403 -33.283  1.00  0.00     0.046 A 
BRANCH  13  17
HETATM   17  N   UNL     1      -6.555   2.181 -31.913  1.00  0.00    -0.326 N 
HETATM   18  C   UNL     1      -7.202   1.273 -32.733  1.00  0.00     0.227 C 
HETATM   19  O   UNL     1      -6.762   0.805 -33.782  1.00  0.00    -0.273 OA
HETATM   20  H   UNL     1      -6.831   2.145 -30.939  1.00  0.00     0.169 HD
BRANCH  18  21
HETATM   21  C   UNL     1      -8.565   0.838 -32.190  1.00  0.00     0.159 C 
BRANCH  21  22
HETATM   22  C   UNL     1      -9.686   1.230 -33.103  1.00  0.00     0.017 A 
HETATM   23  N   UNL     1      -9.633   2.357 -33.894  1.00  0.00    -0.369 N 
HETATM   24  H   UNL     1      -8.834   2.983 -33.949  1.00  0.00     0.165 HD
HETATM   25  C   UNL     1     -10.799   2.482 -34.600  1.00  0.00     0.088 A 
HETATM   26  C   UNL     1     -11.620   1.434 -34.253  1.00  0.00     0.019 A 
HETATM   27  C   UNL     1     -10.921   0.644 -33.310  1.00  0.00     0.027 A 
ENDBRANCH  21  22
ENDBRANCH  18  21
ENDBRANCH  13  17
ENDBRANCH   9  10
ENDBRANCH   1   9
TORSDOF 5
ENDMDL
MODEL 6
REMARK VINA RESULT:      -7.8      5.247      6.808
REMARK  5 active torsions:
REMARK  status: ('A' for Active; 'I' for Inactive)
REMARK    1  A    between atoms: C_3  and  N_4 
REMARK       I    between atoms: N_4  and  C_5 
REMARK    2  A    between atoms: C_5  and  C_6 
REMARK    3  A    between atoms: C_6  and  C_7 
REMARK    4  A    between atoms: C_16  and  O_17 
REMARK    5  A    between atoms: O_17  and  C_18 
ROOT
HETATM    1  C   UNL     1      -0.968   5.112 -31.763  1.00  0.00     0.190 A 
HETATM    2  N   UNL     1      -0.471   4.466 -30.677  1.00  0.00    -0.235 NA
HETATM    3  C   UNL     1       0.227   5.200 -29.783  1.00  0.00     0.119 A 
HETATM    4  C   UNL     1       0.476   6.554 -29.929  1.00  0.00     0.021 A 
HETATM    5  C   UNL     1      -0.019   7.196 -31.060  1.00  0.00     0.028 A 
HETATM    6  C   UNL     1      -0.754   6.466 -32.001  1.00  0.00     0.097 A 
HETATM    7  C   UNL     1      -1.251   7.107 -33.177  1.00  0.00     0.104 C 
HETATM    8  N   UNL     1      -1.633   7.655 -34.126  1.00  0.00    -0.191 NA
ENDROOT
BRANCH   1   9
HETATM    9  O   UNL     1      -1.690   4.413 -32.726  1.00  0.00    -0.291 OA
BRANCH   9  10
HETATM   10  C   UNL     1      -2.974   3.998 -32.468  1.00  0.00     0.078 A 
HETATM   11  C   UNL     1      -3.987   4.846 -32.901  1.00  0.00     0.039 A 
HETATM   12  C   UNL     1      -5.320   4.553 -32.605  1.00  0.00     0.033 A 
HETATM   13  C   UNL     1      -5.668   3.418 -31.854  1.00  0.00     0.040 A 
HETATM   14  C   UNL     1      -4.652   2.527 -31.460  1.00  0.00    -0.033 A 
HETATM   15  C   UNL     1      -4.886   1.191 -30.811  1.00  0.00     0.050 C 
HETATM   16  C   UNL     1      -3.305   2.865 -31.728  1.00  0.00     0.046 A 
BRANCH  13  17
HETATM   17  N   UNL     1      -7.052   3.266 -31.601  1.00  0.00    -0.326 N 
HETATM   18  C   UNL     1      -7.715   3.494 -30.407  1.00  0.00     0.227 C 
HETATM   19  O   UNL     1      -7.226   3.979 -29.389  1.00  0.00    -0.273 OA
HETATM   20  H   UNL     1      -7.644   3.268 -32.423  1.00  0.00     0.169 HD
BRANCH  18  21
HETATM   21  C   UNL     1      -9.197   3.113 -30.462  1.00  0.00     0.159 C 
BRANCH  21  22
HETATM   22  C   UNL     1      -9.475   2.086 -31.516  1.00  0.00     0.017 A 
HETATM   23  N   UNL     1      -9.284   0.738 -31.301  1.00  0.00    -0.369 N 
HETATM   24  H   UNL     1      -8.980   0.335 -30.418  1.00  0.00     0.165 HD
HETATM   25  C   UNL     1      -9.590   0.040 -32.437  1.00  0.00     0.088 A 
HETATM   26  C   UNL     1      -9.968   0.944 -33.402  1.00  0.00     0.019 A 
HETATM   27  C   UNL     1      -9.896   2.234 -32.825  1.00  0.00     0.027 A 
ENDBRANCH  21  22
ENDBRANCH  18  21
ENDBRANCH  13  17
ENDBRANCH   9  10
ENDBRANCH   1   9
TORSDOF 5
ENDMDL
MODEL 7
REMARK VINA RESULT:      -7.6      5.820      8.534
REMARK  5 active torsions:
REMARK  status: ('A' for Active; 'I' for Inactive)
REMARK    1  A    between atoms: C_3  and  N_4 
REMARK       I    between atoms: N_4  and  C_5 
REMARK    2  A    between atoms: C_5  and  C_6 
REMARK    3  A    between atoms: C_6  and  C_7 
REMARK    4  A    between atoms: C_16  and  O_17 
REMARK    5  A    between atoms: O_17  and  C_18 
ROOT
HETATM    1  C   UNL     1      -0.990   6.385 -30.551  1.00  0.00     0.190 A 
HETATM    2  N   UNL     1      -0.197   5.492 -29.906  1.00  0.00    -0.235 NA
HETATM    3  C   UNL     1       0.442   5.917 -28.795  1.00  0.00     0.119 A 
HETATM    4  C   UNL     1       0.346   7.207 -28.300  1.00  0.00     0.021 A 
HETATM    5  C   UNL     1      -0.452   8.117 -28.987  1.00  0.00     0.028 A 
HETATM    6  C   UNL     1      -1.134   7.706 -30.137  1.00  0.00     0.097 A 
HETATM    7  C   UNL     1      -1.940   8.635 -30.863  1.00  0.00     0.104 C 
HETATM    8  N   UNL     1      -2.580   9.416 -31.437  1.00  0.00    -0.191 NA
ENDROOT
BRANCH   1   9
HETATM    9  O   UNL     1      -1.671   6.014 -31.708  1.00  0.00    -0.291 OA
BRANCH   9  10
HETATM   10  C   UNL     1      -2.652   5.054 -31.660  1.00  0.00     0.078 A 
HETATM   11  C   UNL     1      -2.509   3.992 -32.546  1.00  0.00     0.039 A 
HETATM   12  C   UNL     1      -3.503   3.015 -32.633  1.00  0.00     0.033 A 
HETATM   13  C   UNL     1      -4.670   3.088 -31.853  1.00  0.00     0.040 A 
HETATM   14  C   UNL     1      -4.795   4.130 -30.916  1.00  0.00    -0.033 A 
HETATM   15  C   UNL     1      -5.894   4.240 -29.895  1.00  0.00     0.050 C 
HETATM   16  C   UNL     1      -3.801   5.136 -30.875  1.00  0.00     0.046 A 
BRANCH  13  17
HETATM   17  N   UNL     1      -5.605   2.049 -32.072  1.00  0.00    -0.326 N 
HETATM   18  C   UNL     1      -5.574   0.769 -31.545  1.00  0.00     0.227 C 
HETATM   19  O   UNL     1      -4.782   0.354 -30.701  1.00  0.00    -0.273 OA
HETATM   20  H   UNL     1      -6.513   2.348 -32.406  1.00  0.00     0.169 HD
BRANCH  18  21
HETATM   21  C   UNL     1      -6.685  -0.131 -32.090  1.00  0.00     0.159 C 
BRANCH  21  22
HETATM   22  C   UNL     1      -6.168  -1.121 -33.088  1.00  0.00     0.017 A 
HETATM   23  N   UNL     1      -4.848  -1.518 -33.118  1.00  0.00    -0.369 N 
HETATM   24  H   UNL     1      -4.140  -1.206 -32.458  1.00  0.00     0.165 HD
HETATM   25  C   UNL     1      -4.655  -2.402 -34.144  1.00  0.00     0.088 A 
HETATM   26  C   UNL     1      -5.856  -2.570 -34.793  1.00  0.00     0.019 A 
HETATM   27  C   UNL     1      -6.811  -1.763 -34.130  1.00  0.00     0.027 A 
ENDBRANCH  21  22
ENDBRANCH  18  21
ENDBRANCH  13  17
ENDBRANCH   9  10
ENDBRANCH   1   9
TORSDOF 5
ENDMDL
MODEL 8
REMARK VINA RESULT:      -7.5      2.893      4.278
REMARK  5 active torsions:
REMARK  status: ('A' for Active; 'I' for Inactive)
REMARK    1  A    between atoms: C_3  and  N_4 
REMARK       I    between atoms: N_4  and  C_5 
REMARK    2  A    between atoms: C_5  and  C_6 
REMARK    3  A    between atoms: C_6  and  C_7 
REMARK    4  A    between atoms: C_16  and  O_17 
REMARK    5  A    between atoms: O_17  and  C_18 
ROOT
HETATM    1  C   UNL     1      -4.854   3.501 -31.767  1.00  0.00     0.190 A 
HETATM    2  N   UNL     1      -5.198   4.752 -32.169  1.00  0.00    -0.235 NA
HETATM    3  C   UNL     1      -4.273   5.461 -32.852  1.00  0.00     0.119 A 
HETATM    4  C   UNL     1      -3.003   4.991 -33.141  1.00  0.00     0.021 A 
HETATM    5  C   UNL     1      -2.659   3.716 -32.700  1.00  0.00     0.028 A 
HETATM    6  C   UNL     1      -3.596   2.953 -31.997  1.00  0.00     0.097 A 
HETATM    7  C   UNL     1      -3.249   1.651 -31.521  1.00  0.00     0.104 C 
HETATM    8  N   UNL     1      -2.933   0.601 -31.140  1.00  0.00    -0.191 NA
ENDROOT
BRANCH   1   9
HETATM    9  O   UNL     1      -5.757   2.720 -31.051  1.00  0.00    -0.291 OA
BRANCH   9  10
HETATM   10  C   UNL     1      -6.905   2.260 -31.649  1.00  0.00     0.078 A 
HETATM   11  C   UNL     1      -8.095   2.566 -30.997  1.00  0.00     0.039 A 
HETATM   12  C   UNL     1      -9.306   2.065 -31.480  1.00  0.00     0.033 A 
HETATM   13  C   UNL     1      -9.353   1.231 -32.611  1.00  0.00     0.040 A 
HETATM   14  C   UNL     1      -8.159   0.963 -33.306  1.00  0.00    -0.033 A 
HETATM   15  C   UNL     1      -8.075   0.241 -34.622  1.00  0.00     0.050 C 
HETATM   16  C   UNL     1      -6.937   1.440 -32.775  1.00  0.00     0.046 A 
BRANCH  13  17
HETATM   17  N   UNL     1     -10.642   0.770 -32.964  1.00  0.00    -0.326 N 
HETATM   18  C   UNL     1     -11.528   1.357 -33.852  1.00  0.00     0.227 C 
HETATM   19  O   UNL     1     -11.294   2.325 -34.573  1.00  0.00    -0.273 OA
HETATM   20  H   UNL     1     -10.818  -0.210 -32.776  1.00  0.00     0.169 HD
BRANCH  18  21
HETATM   21  C   UNL     1     -12.884   0.649 -33.903  1.00  0.00     0.159 C 
BRANCH  21  22
HETATM   22  C   UNL     1     -13.955   1.434 -33.211  1.00  0.00     0.017 A 
HETATM   23  N   UNL     1     -13.669   2.458 -32.334  1.00  0.00    -0.369 N 
HETATM   24  H   UNL     1     -12.730   2.782 -32.116  1.00  0.00     0.165 HD
HETATM   25  C   UNL     1     -14.832   2.976 -31.832  1.00  0.00     0.088 A 
HETATM   26  C   UNL     1     -15.881   2.273 -32.378  1.00  0.00     0.019 A 
HETATM   27  C   UNL     1     -15.331   1.300 -33.247  1.00  0.00     0.027 A 
ENDBRANCH  21  22
ENDBRANCH  18  21
ENDBRANCH  13  17
ENDBRANCH   9  10
ENDBRANCH   1   9
TORSDOF 5
ENDMDL
MODEL 9
REMARK VINA RESULT:      -7.5      1.633      2.922
REMARK  5 active torsions:
REMARK  status: ('A' for Active; 'I' for Inactive)
REMARK    1  A    between atoms: C_3  and  N_4 
REMARK       I    between atoms: N_4  and  C_5 
REMARK    2  A    between atoms: C_5  and  C_6 
REMARK    3  A    between atoms: C_6  and  C_7 
REMARK    4  A    between atoms: C_16  and  O_17 
REMARK    5  A    between atoms: O_17  and  C_18 
ROOT
HETATM    1  C   UNL     1      -5.171   0.106 -33.228  1.00  0.00     0.190 A 
HETATM    2  N   UNL     1      -4.948   1.126 -32.360  1.00  0.00    -0.235 NA
HETATM    3  C   UNL     1      -4.008   0.938 -31.409  1.00  0.00     0.119 A 
HETATM    4  C   UNL     1      -3.286  -0.235 -31.262  1.00  0.00     0.021 A 
HETATM    5  C   UNL     1      -3.546  -1.280 -32.144  1.00  0.00     0.028 A 
HETATM    6  C   UNL     1      -4.507  -1.115 -33.147  1.00  0.00     0.097 A 
HETATM    7  C   UNL     1      -4.798  -2.186 -34.046  1.00  0.00     0.104 C 
HETATM    8  N   UNL     1      -5.017  -3.079 -34.755  1.00  0.00    -0.191 NA
ENDROOT
BRANCH   1   9
HETATM    9  O   UNL     1      -6.132   0.231 -34.227  1.00  0.00    -0.291 OA
BRANCH   9  10
HETATM   10  C   UNL     1      -7.415   0.610 -33.915  1.00  0.00     0.078 A 
HETATM   11  C   UNL     1      -8.203  -0.357 -33.299  1.00  0.00     0.039 A 
HETATM   12  C   UNL     1      -9.547  -0.094 -33.025  1.00  0.00     0.033 A 
HETATM   13  C   UNL     1     -10.139   1.131 -33.379  1.00  0.00     0.040 A 
HETATM   14  C   UNL     1      -9.333   2.132 -33.953  1.00  0.00    -0.033 A 
HETATM   15  C   UNL     1      -9.778   3.543 -34.221  1.00  0.00     0.050 C 
HETATM   16  C   UNL     1      -7.987   1.831 -34.266  1.00  0.00     0.046 A 
BRANCH  13  17
HETATM   17  N   UNL     1     -11.515   1.244 -33.073  1.00  0.00    -0.326 N 
HETATM   18  C   UNL     1     -12.572   1.272 -33.966  1.00  0.00     0.227 C 
HETATM   19  O   UNL     1     -12.499   1.088 -35.180  1.00  0.00    -0.273 OA
HETATM   20  H   UNL     1     -11.768   0.998 -32.124  1.00  0.00     0.169 HD
BRANCH  18  21
HETATM   21  C   UNL     1     -13.922   1.524 -33.290  1.00  0.00     0.159 C 
BRANCH  21  22
HETATM   22  C   UNL     1     -14.023   2.911 -32.735  1.00  0.00     0.017 A 
HETATM   23  N   UNL     1     -13.943   4.033 -33.532  1.00  0.00    -0.369 N 
HETATM   24  H   UNL     1     -13.847   4.012 -34.544  1.00  0.00     0.165 HD
HETATM   25  C   UNL     1     -14.038   5.158 -32.759  1.00  0.00     0.088 A 
HETATM   26  C   UNL     1     -14.167   4.763 -31.447  1.00  0.00     0.019 A 
HETATM   27  C   UNL     1     -14.156   3.348 -31.429  1.00  0.00     0.027 A 
ENDBRANCH  21  22
ENDBRANCH  18  21
ENDBRANCH  13  17
ENDBRANCH   9  10
ENDBRANCH   1   9
TORSDOF 5
ENDMDL
MODEL 10
REMARK VINA RESULT:      -7.4      5.530      7.478
REMARK  5 active torsions:
REMARK  status: ('A' for Active; 'I' for Inactive)
REMARK    1  A    between atoms: C_3  and  N_4 
REMARK       I    between atoms: N_4  and  C_5 
REMARK    2  A    between atoms: C_5  and  C_6 
REMARK    3  A    between atoms: C_6  and  C_7 
REMARK    4  A    between atoms: C_16  and  O_17 
REMARK    5  A    between atoms: O_17  and  C_18 
ROOT
HETATM    1  C   UNL     1      -0.484   5.742 -31.451  1.00  0.00     0.190 A 
HETATM    2  N   UNL     1       0.224   4.764 -30.829  1.00  0.00    -0.235 NA
HETATM    3  C   UNL     1       0.679   5.023 -29.584  1.00  0.00     0.119 A 
HETATM    4  C   UNL     1       0.481   6.226 -28.928  1.00  0.00     0.021 A 
HETATM    5  C   UNL     1      -0.225   7.227 -29.590  1.00  0.00     0.028 A 
HETATM    6  C   UNL     1      -0.717   6.988 -30.877  1.00  0.00     0.097 A 
HETATM    7  C   UNL     1      -1.426   8.013 -31.575  1.00  0.00     0.104 C 
HETATM    8  N   UNL     1      -1.990   8.869 -32.120  1.00  0.00    -0.191 NA
ENDROOT
BRANCH   1   9
HETATM    9  O   UNL     1      -0.974   5.543 -32.738  1.00  0.00    -0.291 OA
BRANCH   9  10
HETATM   10  C   UNL     1      -2.123   4.819 -32.941  1.00  0.00     0.078 A 
HETATM   11  C   UNL     1      -2.962   5.277 -33.951  1.00  0.00     0.039 A 
HETATM   12  C   UNL     1      -4.195   4.660 -34.172  1.00  0.00     0.033 A 
HETATM   13  C   UNL     1      -4.626   3.585 -33.375  1.00  0.00     0.040 A 
HETATM   14  C   UNL     1      -3.759   3.082 -32.388  1.00  0.00    -0.033 A 
HETATM   15  C   UNL     1      -4.005   1.835 -31.584  1.00  0.00     0.050 C 
HETATM   16  C   UNL     1      -2.535   3.750 -32.148  1.00  0.00     0.046 A 
BRANCH  13  17
HETATM   17  N   UNL     1      -5.910   3.082 -33.689  1.00  0.00    -0.326 N 
HETATM   18  C   UNL     1      -7.118   3.455 -33.125  1.00  0.00     0.227 C 
HETATM   19  O   UNL     1      -7.289   4.377 -32.329  1.00  0.00    -0.273 OA
HETATM   20  H   UNL     1      -5.986   2.623 -34.590  1.00  0.00     0.169 HD
BRANCH  18  21
HETATM   21  C   UNL     1      -8.298   2.617 -33.622  1.00  0.00     0.159 C 
BRANCH  21  22
HETATM   22  C   UNL     1      -7.893   1.211 -33.944  1.00  0.00     0.017 A 
HETATM   23  N   UNL     1      -7.779   0.236 -32.976  1.00  0.00    -0.369 N 
HETATM   24  H   UNL     1      -7.990   0.378 -31.991  1.00  0.00     0.165 HD
HETATM   25  C   UNL     1      -7.369  -0.938 -33.548  1.00  0.00     0.088 A 
HETATM   26  C   UNL     1      -7.202  -0.718 -34.896  1.00  0.00     0.019 A 
HETATM   27  C   UNL     1      -7.531   0.635 -35.148  1.00  0.00     0.027 A 
ENDBRANCH  21  22
ENDBRANCH  18  21
ENDBRANCH  13  17
ENDBRANCH   9  10
ENDBRANCH   1   9
TORSDOF 5
ENDMDL
