MODEL 1
REMARK VINA RESULT:      -9.8      0.000      0.000
REMARK  3 active torsions:
REMARK  status: ('A' for Active; 'I' for Inactive)
REMARK    1  A    between atoms: C_2  and  C_3 
REMARK    2  A    between atoms: C_7  and  C_8 
REMARK       I    between atoms: C_8  and  N_9 
REMARK    3  A    between atoms: N_9  and  N_10 
ROOT
HETATM    1  C   UNL     1      -6.995  -0.184 -34.490  1.00  0.00     0.272 C 
HETATM    2  N   UNL     1      -8.158  -0.169 -33.738  1.00  0.00    -0.242 N 
HETATM    3  O   UNL     1      -6.867   0.337 -35.597  1.00  0.00    -0.266 OA
HETATM    4  H   UNL     1      -8.222  -0.626 -32.829  1.00  0.00     0.192 HD
ENDROOT
BRANCH   1   5
HETATM    5  C   UNL     1      -5.845  -0.942 -33.931  1.00  0.00     0.048 A 
HETATM    6  C   UNL     1      -5.582  -2.314 -34.172  1.00  0.00     0.008 A 
HETATM    7  C   UNL     1      -4.412  -2.831 -33.574  1.00  0.00     0.068 A 
HETATM    8  C   UNL     1      -6.401  -3.203 -34.919  1.00  0.00     0.015 A 
HETATM    9  N   UNL     1      -3.607  -2.109 -32.778  1.00  0.00    -0.253 NA
HETATM   10  C   UNL     1      -4.071  -4.159 -33.790  1.00  0.00     0.032 A 
HETATM   11  C   UNL     1      -3.920  -0.823 -32.511  1.00  0.00     0.036 A 
HETATM   12  C   UNL     1      -5.014  -0.202 -33.081  1.00  0.00     0.045 A 
HETATM   13  C   UNL     1      -4.859  -5.011 -34.563  1.00  0.00     0.002 A 
HETATM   14  C   UNL     1      -6.033  -4.534 -35.122  1.00  0.00     0.001 A 
BRANCH  11  15
HETATM   15  C   UNL     1      -3.027  -0.084 -31.549  1.00  0.00     0.055 C 
HETATM   16  C   UNL     1      -3.407   1.384 -31.434  1.00  0.00     0.011 C 
ENDBRANCH  11  15
ENDBRANCH   1   5
BRANCH   2  17
HETATM   17  N   UNL     1      -9.259   0.471 -34.236  1.00  0.00    -0.166 NA
HETATM   18  C   UNL     1      -9.852   1.327 -33.467  1.00  0.00     0.157 A 
HETATM   19  C   UNL     1      -9.455   1.794 -32.066  1.00  0.00     0.277 A 
HETATM   20  C   UNL     1     -11.035   2.098 -33.826  1.00  0.00     0.027 A 
HETATM   21  O   UNL     1      -8.529   1.347 -31.422  1.00  0.00    -0.266 OA
HETATM   22  N   UNL     1     -10.352   2.788 -31.740  1.00  0.00    -0.321 N 
HETATM   23  C   UNL     1     -11.280   2.967 -32.763  1.00  0.00     0.048 A 
HETATM   24  H   UNL     1     -10.329   3.295 -30.868  1.00  0.00     0.169 HD
HETATM   25  C   UNL     1     -12.330   3.859 -32.800  1.00  0.00     0.030 A 
HETATM   26  C   UNL     1     -13.146   3.847 -33.940  1.00  0.00     0.002 A 
HETATM   27  C   UNL     1     -12.896   2.957 -35.006  1.00  0.00     0.001 A 
HETATM   28  C   UNL     1     -11.821   2.066 -34.958  1.00  0.00     0.016 A 
ENDBRANCH   2  17
TORSDOF 3
ENDMDL
MODEL 2
REMARK VINA RESULT:      -9.6      3.855      7.372
REMARK  3 active torsions:
REMARK  status: ('A' for Active; 'I' for Inactive)
REMARK    1  A    between atoms: C_2  and  C_3 
REMARK    2  A    between atoms: C_7  and  C_8 
REMARK       I    between atoms: C_8  and  N_9 
REMARK    3  A    between atoms: N_9  and  N_10 
ROOT
HETATM    1  C   UNL     1      -4.352   0.949 -31.791  1.00  0.00     0.272 C 
HETATM    2  N   UNL     1      -4.080   2.245 -32.199  1.00  0.00    -0.242 N 
HETATM    3  O   UNL     1      -3.666   0.303 -31.001  1.00  0.00    -0.266 OA
HETATM    4  H   UNL     1      -4.672   2.737 -32.868  1.00  0.00     0.192 HD
ENDROOT
BRANCH   1   5
HETATM    5  C   UNL     1      -5.529   0.284 -32.410  1.00  0.00     0.048 A 
HETATM    6  C   UNL     1      -5.470  -0.870 -33.231  1.00  0.00     0.008 A 
HETATM    7  C   UNL     1      -6.711  -1.365 -33.687  1.00  0.00     0.068 A 
HETATM    8  C   UNL     1      -4.288  -1.535 -33.655  1.00  0.00     0.015 A 
HETATM    9  N   UNL     1      -7.886  -0.771 -33.422  1.00  0.00    -0.253 NA
HETATM   10  C   UNL     1      -6.738  -2.511 -34.470  1.00  0.00     0.032 A 
HETATM   11  C   UNL     1      -7.905   0.366 -32.694  1.00  0.00     0.036 A 
HETATM   12  C   UNL     1      -6.755   0.910 -32.158  1.00  0.00     0.045 A 
HETATM   13  C   UNL     1      -5.574  -3.181 -34.842  1.00  0.00     0.002 A 
HETATM   14  C   UNL     1      -4.343  -2.687 -34.442  1.00  0.00     0.001 A 
BRANCH  11  15
HETATM   15  C   UNL     1      -9.240   1.032 -32.495  1.00  0.00     0.055 C 
HETATM   16  C   UNL     1     -10.381   0.203 -33.062  1.00  0.00     0.011 C 
ENDBRANCH  11  15
ENDBRANCH   1   5
BRANCH   2  17
HETATM   17  N   UNL     1      -2.979   2.879 -31.697  1.00  0.00    -0.166 NA
HETATM   18  C   UNL     1      -2.684   4.041 -32.183  1.00  0.00     0.157 A 
HETATM   19  C   UNL     1      -3.444   4.867 -33.222  1.00  0.00     0.277 A 
HETATM   20  C   UNL     1      -1.550   4.860 -31.774  1.00  0.00     0.027 A 
HETATM   21  O   UNL     1      -4.434   4.494 -33.816  1.00  0.00    -0.266 OA
HETATM   22  N   UNL     1      -2.771   6.067 -33.306  1.00  0.00    -0.321 N 
HETATM   23  C   UNL     1      -1.660   6.066 -32.464  1.00  0.00     0.048 A 
HETATM   24  H   UNL     1      -3.053   6.824 -33.910  1.00  0.00     0.169 HD
HETATM   25  C   UNL     1      -0.742   7.078 -32.281  1.00  0.00     0.030 A 
HETATM   26  C   UNL     1       0.308   6.840 -31.384  1.00  0.00     0.002 A 
HETATM   27  C   UNL     1       0.417   5.612 -30.697  1.00  0.00     0.001 A 
HETATM   28  C   UNL     1      -0.527   4.600 -30.887  1.00  0.00     0.016 A 
ENDBRANCH   2  17
TORSDOF 3
ENDMDL
MODEL 3
REMARK VINA RESULT:      -9.4      3.896      7.736
REMARK  3 active torsions:
REMARK  status: ('A' for Active; 'I' for Inactive)
REMARK    1  A    between atoms: C_2  and  C_3 
REMARK    2  A    between atoms: C_7  and  C_8 
REMARK       I    between atoms: C_8  and  N_9 
REMARK    3  A    between atoms: N_9  and  N_10 
ROOT
HETATM    1  C   UNL     1      -4.121   0.875 -31.867  1.00  0.00     0.272 C 
HETATM    2  N   UNL     1      -3.863   2.160 -32.314  1.00  0.00    -0.242 N 
HETATM    3  O   UNL     1      -3.476   0.290 -30.999  1.00  0.00    -0.266 OA
HETATM    4  H   UNL     1      -4.419   2.600 -33.047  1.00  0.00     0.192 HD
ENDROOT
BRANCH   1   5
HETATM    5  C   UNL     1      -5.224   0.139 -32.540  1.00  0.00     0.048 A 
HETATM    6  C   UNL     1      -6.604   0.425 -32.386  1.00  0.00     0.008 A 
HETATM    7  C   UNL     1      -7.486  -0.371 -33.148  1.00  0.00     0.068 A 
HETATM    8  C   UNL     1      -7.163   1.403 -31.519  1.00  0.00     0.015 A 
HETATM    9  N   UNL     1      -7.079  -1.379 -33.936  1.00  0.00    -0.253 NA
HETATM   10  C   UNL     1      -8.851  -0.129 -33.075  1.00  0.00     0.032 A 
HETATM   11  C   UNL     1      -5.764  -1.673 -34.010  1.00  0.00     0.036 A 
HETATM   12  C   UNL     1      -4.809  -0.928 -33.345  1.00  0.00     0.045 A 
HETATM   13  C   UNL     1      -9.386   0.863 -32.254  1.00  0.00     0.002 A 
HETATM   14  C   UNL     1      -8.540   1.626 -31.466  1.00  0.00     0.001 A 
BRANCH  11  15
HETATM   15  C   UNL     1      -5.371  -2.862 -34.845  1.00  0.00     0.055 C 
HETATM   16  C   UNL     1      -6.494  -3.882 -34.946  1.00  0.00     0.011 C 
ENDBRANCH  11  15
ENDBRANCH   1   5
BRANCH   2  17
HETATM   17  N   UNL     1      -2.826   2.857 -31.762  1.00  0.00    -0.166 NA
HETATM   18  C   UNL     1      -2.586   4.041 -32.224  1.00  0.00     0.157 A 
HETATM   19  C   UNL     1      -3.356   4.830 -33.284  1.00  0.00     0.277 A 
HETATM   20  C   UNL     1      -1.525   4.925 -31.761  1.00  0.00     0.027 A 
HETATM   21  O   UNL     1      -4.295   4.402 -33.922  1.00  0.00    -0.266 OA
HETATM   22  N   UNL     1      -2.758   6.071 -33.330  1.00  0.00    -0.321 N 
HETATM   23  C   UNL     1      -1.684   6.130 -32.444  1.00  0.00     0.048 A 
HETATM   24  H   UNL     1      -3.064   6.816 -33.938  1.00  0.00     0.169 HD
HETATM   25  C   UNL     1      -0.841   7.196 -32.214  1.00  0.00     0.030 A 
HETATM   26  C   UNL     1       0.186   7.014 -31.278  1.00  0.00     0.002 A 
HETATM   27  C   UNL     1       0.346   5.788 -30.599  1.00  0.00     0.001 A 
HETATM   28  C   UNL     1      -0.523   4.720 -30.836  1.00  0.00     0.016 A 
ENDBRANCH   2  17
TORSDOF 3
ENDMDL
MODEL 4
REMARK VINA RESULT:      -8.9      4.412      8.278
REMARK  3 active torsions:
REMARK  status: ('A' for Active; 'I' for Inactive)
REMARK    1  A    between atoms: C_2  and  C_3 
REMARK    2  A    between atoms: C_7  and  C_8 
REMARK       I    between atoms: C_8  and  N_9 
REMARK    3  A    between atoms: N_9  and  N_10 
ROOT
HETATM    1  C   UNL     1      -4.860   2.815 -32.811  1.00  0.00     0.272 C 
HETATM    2  N   UNL     1      -4.395   1.600 -32.333  1.00  0.00    -0.242 N 
HETATM    3  O   UNL     1      -5.576   2.951 -33.801  1.00  0.00    -0.266 OA
HETATM    4  H   UNL     1      -3.790   1.536 -31.513  1.00  0.00     0.192 HD
ENDROOT
BRANCH   1   5
HETATM    5  C   UNL     1      -4.399   4.036 -32.100  1.00  0.00     0.048 A 
HETATM    6  C   UNL     1      -3.293   4.833 -32.489  1.00  0.00     0.008 A 
HETATM    7  C   UNL     1      -3.048   5.976 -31.696  1.00  0.00     0.068 A 
HETATM    8  C   UNL     1      -2.407   4.565 -33.567  1.00  0.00     0.015 A 
HETATM    9  N   UNL     1      -3.767   6.286 -30.604  1.00  0.00    -0.253 NA
HETATM   10  C   UNL     1      -2.003   6.824 -32.033  1.00  0.00     0.032 A 
HETATM   11  C   UNL     1      -4.770   5.470 -30.218  1.00  0.00     0.036 A 
HETATM   12  C   UNL     1      -5.127   4.352 -30.948  1.00  0.00     0.045 A 
HETATM   13  C   UNL     1      -1.166   6.573 -33.121  1.00  0.00     0.002 A 
HETATM   14  C   UNL     1      -1.363   5.435 -33.885  1.00  0.00     0.001 A 
BRANCH  11  15
HETATM   15  C   UNL     1      -5.490   5.821 -28.943  1.00  0.00     0.055 C 
HETATM   16  C   UNL     1      -4.852   7.008 -28.239  1.00  0.00     0.011 C 
ENDBRANCH  11  15
ENDBRANCH   1   5
BRANCH   2  17
HETATM   17  N   UNL     1      -4.749   0.453 -32.985  1.00  0.00    -0.166 NA
HETATM   18  C   UNL     1      -4.087  -0.623 -32.706  1.00  0.00     0.157 A 
HETATM   19  C   UNL     1      -2.976  -0.825 -31.675  1.00  0.00     0.277 A 
HETATM   20  C   UNL     1      -4.322  -1.932 -33.302  1.00  0.00     0.027 A 
HETATM   21  O   UNL     1      -2.487   0.057 -30.999  1.00  0.00    -0.266 OA
HETATM   22  N   UNL     1      -2.688  -2.173 -31.699  1.00  0.00    -0.321 N 
HETATM   23  C   UNL     1      -3.470  -2.823 -32.652  1.00  0.00     0.048 A 
HETATM   24  H   UNL     1      -1.994  -2.606 -31.108  1.00  0.00     0.169 HD
HETATM   25  C   UNL     1      -3.462  -4.164 -32.972  1.00  0.00     0.030 A 
HETATM   26  C   UNL     1      -4.335  -4.589 -33.983  1.00  0.00     0.002 A 
HETATM   27  C   UNL     1      -5.186  -3.677 -34.643  1.00  0.00     0.001 A 
HETATM   28  C   UNL     1      -5.189  -2.324 -34.299  1.00  0.00     0.016 A 
ENDBRANCH   2  17
TORSDOF 3
ENDMDL
MODEL 5
REMARK VINA RESULT:      -8.7      2.039      7.728
REMARK  3 active torsions:
REMARK  status: ('A' for Active; 'I' for Inactive)
REMARK    1  A    between atoms: C_2  and  C_3 
REMARK    2  A    between atoms: C_7  and  C_8 
REMARK       I    between atoms: C_8  and  N_9 
REMARK    3  A    between atoms: N_9  and  N_10 
ROOT
HETATM    1  C   UNL     1      -8.850   0.967 -34.093  1.00  0.00     0.272 C 
HETATM    2  N   UNL     1      -7.952   0.530 -35.053  1.00  0.00    -0.242 N 
HETATM    3  O   UNL     1      -9.425   0.239 -33.286  1.00  0.00    -0.266 OA
HETATM    4  H   UNL     1      -7.508   1.171 -35.711  1.00  0.00     0.192 HD
ENDROOT
BRANCH   1   5
HETATM    5  C   UNL     1      -9.179   2.417 -34.093  1.00  0.00     0.048 A 
HETATM    6  C   UNL     1     -10.424   2.967 -34.489  1.00  0.00     0.008 A 
HETATM    7  C   UNL     1     -10.541   4.370 -34.376  1.00  0.00     0.068 A 
HETATM    8  C   UNL     1     -11.528   2.244 -35.014  1.00  0.00     0.015 A 
HETATM    9  N   UNL     1      -9.536   5.165 -33.973  1.00  0.00    -0.253 NA
HETATM   10  C   UNL     1     -11.740   4.979 -34.714  1.00  0.00     0.032 A 
HETATM   11  C   UNL     1      -8.340   4.619 -33.668  1.00  0.00     0.036 A 
HETATM   12  C   UNL     1      -8.130   3.254 -33.697  1.00  0.00     0.045 A 
HETATM   13  C   UNL     1     -12.834   4.254 -35.186  1.00  0.00     0.002 A 
HETATM   14  C   UNL     1     -12.725   2.882 -35.346  1.00  0.00     0.001 A 
BRANCH  11  15
HETATM   15  C   UNL     1      -7.227   5.564 -33.300  1.00  0.00     0.055 C 
HETATM   16  C   UNL     1      -5.946   4.825 -32.948  1.00  0.00     0.011 C 
ENDBRANCH  11  15
ENDBRANCH   1   5
BRANCH   2  17
HETATM   17  N   UNL     1      -7.658  -0.802 -35.126  1.00  0.00    -0.166 NA
HETATM   18  C   UNL     1      -6.516  -1.191 -34.658  1.00  0.00     0.157 A 
HETATM   19  C   UNL     1      -5.439  -0.366 -33.952  1.00  0.00     0.277 A 
HETATM   20  C   UNL     1      -6.035  -2.566 -34.653  1.00  0.00     0.027 A 
HETATM   21  O   UNL     1      -5.477   0.836 -33.796  1.00  0.00    -0.266 OA
HETATM   22  N   UNL     1      -4.478  -1.272 -33.558  1.00  0.00    -0.321 N 
HETATM   23  C   UNL     1      -4.820  -2.559 -33.969  1.00  0.00     0.048 A 
HETATM   24  H   UNL     1      -3.643  -1.016 -33.053  1.00  0.00     0.169 HD
HETATM   25  C   UNL     1      -4.108  -3.723 -33.769  1.00  0.00     0.030 A 
HETATM   26  C   UNL     1      -4.649  -4.906 -34.291  1.00  0.00     0.002 A 
HETATM   27  C   UNL     1      -5.874  -4.901 -34.991  1.00  0.00     0.001 A 
HETATM   28  C   UNL     1      -6.588  -3.715 -35.176  1.00  0.00     0.016 A 
ENDBRANCH   2  17
TORSDOF 3
ENDMDL
MODEL 6
REMARK VINA RESULT:      -8.5      3.837      7.668
REMARK  3 active torsions:
REMARK  status: ('A' for Active; 'I' for Inactive)
REMARK    1  A    between atoms: C_2  and  C_3 
REMARK    2  A    between atoms: C_7  and  C_8 
REMARK       I    between atoms: C_8  and  N_9 
REMARK    3  A    between atoms: N_9  and  N_10 
ROOT
HETATM    1  C   UNL     1      -5.458   2.360 -33.103  1.00  0.00     0.272 C 
HETATM    2  N   UNL     1      -5.264   1.094 -32.574  1.00  0.00    -0.242 N 
HETATM    3  O   UNL     1      -6.102   2.604 -34.121  1.00  0.00    -0.266 OA
HETATM    4  H   UNL     1      -4.710   0.938 -31.732  1.00  0.00     0.192 HD
ENDROOT
BRANCH   1   5
HETATM    5  C   UNL     1      -4.779   3.487 -32.411  1.00  0.00     0.048 A 
HETATM    6  C   UNL     1      -5.285   4.164 -31.273  1.00  0.00     0.008 A 
HETATM    7  C   UNL     1      -4.461   5.183 -30.746  1.00  0.00     0.068 A 
HETATM    8  C   UNL     1      -6.541   3.932 -30.652  1.00  0.00     0.015 A 
HETATM    9  N   UNL     1      -3.292   5.548 -31.298  1.00  0.00    -0.253 NA
HETATM   10  C   UNL     1      -4.873   5.870 -29.613  1.00  0.00     0.032 A 
HETATM   11  C   UNL     1      -2.869   4.932 -32.422  1.00  0.00     0.036 A 
HETATM   12  C   UNL     1      -3.572   3.889 -32.994  1.00  0.00     0.045 A 
HETATM   13  C   UNL     1      -6.090   5.603 -28.986  1.00  0.00     0.002 A 
HETATM   14  C   UNL     1      -6.931   4.637 -29.512  1.00  0.00     0.001 A 
BRANCH  11  15
HETATM   15  C   UNL     1      -1.593   5.434 -33.043  1.00  0.00     0.055 C 
HETATM   16  C   UNL     1      -1.591   5.268 -34.554  1.00  0.00     0.011 C 
ENDBRANCH  11  15
ENDBRANCH   1   5
BRANCH   2  17
HETATM   17  N   UNL     1      -5.825   0.020 -33.205  1.00  0.00    -0.166 NA
HETATM   18  C   UNL     1      -5.105  -1.049 -33.323  1.00  0.00     0.157 A 
HETATM   19  C   UNL     1      -3.700  -1.321 -32.786  1.00  0.00     0.277 A 
HETATM   20  C   UNL     1      -5.535  -2.284 -33.966  1.00  0.00     0.027 A 
HETATM   21  O   UNL     1      -3.004  -0.507 -32.215  1.00  0.00    -0.266 OA
HETATM   22  N   UNL     1      -3.437  -2.640 -33.088  1.00  0.00    -0.321 N 
HETATM   23  C   UNL     1      -4.505  -3.206 -33.782  1.00  0.00     0.048 A 
HETATM   24  H   UNL     1      -2.578  -3.108 -32.843  1.00  0.00     0.169 HD
HETATM   25  C   UNL     1      -4.610  -4.495 -34.259  1.00  0.00     0.030 A 
HETATM   26  C   UNL     1      -5.785  -4.834 -34.944  1.00  0.00     0.002 A 
HETATM   27  C   UNL     1      -6.817  -3.891 -35.134  1.00  0.00     0.001 A 
HETATM   28  C   UNL     1      -6.700  -2.592 -34.636  1.00  0.00     0.016 A 
ENDBRANCH   2  17
TORSDOF 3
ENDMDL
MODEL 7
REMARK VINA RESULT:      -8.5      2.432      3.510
REMARK  3 active torsions:
REMARK  status: ('A' for Active; 'I' for Inactive)
REMARK    1  A    between atoms: C_2  and  C_3 
REMARK    2  A    between atoms: C_7  and  C_8 
REMARK       I    between atoms: C_8  and  N_9 
REMARK    3  A    between atoms: N_9  and  N_10 
ROOT
HETATM    1  C   UNL     1      -6.478   2.771 -33.419  1.00  0.00     0.272 C 
HETATM    2  N   UNL     1      -7.635   2.821 -32.658  1.00  0.00    -0.242 N 
HETATM    3  O   UNL     1      -6.440   2.848 -34.645  1.00  0.00    -0.266 OA
HETATM    4  H   UNL     1      -7.619   2.740 -31.641  1.00  0.00     0.192 HD
ENDROOT
BRANCH   1   5
HETATM    5  C   UNL     1      -5.204   2.546 -32.686  1.00  0.00     0.048 A 
HETATM    6  C   UNL     1      -4.693   1.277 -32.318  1.00  0.00     0.008 A 
HETATM    7  C   UNL     1      -3.443   1.284 -31.660  1.00  0.00     0.068 A 
HETATM    8  C   UNL     1      -5.335   0.026 -32.519  1.00  0.00     0.015 A 
HETATM    9  N   UNL     1      -2.782   2.408 -31.341  1.00  0.00    -0.253 NA
HETATM   10  C   UNL     1      -2.862   0.077 -31.296  1.00  0.00     0.032 A 
HETATM   11  C   UNL     1      -3.327   3.606 -31.643  1.00  0.00     0.036 A 
HETATM   12  C   UNL     1      -4.521   3.714 -32.329  1.00  0.00     0.045 A 
HETATM   13  C   UNL     1      -3.482  -1.148 -31.539  1.00  0.00     0.002 A 
HETATM   14  C   UNL     1      -4.728  -1.174 -32.144  1.00  0.00     0.001 A 
BRANCH  11  15
HETATM   15  C   UNL     1      -2.582   4.834 -31.191  1.00  0.00     0.055 C 
HETATM   16  C   UNL     1      -1.283   5.025 -31.957  1.00  0.00     0.011 C 
ENDBRANCH  11  15
ENDBRANCH   1   5
BRANCH   2  17
HETATM   17  N   UNL     1      -8.837   2.974 -33.291  1.00  0.00    -0.166 NA
HETATM   18  C   UNL     1      -9.665   1.980 -33.251  1.00  0.00     0.157 A 
HETATM   19  C   UNL     1      -9.523   0.643 -32.523  1.00  0.00     0.277 A 
HETATM   20  C   UNL     1     -10.984   1.961 -33.868  1.00  0.00     0.027 A 
HETATM   21  O   UNL     1      -8.535   0.283 -31.917  1.00  0.00    -0.266 OA
HETATM   22  N   UNL     1     -10.723  -0.009 -32.709  1.00  0.00    -0.321 N 
HETATM   23  C   UNL     1     -11.579   0.756 -33.499  1.00  0.00     0.048 A 
HETATM   24  H   UNL     1     -10.928  -0.921 -32.328  1.00  0.00     0.169 HD
HETATM   25  C   UNL     1     -12.857   0.436 -33.908  1.00  0.00     0.030 A 
HETATM   26  C   UNL     1     -13.525   1.366 -34.716  1.00  0.00     0.002 A 
HETATM   27  C   UNL     1     -12.911   2.579 -35.094  1.00  0.00     0.001 A 
HETATM   28  C   UNL     1     -11.619   2.892 -34.663  1.00  0.00     0.016 A 
ENDBRANCH   2  17
TORSDOF 3
ENDMDL
MODEL 8
REMARK VINA RESULT:      -8.5      4.437      8.249
REMARK  3 active torsions:
REMARK  status: ('A' for Active; 'I' for Inactive)
REMARK    1  A    between atoms: C_2  and  C_3 
REMARK    2  A    between atoms: C_7  and  C_8 
REMARK       I    between atoms: C_8  and  N_9 
REMARK    3  A    between atoms: N_9  and  N_10 
ROOT
HETATM    1  C   UNL     1      -3.126   3.614 -32.068  1.00  0.00     0.272 C 
HETATM    2  N   UNL     1      -3.587   2.478 -31.422  1.00  0.00    -0.242 N 
HETATM    3  O   UNL     1      -2.744   3.651 -33.236  1.00  0.00    -0.266 OA
HETATM    4  H   UNL     1      -3.881   2.492 -30.445  1.00  0.00     0.192 HD
ENDROOT
BRANCH   1   5
HETATM    5  C   UNL     1      -3.033   4.856 -31.255  1.00  0.00     0.048 A 
HETATM    6  C   UNL     1      -1.832   5.551 -30.969  1.00  0.00     0.008 A 
HETATM    7  C   UNL     1      -1.971   6.734 -30.210  1.00  0.00     0.068 A 
HETATM    8  C   UNL     1      -0.522   5.147 -31.343  1.00  0.00     0.015 A 
HETATM    9  N   UNL     1      -3.147   7.170 -29.730  1.00  0.00    -0.253 NA
HETATM   10  C   UNL     1      -0.843   7.487 -29.917  1.00  0.00     0.032 A 
HETATM   11  C   UNL     1      -4.265   6.449 -29.961  1.00  0.00     0.036 A 
HETATM   12  C   UNL     1      -4.251   5.304 -30.732  1.00  0.00     0.045 A 
HETATM   13  C   UNL     1       0.433   7.103 -30.328  1.00  0.00     0.002 A 
HETATM   14  C   UNL     1       0.596   5.924 -31.036  1.00  0.00     0.001 A 
BRANCH  11  15
HETATM   15  C   UNL     1      -5.542   6.941 -29.332  1.00  0.00     0.055 C 
HETATM   16  C   UNL     1      -6.019   6.022 -28.220  1.00  0.00     0.011 C 
ENDBRANCH  11  15
ENDBRANCH   1   5
BRANCH   2  17
HETATM   17  N   UNL     1      -3.639   1.300 -32.113  1.00  0.00    -0.166 NA
HETATM   18  C   UNL     1      -4.808   0.837 -32.419  1.00  0.00     0.157 A 
HETATM   19  C   UNL     1      -6.182   1.464 -32.175  1.00  0.00     0.277 A 
HETATM   20  C   UNL     1      -5.057  -0.399 -33.148  1.00  0.00     0.027 A 
HETATM   21  O   UNL     1      -6.376   2.493 -31.562  1.00  0.00    -0.266 OA
HETATM   22  N   UNL     1      -7.086   0.624 -32.788  1.00  0.00    -0.321 N 
HETATM   23  C   UNL     1      -6.434  -0.469 -33.355  1.00  0.00     0.048 A 
HETATM   24  H   UNL     1      -8.081   0.791 -32.802  1.00  0.00     0.169 HD
HETATM   25  C   UNL     1      -6.999  -1.521 -34.043  1.00  0.00     0.030 A 
HETATM   26  C   UNL     1      -6.136  -2.521 -34.512  1.00  0.00     0.002 A 
HETATM   27  C   UNL     1      -4.745  -2.447 -34.289  1.00  0.00     0.001 A 
HETATM   28  C   UNL     1      -4.187  -1.369 -33.599  1.00  0.00     0.016 A 
ENDBRANCH   2  17
TORSDOF 3
ENDMDL
MODEL 9
REMARK VINA RESULT:      -8.3      2.592      4.881
REMARK  3 active torsions:
REMARK  status: ('A' for Active; 'I' for Inactive)
REMARK    1  A    between atoms: C_2  and  C_3 
REMARK    2  A    between atoms: C_7  and  C_8 
REMARK       I    between atoms: C_8  and  N_9 
REMARK    3  A    between atoms: N_9  and  N_10 
ROOT
HETATM    1  C   UNL     1      -6.538   2.685 -33.484  1.00  0.00     0.272 C 
HETATM    2  N   UNL     1      -7.661   2.974 -32.725  1.00  0.00    -0.242 N 
HETATM    3  O   UNL     1      -6.549   2.432 -34.686  1.00  0.00    -0.266 OA
HETATM    4  H   UNL     1      -7.604   3.166 -31.725  1.00  0.00     0.192 HD
ENDROOT
BRANCH   1   5
HETATM    5  C   UNL     1      -5.240   2.620 -32.761  1.00  0.00     0.048 A 
HETATM    6  C   UNL     1      -4.348   3.709 -32.596  1.00  0.00     0.008 A 
HETATM    7  C   UNL     1      -3.184   3.443 -31.841  1.00  0.00     0.068 A 
HETATM    8  C   UNL     1      -4.506   5.010 -33.144  1.00  0.00     0.015 A 
HETATM    9  N   UNL     1      -2.887   2.231 -31.344  1.00  0.00    -0.253 NA
HETATM   10  C   UNL     1      -2.278   4.467 -31.608  1.00  0.00     0.032 A 
HETATM   11  C   UNL     1      -3.722   1.196 -31.578  1.00  0.00     0.036 A 
HETATM   12  C   UNL     1      -4.911   1.355 -32.261  1.00  0.00     0.045 A 
HETATM   13  C   UNL     1      -2.466   5.753 -32.114  1.00  0.00     0.002 A 
HETATM   14  C   UNL     1      -3.579   6.024 -32.893  1.00  0.00     0.001 A 
BRANCH  11  15
HETATM   15  C   UNL     1      -3.300  -0.156 -31.067  1.00  0.00     0.055 C 
HETATM   16  C   UNL     1      -3.643  -1.267 -32.046  1.00  0.00     0.011 C 
ENDBRANCH  11  15
ENDBRANCH   1   5
BRANCH   2  17
HETATM   17  N   UNL     1      -8.883   2.993 -33.335  1.00  0.00    -0.166 NA
HETATM   18  C   UNL     1      -9.623   1.936 -33.227  1.00  0.00     0.157 A 
HETATM   19  C   UNL     1      -9.353   0.654 -32.439  1.00  0.00     0.277 A 
HETATM   20  C   UNL     1     -10.948   1.776 -33.810  1.00  0.00     0.027 A 
HETATM   21  O   UNL     1      -8.325   0.409 -31.842  1.00  0.00    -0.266 OA
HETATM   22  N   UNL     1     -10.496  -0.106 -32.565  1.00  0.00    -0.321 N 
HETATM   23  C   UNL     1     -11.430   0.544 -33.369  1.00  0.00     0.048 A 
HETATM   24  H   UNL     1     -10.614  -1.011 -32.136  1.00  0.00     0.169 HD
HETATM   25  C   UNL     1     -12.684   0.099 -33.730  1.00  0.00     0.030 A 
HETATM   26  C   UNL     1     -13.445   0.927 -34.565  1.00  0.00     0.002 A 
HETATM   27  C   UNL     1     -12.945   2.168 -35.015  1.00  0.00     0.001 A 
HETATM   28  C   UNL     1     -11.677   2.609 -34.632  1.00  0.00     0.016 A 
ENDBRANCH   2  17
TORSDOF 3
ENDMDL
MODEL 10
REMARK VINA RESULT:      -8.3      4.384      8.067
REMARK  3 active torsions:
REMARK  status: ('A' for Active; 'I' for Inactive)
REMARK    1  A    between atoms: C_2  and  C_3 
REMARK    2  A    between atoms: C_7  and  C_8 
REMARK       I    between atoms: C_8  and  N_9 
REMARK    3  A    between atoms: N_9  and  N_10 
ROOT
HETATM    1  C   UNL     1      -5.342   3.185 -31.405  1.00  0.00     0.272 C 
HETATM    2  N   UNL     1      -4.752   4.306 -31.964  1.00  0.00    -0.242 N 
HETATM    3  O   UNL     1      -5.294   2.886 -30.213  1.00  0.00    -0.266 OA
HETATM    4  H   UNL     1      -4.808   4.507 -32.963  1.00  0.00     0.192 HD
ENDROOT
BRANCH   1   5
HETATM    5  C   UNL     1      -6.028   2.252 -32.338  1.00  0.00     0.048 A 
HETATM    6  C   UNL     1      -5.483   1.032 -32.812  1.00  0.00     0.008 A 
HETATM    7  C   UNL     1      -6.317   0.275 -33.663  1.00  0.00     0.068 A 
HETATM    8  C   UNL     1      -4.180   0.535 -32.537  1.00  0.00     0.015 A 
HETATM    9  N   UNL     1      -7.534   0.682 -34.059  1.00  0.00    -0.253 NA
HETATM   10  C   UNL     1      -5.866  -0.947 -34.142  1.00  0.00     0.032 A 
HETATM   11  C   UNL     1      -7.998   1.881 -33.647  1.00  0.00     0.036 A 
HETATM   12  C   UNL     1      -7.286   2.681 -32.775  1.00  0.00     0.045 A 
HETATM   13  C   UNL     1      -4.602  -1.446 -33.829  1.00  0.00     0.002 A 
HETATM   14  C   UNL     1      -3.752  -0.698 -33.031  1.00  0.00     0.001 A 
BRANCH  11  15
HETATM   15  C   UNL     1      -9.332   2.324 -34.186  1.00  0.00     0.055 C 
HETATM   16  C   UNL     1     -10.446   1.358 -33.812  1.00  0.00     0.011 C 
ENDBRANCH  11  15
ENDBRANCH   1   5
BRANCH   2  17
HETATM   17  N   UNL     1      -4.066   5.166 -31.154  1.00  0.00    -0.166 NA
HETATM   18  C   UNL     1      -2.792   5.283 -31.347  1.00  0.00     0.157 A 
HETATM   19  C   UNL     1      -1.922   4.632 -32.424  1.00  0.00     0.277 A 
HETATM   20  C   UNL     1      -1.902   6.146 -30.582  1.00  0.00     0.027 A 
HETATM   21  O   UNL     1      -2.314   3.819 -33.234  1.00  0.00    -0.266 OA
HETATM   22  N   UNL     1      -0.663   5.169 -32.257  1.00  0.00    -0.321 N 
HETATM   23  C   UNL     1      -0.645   6.051 -31.179  1.00  0.00     0.048 A 
HETATM   24  H   UNL     1       0.126   4.931 -32.839  1.00  0.00     0.169 HD
HETATM   25  C   UNL     1       0.428   6.772 -30.700  1.00  0.00     0.030 A 
HETATM   26  C   UNL     1       0.206   7.592 -29.585  1.00  0.00     0.002 A 
HETATM   27  C   UNL     1      -1.067   7.674 -28.981  1.00  0.00     0.001 A 
HETATM   28  C   UNL     1      -2.146   6.944 -29.485  1.00  0.00     0.016 A 
ENDBRANCH   2  17
TORSDOF 3
ENDMDL
