MODEL 1
REMARK VINA RESULT:      -8.7      0.000      0.000
REMARK  6 active torsions:
REMARK  status: ('A' for Active; 'I' for Inactive)
REMARK    1  A    between atoms: O_2  and  C_3 
REMARK    2  A    between atoms: C_6  and  C_7 
REMARK    3  A    between atoms: C_11  and  C_12 
REMARK       I    between atoms: C_12  and  N_13 
REMARK    4  A    between atoms: N_13  and  N_14 
REMARK       I    between atoms: N_14  and  C_15 
REMARK    5  A    between atoms: C_15  and  C_16 
REMARK    6  A    between atoms: C_16  and  C_17 
ROOT
HETATM    1  C   UNL     1      -4.032   4.203 -31.150  1.00  0.00     0.288 C 
HETATM    2  N   UNL     1      -2.654   4.255 -31.122  1.00  0.00    -0.262 N 
HETATM    3  O   UNL     1      -4.726   5.071 -30.622  1.00  0.00    -0.264 OA
HETATM    4  H   UNL     1      -2.079   3.638 -31.693  1.00  0.00     0.190 HD
ENDROOT
BRANCH   1   5
HETATM    5  C   UNL     1      -4.594   3.083 -31.854  1.00  0.00     0.121 A 
HETATM    6  N   UNL     1      -5.758   3.185 -32.562  1.00  0.00    -0.272 N 
HETATM    7  N   UNL     1      -6.135   2.049 -33.168  1.00  0.00    -0.174 NA
HETATM    8  H   UNL     1      -6.339   4.011 -32.664  1.00  0.00     0.189 HD
HETATM    9  C   UNL     1      -5.166   1.167 -32.873  1.00  0.00     0.089 A 
HETATM   10  C   UNL     1      -4.192   1.774 -32.031  1.00  0.00     0.071 A 
BRANCH   9  11
HETATM   11  C   UNL     1      -5.187  -0.206 -33.386  1.00  0.00    -0.005 A 
HETATM   12  C   UNL     1      -6.238  -0.661 -34.194  1.00  0.00     0.016 A 
HETATM   13  C   UNL     1      -6.245  -1.974 -34.676  1.00  0.00     0.037 A 
HETATM   14  C   UNL     1      -5.209  -2.856 -34.367  1.00  0.00     0.068 A 
HETATM   15  C   UNL     1      -4.162  -2.415 -33.558  1.00  0.00     0.037 A 
HETATM   16  C   UNL     1      -4.155  -1.101 -33.071  1.00  0.00     0.016 A 
BRANCH  14  17
HETATM   17  O   UNL     1      -5.341  -4.105 -34.907  1.00  0.00    -0.356 OA
HETATM   18  C   UNL     1      -6.640  -4.479 -35.349  1.00  0.00     0.210 C 
ENDBRANCH  14  17
ENDBRANCH   9  11
ENDBRANCH   1   5
BRANCH   2  19
HETATM   19  N   UNL     1      -2.040   5.456 -30.732  1.00  0.00    -0.267 N 
HETATM   20  C   UNL     1      -0.664   5.445 -30.622  1.00  0.00     0.240 C 
HETATM   21  O   UNL     1      -0.015   4.399 -30.647  1.00  0.00    -0.272 OA
HETATM   22  H   UNL     1      -2.575   6.311 -30.885  1.00  0.00     0.190 HD
BRANCH  20  23
HETATM   23  C   UNL     1      -0.029   6.811 -30.465  1.00  0.00     0.148 C 
BRANCH  23  24
HETATM   24  C   UNL     1      -0.271   7.410 -29.105  1.00  0.00     0.011 A 
HETATM   25  C   UNL     1      -1.174   8.456 -28.874  1.00  0.00     0.043 A 
HETATM   26 CL   UNL     1      -2.086   9.172 -30.156  1.00  0.00    -0.084 Cl
HETATM   27  C   UNL     1      -1.367   8.963 -27.583  1.00  0.00     0.024 A 
HETATM   28  C   UNL     1      -0.666   8.426 -26.502  1.00  0.00     0.005 A 
HETATM   29  C   UNL     1       0.224   7.379 -26.715  1.00  0.00     0.043 A 
HETATM   30  C   UNL     1       0.412   6.883 -28.003  1.00  0.00     0.124 A 
HETATM   31  F   UNL     1       1.283   5.879 -28.176  1.00  0.00    -0.205 F 
ENDBRANCH  23  24
ENDBRANCH  20  23
ENDBRANCH   2  19
TORSDOF 6
ENDMDL
MODEL 2
REMARK VINA RESULT:      -8.5      1.817      2.404
REMARK  6 active torsions:
REMARK  status: ('A' for Active; 'I' for Inactive)
REMARK    1  A    between atoms: O_2  and  C_3 
REMARK    2  A    between atoms: C_6  and  C_7 
REMARK    3  A    between atoms: C_11  and  C_12 
REMARK       I    between atoms: C_12  and  N_13 
REMARK    4  A    between atoms: N_13  and  N_14 
REMARK       I    between atoms: N_14  and  C_15 
REMARK    5  A    between atoms: C_15  and  C_16 
REMARK    6  A    between atoms: C_16  and  C_17 
ROOT
HETATM    1  C   UNL     1      -3.648   4.052 -31.369  1.00  0.00     0.288 C 
HETATM    2  N   UNL     1      -2.318   3.781 -31.123  1.00  0.00    -0.262 N 
HETATM    3  O   UNL     1      -4.146   5.148 -31.115  1.00  0.00    -0.264 OA
HETATM    4  H   UNL     1      -1.862   2.944 -31.481  1.00  0.00     0.190 HD
ENDROOT
BRANCH   1   5
HETATM    5  C   UNL     1      -4.397   2.979 -31.962  1.00  0.00     0.121 A 
HETATM    6  N   UNL     1      -5.711   3.120 -32.310  1.00  0.00    -0.272 N 
HETATM    7  N   UNL     1      -6.255   2.025 -32.861  1.00  0.00    -0.174 NA
HETATM    8  H   UNL     1      -6.287   3.948 -32.192  1.00  0.00     0.189 HD
HETATM    9  C   UNL     1      -5.255   1.132 -32.905  1.00  0.00     0.089 A 
HETATM   10  C   UNL     1      -4.077   1.687 -32.328  1.00  0.00     0.071 A 
BRANCH   9  11
HETATM   11  C   UNL     1      -5.435  -0.204 -33.481  1.00  0.00    -0.005 A 
HETATM   12  C   UNL     1      -4.363  -1.101 -33.579  1.00  0.00     0.016 A 
HETATM   13  C   UNL     1      -4.549  -2.373 -34.132  1.00  0.00     0.037 A 
HETATM   14  C   UNL     1      -5.803  -2.776 -34.593  1.00  0.00     0.068 A 
HETATM   15  C   UNL     1      -6.875  -1.889 -34.506  1.00  0.00     0.037 A 
HETATM   16  C   UNL     1      -6.689  -0.613 -33.956  1.00  0.00     0.016 A 
BRANCH  14  17
HETATM   17  O   UNL     1      -5.844  -4.044 -35.104  1.00  0.00    -0.356 OA
HETATM   18  C   UNL     1      -5.042  -5.022 -34.455  1.00  0.00     0.210 C 
ENDBRANCH  14  17
ENDBRANCH   9  11
ENDBRANCH   1   5
BRANCH   2  19
HETATM   19  N   UNL     1      -1.460   4.856 -30.840  1.00  0.00    -0.267 N 
HETATM   20  C   UNL     1      -0.845   5.464 -31.916  1.00  0.00     0.240 C 
HETATM   21  O   UNL     1      -0.864   4.970 -33.043  1.00  0.00    -0.272 OA
HETATM   22  H   UNL     1      -1.602   5.328 -29.946  1.00  0.00     0.190 HD
BRANCH  20  23
HETATM   23  C   UNL     1      -0.152   6.771 -31.595  1.00  0.00     0.148 C 
BRANCH  23  24
HETATM   24  C   UNL     1      -1.023   7.712 -30.806  1.00  0.00     0.011 A 
HETATM   25  C   UNL     1      -0.861   7.943 -29.434  1.00  0.00     0.043 A 
HETATM   26 CL   UNL     1       0.358   7.137 -28.512  1.00  0.00    -0.084 Cl
HETATM   27  C   UNL     1      -1.696   8.841 -28.756  1.00  0.00     0.024 A 
HETATM   28  C   UNL     1      -2.697   9.529 -29.442  1.00  0.00     0.005 A 
HETATM   29  C   UNL     1      -2.861   9.319 -30.807  1.00  0.00     0.043 A 
HETATM   30  C   UNL     1      -2.029   8.422 -31.473  1.00  0.00     0.124 A 
HETATM   31  F   UNL     1      -2.217   8.236 -32.787  1.00  0.00    -0.205 F 
ENDBRANCH  23  24
ENDBRANCH  20  23
ENDBRANCH   2  19
TORSDOF 6
ENDMDL
MODEL 3
REMARK VINA RESULT:      -8.4      1.445      1.921
REMARK  6 active torsions:
REMARK  status: ('A' for Active; 'I' for Inactive)
REMARK    1  A    between atoms: O_2  and  C_3 
REMARK    2  A    between atoms: C_6  and  C_7 
REMARK    3  A    between atoms: C_11  and  C_12 
REMARK       I    between atoms: C_12  and  N_13 
REMARK    4  A    between atoms: N_13  and  N_14 
REMARK       I    between atoms: N_14  and  C_15 
REMARK    5  A    between atoms: C_15  and  C_16 
REMARK    6  A    between atoms: C_16  and  C_17 
ROOT
HETATM    1  C   UNL     1      -3.011   3.932 -31.444  1.00  0.00     0.288 C 
HETATM    2  N   UNL     1      -3.626   5.136 -31.170  1.00  0.00    -0.262 N 
HETATM    3  O   UNL     1      -1.809   3.757 -31.248  1.00  0.00    -0.264 OA
HETATM    4  H   UNL     1      -4.639   5.237 -31.170  1.00  0.00     0.190 HD
ENDROOT
BRANCH   1   5
HETATM    5  C   UNL     1      -3.873   2.899 -31.947  1.00  0.00     0.121 A 
HETATM    6  N   UNL     1      -5.227   3.064 -32.030  1.00  0.00    -0.272 N 
HETATM    7  N   UNL     1      -5.881   2.007 -32.533  1.00  0.00    -0.174 NA
HETATM    8  H   UNL     1      -5.759   3.884 -31.753  1.00  0.00     0.189 HD
HETATM    9  C   UNL     1      -4.920   1.116 -32.821  1.00  0.00     0.089 A 
HETATM   10  C   UNL     1      -3.646   1.632 -32.447  1.00  0.00     0.071 A 
BRANCH   9  11
HETATM   11  C   UNL     1      -5.224  -0.181 -33.433  1.00  0.00    -0.005 A 
HETATM   12  C   UNL     1      -4.287  -1.222 -33.427  1.00  0.00     0.016 A 
HETATM   13  C   UNL     1      -4.591  -2.455 -34.016  1.00  0.00     0.037 A 
HETATM   14  C   UNL     1      -5.831  -2.674 -34.618  1.00  0.00     0.068 A 
HETATM   15  C   UNL     1      -6.768  -1.641 -34.636  1.00  0.00     0.037 A 
HETATM   16  C   UNL     1      -6.464  -0.405 -34.050  1.00  0.00     0.016 A 
BRANCH  14  17
HETATM   17  O   UNL     1      -5.995  -3.923 -35.149  1.00  0.00    -0.356 OA
HETATM   18  C   UNL     1      -5.217  -4.969 -34.580  1.00  0.00     0.210 C 
ENDBRANCH  14  17
ENDBRANCH   9  11
ENDBRANCH   1   5
BRANCH   2  19
HETATM   19  N   UNL     1      -2.930   6.080 -30.398  1.00  0.00    -0.267 N 
HETATM   20  C   UNL     1      -2.371   7.147 -31.073  1.00  0.00     0.240 C 
HETATM   21  O   UNL     1      -2.289   7.172 -32.300  1.00  0.00    -0.272 OA
HETATM   22  H   UNL     1      -3.162   6.114 -29.404  1.00  0.00     0.190 HD
BRANCH  20  23
HETATM   23  C   UNL     1      -1.871   8.267 -30.184  1.00  0.00     0.148 C 
BRANCH  23  24
HETATM   24  C   UNL     1      -1.169   7.761 -28.953  1.00  0.00     0.011 A 
HETATM   25  C   UNL     1      -1.784   7.672 -27.697  1.00  0.00     0.043 A 
HETATM   26 CL   UNL     1      -3.421   8.165 -27.448  1.00  0.00    -0.084 Cl
HETATM   27  C   UNL     1      -1.082   7.179 -26.590  1.00  0.00     0.024 A 
HETATM   28  C   UNL     1       0.241   6.759 -26.723  1.00  0.00     0.005 A 
HETATM   29  C   UNL     1       0.861   6.829 -27.966  1.00  0.00     0.043 A 
HETATM   30  C   UNL     1       0.157   7.323 -29.061  1.00  0.00     0.124 A 
HETATM   31  F   UNL     1       0.784   7.386 -30.244  1.00  0.00    -0.205 F 
ENDBRANCH  23  24
ENDBRANCH  20  23
ENDBRANCH   2  19
TORSDOF 6
ENDMDL
MODEL 4
REMARK VINA RESULT:      -8.3      1.598      2.187
REMARK  6 active torsions:
REMARK  status: ('A' for Active; 'I' for Inactive)
REMARK    1  A    between atoms: O_2  and  C_3 
REMARK    2  A    between atoms: C_6  and  C_7 
REMARK    3  A    between atoms: C_11  and  C_12 
REMARK       I    between atoms: C_12  and  N_13 
REMARK    4  A    between atoms: N_13  and  N_14 
REMARK       I    between atoms: N_14  and  C_15 
REMARK    5  A    between atoms: C_15  and  C_16 
REMARK    6  A    between atoms: C_16  and  C_17 
ROOT
HETATM    1  C   UNL     1      -3.045   3.885 -31.382  1.00  0.00     0.288 C 
HETATM    2  N   UNL     1      -3.761   4.962 -30.903  1.00  0.00    -0.262 N 
HETATM    3  O   UNL     1      -1.815   3.866 -31.375  1.00  0.00    -0.264 OA
HETATM    4  H   UNL     1      -4.767   4.919 -30.752  1.00  0.00     0.190 HD
ENDROOT
BRANCH   1   5
HETATM    5  C   UNL     1      -3.835   2.785 -31.864  1.00  0.00     0.121 A 
HETATM    6  N   UNL     1      -5.195   2.864 -31.971  1.00  0.00    -0.272 N 
HETATM    7  N   UNL     1      -5.776   1.754 -32.449  1.00  0.00    -0.174 NA
HETATM    8  H   UNL     1      -5.781   3.658 -31.728  1.00  0.00     0.189 HD
HETATM    9  C   UNL     1      -4.757   0.916 -32.696  1.00  0.00     0.089 A 
HETATM   10  C   UNL     1      -3.524   1.520 -32.320  1.00  0.00     0.071 A 
BRANCH   9  11
HETATM   11  C   UNL     1      -4.972  -0.416 -33.271  1.00  0.00    -0.005 A 
HETATM   12  C   UNL     1      -3.984  -1.406 -33.193  1.00  0.00     0.016 A 
HETATM   13  C   UNL     1      -4.203  -2.672 -33.746  1.00  0.00     0.037 A 
HETATM   14  C   UNL     1      -5.407  -2.977 -34.384  1.00  0.00     0.068 A 
HETATM   15  C   UNL     1      -6.393  -1.996 -34.473  1.00  0.00     0.037 A 
HETATM   16  C   UNL     1      -6.175  -0.725 -33.922  1.00  0.00     0.016 A 
BRANCH  14  17
HETATM   17  O   UNL     1      -5.487  -4.250 -34.874  1.00  0.00    -0.356 OA
HETATM   18  C   UNL     1      -6.686  -4.600 -35.554  1.00  0.00     0.210 C 
ENDBRANCH  14  17
ENDBRANCH   9  11
ENDBRANCH   1   5
BRANCH   2  19
HETATM   19  N   UNL     1      -3.082   5.928 -30.142  1.00  0.00    -0.267 N 
HETATM   20  C   UNL     1      -2.746   7.104 -30.783  1.00  0.00     0.240 C 
HETATM   21  O   UNL     1      -2.832   7.229 -32.005  1.00  0.00    -0.272 OA
HETATM   22  H   UNL     1      -3.181   5.860 -29.129  1.00  0.00     0.190 HD
BRANCH  20  23
HETATM   23  C   UNL     1      -2.265   8.210 -29.868  1.00  0.00     0.148 C 
BRANCH  23  24
HETATM   24  C   UNL     1      -1.310   7.717 -28.814  1.00  0.00     0.011 A 
HETATM   25  C   UNL     1      -0.039   7.205 -29.106  1.00  0.00     0.043 A 
HETATM   26 CL   UNL     1       0.539   7.074 -30.729  1.00  0.00    -0.084 Cl
HETATM   27  C   UNL     1       0.812   6.773 -28.081  1.00  0.00     0.024 A 
HETATM   28  C   UNL     1       0.409   6.856 -26.748  1.00  0.00     0.005 A 
HETATM   29  C   UNL     1      -0.844   7.374 -26.442  1.00  0.00     0.043 A 
HETATM   30  C   UNL     1      -1.686   7.799 -27.468  1.00  0.00     0.124 A 
HETATM   31  F   UNL     1      -2.891   8.286 -27.141  1.00  0.00    -0.205 F 
ENDBRANCH  23  24
ENDBRANCH  20  23
ENDBRANCH   2  19
TORSDOF 6
ENDMDL
MODEL 5
REMARK VINA RESULT:      -7.9      3.256      3.966
REMARK  6 active torsions:
REMARK  status: ('A' for Active; 'I' for Inactive)
REMARK    1  A    between atoms: O_2  and  C_3 
REMARK    2  A    between atoms: C_6  and  C_7 
REMARK    3  A    between atoms: C_11  and  C_12 
REMARK       I    between atoms: C_12  and  N_13 
REMARK    4  A    between atoms: N_13  and  N_14 
REMARK       I    between atoms: N_14  and  C_15 
REMARK    5  A    between atoms: C_15  and  C_16 
REMARK    6  A    between atoms: C_16  and  C_17 
ROOT
HETATM    1  C   UNL     1      -3.579   3.071 -31.935  1.00  0.00     0.288 C 
HETATM    2  N   UNL     1      -3.530   4.360 -32.424  1.00  0.00    -0.262 N 
HETATM    3  O   UNL     1      -2.665   2.596 -31.263  1.00  0.00    -0.264 OA
HETATM    4  H   UNL     1      -4.344   4.814 -32.834  1.00  0.00     0.190 HD
ENDROOT
BRANCH   1   5
HETATM    5  C   UNL     1      -4.776   2.339 -32.247  1.00  0.00     0.121 A 
HETATM    6  N   UNL     1      -4.820   0.974 -32.201  1.00  0.00    -0.272 N 
HETATM    7  N   UNL     1      -6.017   0.452 -32.509  1.00  0.00    -0.174 NA
HETATM    8  H   UNL     1      -4.057   0.347 -31.964  1.00  0.00     0.189 HD
HETATM    9  C   UNL     1      -6.803   1.514 -32.741  1.00  0.00     0.089 A 
HETATM   10  C   UNL     1      -6.054   2.717 -32.608  1.00  0.00     0.071 A 
BRANCH   9  11
HETATM   11  C   UNL     1      -8.222   1.367 -33.079  1.00  0.00    -0.005 A 
HETATM   12  C   UNL     1      -8.962   0.264 -32.634  1.00  0.00     0.016 A 
HETATM   13  C   UNL     1     -10.315   0.136 -32.964  1.00  0.00     0.037 A 
HETATM   14  C   UNL     1     -10.958   1.102 -33.739  1.00  0.00     0.068 A 
HETATM   15  C   UNL     1     -10.228   2.201 -34.193  1.00  0.00     0.037 A 
HETATM   16  C   UNL     1      -8.871   2.329 -33.866  1.00  0.00     0.016 A 
BRANCH  14  17
HETATM   17  O   UNL     1     -12.280   0.855 -33.982  1.00  0.00    -0.356 OA
HETATM   18  C   UNL     1     -12.959   1.774 -34.827  1.00  0.00     0.210 C 
ENDBRANCH  14  17
ENDBRANCH   9  11
ENDBRANCH   1   5
BRANCH   2  19
HETATM   19  N   UNL     1      -2.553   5.230 -31.912  1.00  0.00    -0.267 N 
HETATM   20  C   UNL     1      -1.520   5.575 -32.760  1.00  0.00     0.240 C 
HETATM   21  O   UNL     1      -1.329   4.994 -33.829  1.00  0.00    -0.272 OA
HETATM   22  H   UNL     1      -2.829   5.805 -31.115  1.00  0.00     0.190 HD
BRANCH  20  23
HETATM   23  C   UNL     1      -0.648   6.712 -32.268  1.00  0.00     0.148 C 
BRANCH  23  24
HETATM   24  C   UNL     1      -0.363   6.627 -30.793  1.00  0.00     0.011 A 
HETATM   25  C   UNL     1      -0.935   7.488 -29.847  1.00  0.00     0.043 A 
HETATM   26 CL   UNL     1      -2.017   8.754 -30.305  1.00  0.00    -0.084 Cl
HETATM   27  C   UNL     1      -0.641   7.350 -28.484  1.00  0.00     0.024 A 
HETATM   28  C   UNL     1       0.221   6.345 -28.046  1.00  0.00     0.005 A 
HETATM   29  C   UNL     1       0.787   5.475 -28.972  1.00  0.00     0.043 A 
HETATM   30  C   UNL     1       0.491   5.621 -30.326  1.00  0.00     0.124 A 
HETATM   31  F   UNL     1       1.058   4.772 -31.194  1.00  0.00    -0.205 F 
ENDBRANCH  23  24
ENDBRANCH  20  23
ENDBRANCH   2  19
TORSDOF 6
ENDMDL
MODEL 6
REMARK VINA RESULT:      -7.8      3.604      4.360
REMARK  6 active torsions:
REMARK  status: ('A' for Active; 'I' for Inactive)
REMARK    1  A    between atoms: O_2  and  C_3 
REMARK    2  A    between atoms: C_6  and  C_7 
REMARK    3  A    between atoms: C_11  and  C_12 
REMARK       I    between atoms: C_12  and  N_13 
REMARK    4  A    between atoms: N_13  and  N_14 
REMARK       I    between atoms: N_14  and  C_15 
REMARK    5  A    between atoms: C_15  and  C_16 
REMARK    6  A    between atoms: C_16  and  C_17 
ROOT
HETATM    1  C   UNL     1      -3.418   2.949 -32.010  1.00  0.00     0.288 C 
HETATM    2  N   UNL     1      -3.195   3.883 -33.000  1.00  0.00    -0.262 N 
HETATM    3  O   UNL     1      -2.537   2.621 -31.216  1.00  0.00    -0.264 OA
HETATM    4  H   UNL     1      -3.956   4.280 -33.549  1.00  0.00     0.190 HD
ENDROOT
BRANCH   1   5
HETATM    5  C   UNL     1      -4.749   2.410 -31.959  1.00  0.00     0.121 A 
HETATM    6  N   UNL     1      -5.205   1.715 -30.874  1.00  0.00    -0.272 N 
HETATM    7  N   UNL     1      -6.473   1.291 -30.986  1.00  0.00    -0.174 NA
HETATM    8  H   UNL     1      -4.689   1.499 -30.027  1.00  0.00     0.189 HD
HETATM    9  C   UNL     1      -6.882   1.748 -32.180  1.00  0.00     0.089 A 
HETATM   10  C   UNL     1      -5.819   2.436 -32.831  1.00  0.00     0.071 A 
BRANCH   9  11
HETATM   11  C   UNL     1      -8.245   1.524 -32.669  1.00  0.00    -0.005 A 
HETATM   12  C   UNL     1      -8.930   2.516 -33.382  1.00  0.00     0.016 A 
HETATM   13  C   UNL     1     -10.232   2.289 -33.842  1.00  0.00     0.037 A 
HETATM   14  C   UNL     1     -10.874   1.072 -33.605  1.00  0.00     0.068 A 
HETATM   15  C   UNL     1     -10.203   0.081 -32.889  1.00  0.00     0.037 A 
HETATM   16  C   UNL     1      -8.900   0.308 -32.424  1.00  0.00     0.016 A 
BRANCH  14  17
HETATM   17  O   UNL     1     -12.139   0.984 -34.113  1.00  0.00    -0.356 OA
HETATM   18  C   UNL     1     -12.394   1.686 -35.323  1.00  0.00     0.210 C 
ENDBRANCH  14  17
ENDBRANCH   9  11
ENDBRANCH   1   5
BRANCH   2  19
HETATM   19  N   UNL     1      -2.036   4.672 -32.924  1.00  0.00    -0.267 N 
HETATM   20  C   UNL     1      -2.139   5.976 -33.367  1.00  0.00     0.240 C 
HETATM   21  O   UNL     1      -3.117   6.376 -33.997  1.00  0.00    -0.272 OA
HETATM   22  H   UNL     1      -1.322   4.368 -32.261  1.00  0.00     0.190 HD
BRANCH  20  23
HETATM   23  C   UNL     1      -0.957   6.858 -33.020  1.00  0.00     0.148 C 
BRANCH  23  24
HETATM   24  C   UNL     1      -0.909   7.214 -31.558  1.00  0.00     0.011 A 
HETATM   25  C   UNL     1      -0.077   6.566 -30.636  1.00  0.00     0.043 A 
HETATM   26 CL   UNL     1       0.963   5.268 -31.102  1.00  0.00    -0.084 Cl
HETATM   27  C   UNL     1      -0.066   6.951 -29.289  1.00  0.00     0.024 A 
HETATM   28  C   UNL     1      -0.878   7.996 -28.847  1.00  0.00     0.005 A 
HETATM   29  C   UNL     1      -1.699   8.656 -29.754  1.00  0.00     0.043 A 
HETATM   30  C   UNL     1      -1.707   8.265 -31.091  1.00  0.00     0.124 A 
HETATM   31  F   UNL     1      -2.515   8.916 -31.939  1.00  0.00    -0.205 F 
ENDBRANCH  23  24
ENDBRANCH  20  23
ENDBRANCH   2  19
TORSDOF 6
ENDMDL
MODEL 7
REMARK VINA RESULT:      -7.5      7.897     10.635
REMARK  6 active torsions:
REMARK  status: ('A' for Active; 'I' for Inactive)
REMARK    1  A    between atoms: O_2  and  C_3 
REMARK    2  A    between atoms: C_6  and  C_7 
REMARK    3  A    between atoms: C_11  and  C_12 
REMARK       I    between atoms: C_12  and  N_13 
REMARK    4  A    between atoms: N_13  and  N_14 
REMARK       I    between atoms: N_14  and  C_15 
REMARK    5  A    between atoms: C_15  and  C_16 
REMARK    6  A    between atoms: C_16  and  C_17 
ROOT
HETATM    1  C   UNL     1      -9.825   3.720 -31.955  1.00  0.00     0.288 C 
HETATM    2  N   UNL     1      -9.354   2.517 -32.436  1.00  0.00    -0.262 N 
HETATM    3  O   UNL     1      -9.099   4.708 -31.853  1.00  0.00    -0.264 OA
HETATM    4  H   UNL     1      -9.979   1.750 -32.679  1.00  0.00     0.190 HD
ENDROOT
BRANCH   1   5
HETATM    5  C   UNL     1     -11.218   3.742 -31.605  1.00  0.00     0.121 A 
HETATM    6  N   UNL     1     -11.639   3.963 -30.324  1.00  0.00    -0.272 N 
HETATM    7  N   UNL     1     -12.972   3.963 -30.174  1.00  0.00    -0.174 NA
HETATM    8  H   UNL     1     -11.053   4.120 -29.509  1.00  0.00     0.189 HD
HETATM    9  C   UNL     1     -13.454   3.762 -31.410  1.00  0.00     0.089 A 
HETATM   10  C   UNL     1     -12.383   3.596 -32.333  1.00  0.00     0.071 A 
BRANCH   9  11
HETATM   11  C   UNL     1     -14.894   3.730 -31.683  1.00  0.00    -0.005 A 
HETATM   12  C   UNL     1     -15.667   4.897 -31.626  1.00  0.00     0.016 A 
HETATM   13  C   UNL     1     -17.041   4.852 -31.889  1.00  0.00     0.037 A 
HETATM   14  C   UNL     1     -17.669   3.649 -32.215  1.00  0.00     0.068 A 
HETATM   15  C   UNL     1     -16.909   2.481 -32.267  1.00  0.00     0.037 A 
HETATM   16  C   UNL     1     -15.534   2.523 -32.000  1.00  0.00     0.016 A 
BRANCH  14  17
HETATM   17  O   UNL     1     -19.011   3.751 -32.451  1.00  0.00    -0.356 OA
HETATM   18  C   UNL     1     -19.478   3.284 -33.710  1.00  0.00     0.210 C 
ENDBRANCH  14  17
ENDBRANCH   9  11
ENDBRANCH   1   5
BRANCH   2  19
HETATM   19  N   UNL     1      -8.106   2.498 -33.079  1.00  0.00    -0.267 N 
HETATM   20  C   UNL     1      -7.096   1.789 -32.460  1.00  0.00     0.240 C 
HETATM   21  O   UNL     1      -7.201   1.375 -31.306  1.00  0.00    -0.272 OA
HETATM   22  H   UNL     1      -8.108   2.698 -34.080  1.00  0.00     0.190 HD
BRANCH  20  23
HETATM   23  C   UNL     1      -5.861   1.570 -33.310  1.00  0.00     0.148 C 
BRANCH  23  24
HETATM   24  C   UNL     1      -5.614   0.116 -33.610  1.00  0.00     0.011 A 
HETATM   25  C   UNL     1      -6.346  -0.609 -34.561  1.00  0.00     0.043 A 
HETATM   26 CL   UNL     1      -7.629   0.111 -35.466  1.00  0.00    -0.084 Cl
HETATM   27  C   UNL     1      -6.060  -1.958 -34.806  1.00  0.00     0.024 A 
HETATM   28  C   UNL     1      -5.033  -2.599 -34.114  1.00  0.00     0.005 A 
HETATM   29  C   UNL     1      -4.290  -1.889 -33.177  1.00  0.00     0.043 A 
HETATM   30  C   UNL     1      -4.582  -0.548 -32.937  1.00  0.00     0.124 A 
HETATM   31  F   UNL     1      -3.854   0.107 -32.022  1.00  0.00    -0.205 F 
ENDBRANCH  23  24
ENDBRANCH  20  23
ENDBRANCH   2  19
TORSDOF 6
ENDMDL
MODEL 8
REMARK VINA RESULT:      -7.5      3.439      4.026
REMARK  6 active torsions:
REMARK  status: ('A' for Active; 'I' for Inactive)
REMARK    1  A    between atoms: O_2  and  C_3 
REMARK    2  A    between atoms: C_6  and  C_7 
REMARK    3  A    between atoms: C_11  and  C_12 
REMARK       I    between atoms: C_12  and  N_13 
REMARK    4  A    between atoms: N_13  and  N_14 
REMARK       I    between atoms: N_14  and  C_15 
REMARK    5  A    between atoms: C_15  and  C_16 
REMARK    6  A    between atoms: C_16  and  C_17 
ROOT
HETATM    1  C   UNL     1      -3.884   4.388 -33.316  1.00  0.00     0.288 C 
HETATM    2  N   UNL     1      -3.531   5.536 -33.993  1.00  0.00    -0.262 N 
HETATM    3  O   UNL     1      -3.063   3.731 -32.678  1.00  0.00    -0.264 OA
HETATM    4  H   UNL     1      -4.227   6.171 -34.380  1.00  0.00     0.190 HD
ENDROOT
BRANCH   1   5
HETATM    5  C   UNL     1      -5.274   4.031 -33.391  1.00  0.00     0.121 A 
HETATM    6  N   UNL     1      -6.229   4.922 -33.792  1.00  0.00    -0.272 N 
HETATM    7  N   UNL     1      -7.473   4.423 -33.816  1.00  0.00    -0.174 NA
HETATM    8  H   UNL     1      -6.084   5.890 -34.062  1.00  0.00     0.189 HD
HETATM    9  C   UNL     1      -7.334   3.141 -33.442  1.00  0.00     0.089 A 
HETATM   10  C   UNL     1      -5.970   2.863 -33.145  1.00  0.00     0.071 A 
BRANCH   9  11
HETATM   11  C   UNL     1      -8.477   2.226 -33.375  1.00  0.00    -0.005 A 
HETATM   12  C   UNL     1      -9.517   2.296 -34.311  1.00  0.00     0.016 A 
HETATM   13  C   UNL     1     -10.602   1.417 -34.235  1.00  0.00     0.037 A 
HETATM   14  C   UNL     1     -10.672   0.451 -33.229  1.00  0.00     0.068 A 
HETATM   15  C   UNL     1      -9.646   0.378 -32.289  1.00  0.00     0.037 A 
HETATM   16  C   UNL     1      -8.560   1.261 -32.361  1.00  0.00     0.016 A 
BRANCH  14  17
HETATM   17  O   UNL     1     -11.783  -0.343 -33.276  1.00  0.00    -0.356 OA
HETATM   18  C   UNL     1     -13.004   0.284 -33.649  1.00  0.00     0.210 C 
ENDBRANCH  14  17
ENDBRANCH   9  11
ENDBRANCH   1   5
BRANCH   2  19
HETATM   19  N   UNL     1      -2.280   6.114 -33.719  1.00  0.00    -0.267 N 
HETATM   20  C   UNL     1      -2.237   7.063 -32.718  1.00  0.00     0.240 C 
HETATM   21  O   UNL     1      -3.260   7.547 -32.233  1.00  0.00    -0.272 OA
HETATM   22  H   UNL     1      -1.460   5.580 -34.011  1.00  0.00     0.190 HD
BRANCH  20  23
HETATM   23  C   UNL     1      -0.843   7.456 -32.276  1.00  0.00     0.148 C 
BRANCH  23  24
HETATM   24  C   UNL     1      -0.525   6.992 -30.880  1.00  0.00     0.011 A 
HETATM   25  C   UNL     1      -0.871   7.715 -29.731  1.00  0.00     0.043 A 
HETATM   26 CL   UNL     1      -1.687   9.236 -29.822  1.00  0.00    -0.084 Cl
HETATM   27  C   UNL     1      -0.560   7.224 -28.456  1.00  0.00     0.024 A 
HETATM   28  C   UNL     1       0.093   6.000 -28.311  1.00  0.00     0.005 A 
HETATM   29  C   UNL     1       0.431   5.266 -29.442  1.00  0.00     0.043 A 
HETATM   30  C   UNL     1       0.121   5.762 -30.706  1.00  0.00     0.124 A 
HETATM   31  F   UNL     1       0.468   5.034 -31.777  1.00  0.00    -0.205 F 
ENDBRANCH  23  24
ENDBRANCH  20  23
ENDBRANCH   2  19
TORSDOF 6
ENDMDL
MODEL 9
REMARK VINA RESULT:      -7.4      3.451     10.942
REMARK  6 active torsions:
REMARK  status: ('A' for Active; 'I' for Inactive)
REMARK    1  A    between atoms: O_2  and  C_3 
REMARK    2  A    between atoms: C_6  and  C_7 
REMARK    3  A    between atoms: C_11  and  C_12 
REMARK       I    between atoms: C_12  and  N_13 
REMARK    4  A    between atoms: N_13  and  N_14 
REMARK       I    between atoms: N_14  and  C_15 
REMARK    5  A    between atoms: C_15  and  C_16 
REMARK    6  A    between atoms: C_16  and  C_17 
ROOT
HETATM    1  C   UNL     1      -1.152   5.694 -31.199  1.00  0.00     0.288 C 
HETATM    2  N   UNL     1      -2.161   4.820 -30.850  1.00  0.00    -0.262 N 
HETATM    3  O   UNL     1      -0.582   5.627 -32.286  1.00  0.00    -0.264 OA
HETATM    4  H   UNL     1      -2.747   4.970 -30.031  1.00  0.00     0.190 HD
ENDROOT
BRANCH   1   5
HETATM    5  C   UNL     1      -0.835   6.693 -30.216  1.00  0.00     0.121 A 
HETATM    6  N   UNL     1      -1.577   7.832 -30.078  1.00  0.00    -0.272 N 
HETATM    7  N   UNL     1      -1.151   8.652 -29.106  1.00  0.00    -0.174 NA
HETATM    8  H   UNL     1      -2.390   8.100 -30.625  1.00  0.00     0.189 HD
HETATM    9  C   UNL     1      -0.102   8.019 -28.560  1.00  0.00     0.089 A 
HETATM   10  C   UNL     1       0.142   6.794 -29.245  1.00  0.00     0.071 A 
BRANCH   9  11
HETATM   11  C   UNL     1       0.634   8.578 -27.423  1.00  0.00    -0.005 A 
HETATM   12  C   UNL     1       0.432   9.901 -27.010  1.00  0.00     0.016 A 
HETATM   13  C   UNL     1       1.142  10.423 -25.923  1.00  0.00     0.037 A 
HETATM   14  C   UNL     1       2.062   9.639 -25.226  1.00  0.00     0.068 A 
HETATM   15  C   UNL     1       2.276   8.323 -25.634  1.00  0.00     0.037 A 
HETATM   16  C   UNL     1       1.569   7.800 -26.725  1.00  0.00     0.016 A 
BRANCH  14  17
HETATM   17  O   UNL     1       2.681  10.272 -24.185  1.00  0.00    -0.356 OA
HETATM   18  C   UNL     1       3.996   9.840 -23.861  1.00  0.00     0.210 C 
ENDBRANCH  14  17
ENDBRANCH   9  11
ENDBRANCH   1   5
BRANCH   2  19
HETATM   19  N   UNL     1      -2.733   4.026 -31.858  1.00  0.00    -0.267 N 
HETATM   20  C   UNL     1      -4.085   3.767 -31.755  1.00  0.00     0.240 C 
HETATM   21  O   UNL     1      -4.724   4.023 -30.734  1.00  0.00    -0.272 OA
HETATM   22  H   UNL     1      -2.227   3.982 -32.743  1.00  0.00     0.190 HD
BRANCH  20  23
HETATM   23  C   UNL     1      -4.707   3.144 -32.988  1.00  0.00     0.148 C 
BRANCH  23  24
HETATM   24  C   UNL     1      -5.320   1.797 -32.711  1.00  0.00     0.011 A 
HETATM   25  C   UNL     1      -6.695   1.600 -32.530  1.00  0.00     0.043 A 
HETATM   26 CL   UNL     1      -7.819   2.912 -32.587  1.00  0.00    -0.084 Cl
HETATM   27  C   UNL     1      -7.209   0.320 -32.288  1.00  0.00     0.024 A 
HETATM   28  C   UNL     1      -6.358  -0.784 -32.234  1.00  0.00     0.005 A 
HETATM   29  C   UNL     1      -4.992  -0.605 -32.425  1.00  0.00     0.043 A 
HETATM   30  C   UNL     1      -4.489   0.672 -32.662  1.00  0.00     0.124 A 
HETATM   31  F   UNL     1      -3.167   0.812 -32.834  1.00  0.00    -0.205 F 
ENDBRANCH  23  24
ENDBRANCH  20  23
ENDBRANCH   2  19
TORSDOF 6
ENDMDL
MODEL 10
REMARK VINA RESULT:      -7.3      8.072     10.386
REMARK  6 active torsions:
REMARK  status: ('A' for Active; 'I' for Inactive)
REMARK    1  A    between atoms: O_2  and  C_3 
REMARK    2  A    between atoms: C_6  and  C_7 
REMARK    3  A    between atoms: C_11  and  C_12 
REMARK       I    between atoms: C_12  and  N_13 
REMARK    4  A    between atoms: N_13  and  N_14 
REMARK       I    between atoms: N_14  and  C_15 
REMARK    5  A    between atoms: C_15  and  C_16 
REMARK    6  A    between atoms: C_16  and  C_17 
ROOT
HETATM    1  C   UNL     1     -12.115   2.140 -34.715  1.00  0.00     0.288 C 
HETATM    2  N   UNL     1     -12.445   3.282 -34.015  1.00  0.00    -0.262 N 
HETATM    3  O   UNL     1     -12.681   1.834 -35.763  1.00  0.00    -0.264 OA
HETATM    4  H   UNL     1     -11.875   3.627 -33.245  1.00  0.00     0.190 HD
ENDROOT
BRANCH   1   5
HETATM    5  C   UNL     1     -11.055   1.353 -34.147  1.00  0.00     0.121 A 
HETATM    6  N   UNL     1     -11.274   0.482 -33.118  1.00  0.00    -0.272 N 
HETATM    7  N   UNL     1     -10.179  -0.181 -32.715  1.00  0.00    -0.174 NA
HETATM    8  H   UNL     1     -12.156   0.301 -32.649  1.00  0.00     0.189 HD
HETATM    9  C   UNL     1      -9.202   0.248 -33.529  1.00  0.00     0.089 A 
HETATM   10  C   UNL     1      -9.709   1.229 -34.428  1.00  0.00     0.071 A 
BRANCH   9  11
HETATM   11  C   UNL     1      -7.834  -0.272 -33.438  1.00  0.00    -0.005 A 
HETATM   12  C   UNL     1      -7.258  -0.983 -34.498  1.00  0.00     0.016 A 
HETATM   13  C   UNL     1      -5.951  -1.474 -34.396  1.00  0.00     0.037 A 
HETATM   14  C   UNL     1      -5.195  -1.264 -33.242  1.00  0.00     0.068 A 
HETATM   15  C   UNL     1      -5.763  -0.564 -32.178  1.00  0.00     0.037 A 
HETATM   16  C   UNL     1      -7.073  -0.075 -32.276  1.00  0.00     0.016 A 
BRANCH  14  17
HETATM   17  O   UNL     1      -3.936  -1.794 -33.279  1.00  0.00    -0.356 OA
HETATM   18  C   UNL     1      -3.330  -2.096 -32.029  1.00  0.00     0.210 C 
ENDBRANCH  14  17
ENDBRANCH   9  11
ENDBRANCH   1   5
BRANCH   2  19
HETATM   19  N   UNL     1     -13.239   4.249 -34.653  1.00  0.00    -0.267 N 
HETATM   20  C   UNL     1     -12.578   5.289 -35.273  1.00  0.00     0.240 C 
HETATM   21  O   UNL     1     -11.376   5.494 -35.102  1.00  0.00    -0.272 OA
HETATM   22  H   UNL     1     -14.184   3.961 -34.912  1.00  0.00     0.190 HD
BRANCH  20  23
HETATM   23  C   UNL     1     -13.446   6.150 -36.168  1.00  0.00     0.148 C 
BRANCH  23  24
HETATM   24  C   UNL     1     -13.491   7.587 -35.723  1.00  0.00     0.011 A 
HETATM   25  C   UNL     1     -14.344   8.054 -34.714  1.00  0.00     0.043 A 
HETATM   26 CL   UNL     1     -15.449   7.006 -33.897  1.00  0.00    -0.084 Cl
HETATM   27  C   UNL     1     -14.331   9.402 -34.333  1.00  0.00     0.024 A 
HETATM   28  C   UNL     1     -13.459  10.301 -34.949  1.00  0.00     0.005 A 
HETATM   29  C   UNL     1     -12.598   9.849 -35.943  1.00  0.00     0.043 A 
HETATM   30  C   UNL     1     -12.620   8.507 -36.317  1.00  0.00     0.124 A 
HETATM   31  F   UNL     1     -11.783   8.104 -37.284  1.00  0.00    -0.205 F 
ENDBRANCH  23  24
ENDBRANCH  20  23
ENDBRANCH   2  19
TORSDOF 6
ENDMDL
