MODEL 1
REMARK VINA RESULT:      -8.7      0.000      0.000
REMARK  7 active torsions:
REMARK  status: ('A' for Active; 'I' for Inactive)
REMARK    1  A    between atoms: C_2  and  O_3 
REMARK    2  A    between atoms: O_3  and  C_4 
REMARK    3  A    between atoms: C_4  and  C_5 
REMARK    4  A    between atoms: C_6  and  N_7 
REMARK    5  A    between atoms: N_7  and  C_8 
REMARK    6  A    between atoms: C_9  and  C_10 
REMARK    7  A    between atoms: C_13  and  C_14 
ROOT
HETATM    1  C   UNL     1      -6.048   4.715 -33.843  1.00  0.00     0.114 C 
HETATM    2  C   UNL     1      -7.272   4.147 -33.847  1.00  0.00     0.095 C 
HETATM    3  C   UNL     1      -8.415   4.991 -33.990  1.00  0.00     0.103 C 
HETATM    4  N   UNL     1      -9.315   5.718 -34.088  1.00  0.00    -0.191 NA
ENDROOT
BRANCH   2   5
HETATM    5  C   UNL     1      -7.484   2.743 -33.671  1.00  0.00     0.120 A 
HETATM    6  S   UNL     1      -9.071   2.112 -33.327  1.00  0.00    -0.078 SA
HETATM    7  C   UNL     1      -8.471   0.516 -33.412  1.00  0.00     0.084 A 
HETATM    8  C   UNL     1      -7.129   0.528 -33.730  1.00  0.00     0.075 A 
HETATM    9  N   UNL     1      -6.580   1.796 -33.865  1.00  0.00    -0.239 NA
BRANCH   8  10
HETATM   10  C   UNL     1      -6.316  -0.670 -33.912  1.00  0.00    -0.007 A 
HETATM   11  C   UNL     1      -6.771  -1.768 -34.662  1.00  0.00     0.017 A 
HETATM   12  C   UNL     1      -5.967  -2.901 -34.820  1.00  0.00     0.043 A 
HETATM   13  C   UNL     1      -4.708  -2.937 -34.235  1.00  0.00     0.116 A 
HETATM   14  F   UNL     1      -3.941  -4.024 -34.388  1.00  0.00    -0.206 F 
HETATM   15  C   UNL     1      -4.233  -1.861 -33.497  1.00  0.00     0.043 A 
HETATM   16  C   UNL     1      -5.034  -0.727 -33.339  1.00  0.00     0.017 A 
ENDBRANCH   8  10
ENDBRANCH   2   5
BRANCH   1  17
HETATM   17  N   UNL     1      -4.786   4.155 -33.785  1.00  0.00    -0.358 N 
HETATM   18  H   UNL     1      -4.787   3.131 -33.854  1.00  0.00     0.166 HD
BRANCH  17  19
HETATM   19  C   UNL     1      -3.651   4.701 -33.243  1.00  0.00     0.091 A 
HETATM   20  C   UNL     1      -2.999   4.247 -32.095  1.00  0.00     0.080 A 
HETATM   21  C   UNL     1      -1.880   5.102 -31.744  1.00  0.00    -0.026 A 
HETATM   22  C   UNL     1      -1.718   6.125 -32.658  1.00  0.00    -0.008 A 
HETATM   23  C   UNL     1      -0.957   4.963 -30.563  1.00  0.00     0.041 C 
HETATM   24  S   UNL     1      -2.856   6.075 -33.908  1.00  0.00    -0.075 SA
HETATM   25  C   UNL     1      -0.689   7.212 -32.578  1.00  0.00     0.047 C 
HETATM   26  C   UNL     1       0.423   6.832 -31.593  1.00  0.00     0.005 C 
HETATM   27  C   UNL     1      -0.151   6.244 -30.298  1.00  0.00     0.005 C 
BRANCH  20  28
HETATM   28  C   UNL     1      -3.454   3.045 -31.385  1.00  0.00     0.296 C 
HETATM   29  O   UNL     1      -2.778   2.026 -31.290  1.00  0.00    -0.259 OA
BRANCH  28  30
HETATM   30  O   UNL     1      -4.686   3.196 -30.819  1.00  0.00    -0.318 OA
BRANCH  30  31
HETATM   31  C   UNL     1      -5.377   1.990 -30.464  1.00  0.00     0.174 C 
HETATM   32  C   UNL     1      -6.822   2.310 -30.132  1.00  0.00     0.034 C 
ENDBRANCH  30  31
ENDBRANCH  28  30
ENDBRANCH  20  28
ENDBRANCH  17  19
ENDBRANCH   1  17
TORSDOF 7
ENDMDL
MODEL 2
REMARK VINA RESULT:      -8.4      2.922      7.055
REMARK  7 active torsions:
REMARK  status: ('A' for Active; 'I' for Inactive)
REMARK    1  A    between atoms: C_2  and  O_3 
REMARK    2  A    between atoms: O_3  and  C_4 
REMARK    3  A    between atoms: C_4  and  C_5 
REMARK    4  A    between atoms: C_6  and  N_7 
REMARK    5  A    between atoms: N_7  and  C_8 
REMARK    6  A    between atoms: C_9  and  C_10 
REMARK    7  A    between atoms: C_13  and  C_14 
ROOT
HETATM    1  C   UNL     1      -8.072   1.402 -33.927  1.00  0.00     0.114 C 
HETATM    2  C   UNL     1      -8.604   2.642 -33.917  1.00  0.00     0.095 C 
HETATM    3  C   UNL     1      -9.998   2.789 -34.188  1.00  0.00     0.103 C 
HETATM    4  N   UNL     1     -11.130   2.861 -34.435  1.00  0.00    -0.191 NA
ENDROOT
BRANCH   2   5
HETATM    5  C   UNL     1      -7.830   3.824 -33.690  1.00  0.00     0.120 A 
HETATM    6  S   UNL     1      -8.506   5.190 -32.847  1.00  0.00    -0.078 SA
HETATM    7  C   UNL     1      -6.999   5.989 -32.904  1.00  0.00     0.084 A 
HETATM    8  C   UNL     1      -6.057   5.187 -33.512  1.00  0.00     0.075 A 
HETATM    9  N   UNL     1      -6.543   3.966 -33.960  1.00  0.00    -0.239 NA
BRANCH   8  10
HETATM   10  C   UNL     1      -4.656   5.555 -33.694  1.00  0.00    -0.007 A 
HETATM   11  C   UNL     1      -3.905   5.095 -34.788  1.00  0.00     0.017 A 
HETATM   12  C   UNL     1      -2.566   5.468 -34.937  1.00  0.00     0.043 A 
HETATM   13  C   UNL     1      -1.977   6.304 -33.997  1.00  0.00     0.116 A 
HETATM   14  F   UNL     1      -0.694   6.658 -34.142  1.00  0.00    -0.206 F 
HETATM   15  C   UNL     1      -2.702   6.779 -32.912  1.00  0.00     0.043 A 
HETATM   16  C   UNL     1      -4.041   6.409 -32.763  1.00  0.00     0.017 A 
ENDBRANCH   8  10
ENDBRANCH   2   5
BRANCH   1  17
HETATM   17  N   UNL     1      -6.795   0.958 -33.645  1.00  0.00    -0.358 N 
HETATM   18  H   UNL     1      -6.086   1.699 -33.676  1.00  0.00     0.166 HD
BRANCH  17  19
HETATM   19  C   UNL     1      -6.308  -0.320 -33.755  1.00  0.00     0.091 A 
HETATM   20  C   UNL     1      -5.177  -0.817 -33.105  1.00  0.00     0.080 A 
HETATM   21  C   UNL     1      -4.887  -2.180 -33.510  1.00  0.00    -0.026 A 
HETATM   22  C   UNL     1      -5.827  -2.655 -34.404  1.00  0.00    -0.008 A 
HETATM   23  C   UNL     1      -3.739  -3.044 -33.059  1.00  0.00     0.041 C 
HETATM   24  S   UNL     1      -7.031  -1.520 -34.754  1.00  0.00    -0.075 SA
HETATM   25  C   UNL     1      -5.809  -4.004 -35.055  1.00  0.00     0.047 C 
HETATM   26  C   UNL     1      -4.859  -4.951 -34.311  1.00  0.00     0.005 C 
HETATM   27  C   UNL     1      -3.531  -4.262 -33.973  1.00  0.00     0.005 C 
BRANCH  20  28
HETATM   28  C   UNL     1      -4.426   0.003 -32.147  1.00  0.00     0.296 C 
HETATM   29  O   UNL     1      -4.034  -0.420 -31.064  1.00  0.00    -0.259 OA
BRANCH  28  30
HETATM   30  O   UNL     1      -4.184   1.266 -32.603  1.00  0.00    -0.318 OA
BRANCH  30  31
HETATM   31  C   UNL     1      -4.271   2.321 -31.634  1.00  0.00     0.174 C 
HETATM   32  C   UNL     1      -2.962   3.086 -31.596  1.00  0.00     0.034 C 
ENDBRANCH  30  31
ENDBRANCH  28  30
ENDBRANCH  20  28
ENDBRANCH  17  19
ENDBRANCH   1  17
TORSDOF 7
ENDMDL
MODEL 3
REMARK VINA RESULT:      -8.4      3.387      7.458
REMARK  7 active torsions:
REMARK  status: ('A' for Active; 'I' for Inactive)
REMARK    1  A    between atoms: C_2  and  O_3 
REMARK    2  A    between atoms: O_3  and  C_4 
REMARK    3  A    between atoms: C_4  and  C_5 
REMARK    4  A    between atoms: C_6  and  N_7 
REMARK    5  A    between atoms: N_7  and  C_8 
REMARK    6  A    between atoms: C_9  and  C_10 
REMARK    7  A    between atoms: C_13  and  C_14 
ROOT
HETATM    1  C   UNL     1      -3.710   1.776 -31.656  1.00  0.00     0.114 C 
HETATM    2  C   UNL     1      -3.777   3.064 -32.050  1.00  0.00     0.095 C 
HETATM    3  C   UNL     1      -2.593   3.859 -31.992  1.00  0.00     0.103 C 
HETATM    4  N   UNL     1      -1.609   4.471 -31.908  1.00  0.00    -0.191 NA
ENDROOT
BRANCH   2   5
HETATM    5  C   UNL     1      -4.990   3.688 -32.484  1.00  0.00     0.120 A 
HETATM    6  S   UNL     1      -5.018   4.710 -33.893  1.00  0.00    -0.078 SA
HETATM    7  C   UNL     1      -6.711   4.879 -33.755  1.00  0.00     0.084 A 
HETATM    8  C   UNL     1      -7.179   4.137 -32.692  1.00  0.00     0.075 A 
HETATM    9  N   UNL     1      -6.192   3.474 -31.974  1.00  0.00    -0.239 NA
BRANCH   8  10
HETATM   10  C   UNL     1      -8.585   4.035 -32.314  1.00  0.00    -0.007 A 
HETATM   11  C   UNL     1      -8.982   3.832 -30.982  1.00  0.00     0.017 A 
HETATM   12  C   UNL     1     -10.337   3.742 -30.651  1.00  0.00     0.043 A 
HETATM   13  C   UNL     1     -11.297   3.858 -31.648  1.00  0.00     0.116 A 
HETATM   14  F   UNL     1     -12.594   3.770 -31.328  1.00  0.00    -0.206 F 
HETATM   15  C   UNL     1     -10.929   4.068 -32.971  1.00  0.00     0.043 A 
HETATM   16  C   UNL     1      -9.575   4.160 -33.303  1.00  0.00     0.017 A 
ENDBRANCH   8  10
ENDBRANCH   2   5
BRANCH   1  17
HETATM   17  N   UNL     1      -4.659   0.773 -31.661  1.00  0.00    -0.358 N 
HETATM   18  H   UNL     1      -5.280   0.790 -30.844  1.00  0.00     0.166 HD
BRANCH  17  19
HETATM   19  C   UNL     1      -4.611  -0.423 -32.332  1.00  0.00     0.091 A 
HETATM   20  C   UNL     1      -5.516  -0.843 -33.310  1.00  0.00     0.080 A 
HETATM   21  C   UNL     1      -5.230  -2.195 -33.753  1.00  0.00    -0.026 A 
HETATM   22  C   UNL     1      -4.112  -2.709 -33.126  1.00  0.00    -0.008 A 
HETATM   23  C   UNL     1      -5.994  -3.007 -34.765  1.00  0.00     0.041 C 
HETATM   24  S   UNL     1      -3.408  -1.617 -32.043  1.00  0.00    -0.075 SA
HETATM   25  C   UNL     1      -3.561  -4.089 -33.317  1.00  0.00     0.047 C 
HETATM   26  C   UNL     1      -4.135  -4.729 -34.588  1.00  0.00     0.005 C 
HETATM   27  C   UNL     1      -5.647  -4.502 -34.696  1.00  0.00     0.005 C 
BRANCH  20  28
HETATM   28  C   UNL     1      -6.598   0.033 -33.774  1.00  0.00     0.296 C 
HETATM   29  O   UNL     1      -6.400   1.061 -34.414  1.00  0.00    -0.259 OA
BRANCH  28  30
HETATM   30  O   UNL     1      -7.838  -0.433 -33.448  1.00  0.00    -0.318 OA
BRANCH  30  31
HETATM   31  C   UNL     1      -8.608   0.376 -32.547  1.00  0.00     0.174 C 
HETATM   32  C   UNL     1     -10.054   0.410 -33.003  1.00  0.00     0.034 C 
ENDBRANCH  30  31
ENDBRANCH  28  30
ENDBRANCH  20  28
ENDBRANCH  17  19
ENDBRANCH   1  17
TORSDOF 7
ENDMDL
MODEL 4
REMARK VINA RESULT:      -8.3      3.355      7.741
REMARK  7 active torsions:
REMARK  status: ('A' for Active; 'I' for Inactive)
REMARK    1  A    between atoms: C_2  and  O_3 
REMARK    2  A    between atoms: O_3  and  C_4 
REMARK    3  A    between atoms: C_4  and  C_5 
REMARK    4  A    between atoms: C_6  and  N_7 
REMARK    5  A    between atoms: N_7  and  C_8 
REMARK    6  A    between atoms: C_9  and  C_10 
REMARK    7  A    between atoms: C_13  and  C_14 
ROOT
HETATM    1  C   UNL     1      -6.172   1.403 -31.513  1.00  0.00     0.114 C 
HETATM    2  C   UNL     1      -6.582   2.687 -31.449  1.00  0.00     0.095 C 
HETATM    3  C   UNL     1      -7.866   2.967 -30.892  1.00  0.00     0.103 C 
HETATM    4  N   UNL     1      -8.925   3.144 -30.451  1.00  0.00    -0.191 NA
ENDROOT
BRANCH   2   5
HETATM    5  C   UNL     1      -5.808   3.781 -31.951  1.00  0.00     0.120 A 
HETATM    6  S   UNL     1      -6.548   5.042 -32.897  1.00  0.00    -0.078 SA
HETATM    7  C   UNL     1      -5.072   5.899 -32.936  1.00  0.00     0.084 A 
HETATM    8  C   UNL     1      -4.111   5.226 -32.211  1.00  0.00     0.075 A 
HETATM    9  N   UNL     1      -4.539   4.023 -31.666  1.00  0.00    -0.239 NA
BRANCH   8  10
HETATM   10  C   UNL     1      -2.745   5.701 -32.015  1.00  0.00    -0.007 A 
HETATM   11  C   UNL     1      -1.714   4.842 -31.600  1.00  0.00     0.017 A 
HETATM   12  C   UNL     1      -0.414   5.326 -31.423  1.00  0.00     0.043 A 
HETATM   13  C   UNL     1      -0.142   6.666 -31.667  1.00  0.00     0.116 A 
HETATM   14  F   UNL     1       1.103   7.127 -31.497  1.00  0.00    -0.206 F 
HETATM   15  C   UNL     1      -1.142   7.533 -32.087  1.00  0.00     0.043 A 
HETATM   16  C   UNL     1      -2.441   7.050 -32.266  1.00  0.00     0.017 A 
ENDBRANCH   8  10
ENDBRANCH   2   5
BRANCH   1  17
HETATM   17  N   UNL     1      -4.979   0.849 -31.934  1.00  0.00    -0.358 N 
HETATM   18  H   UNL     1      -4.258   1.545 -32.153  1.00  0.00     0.166 HD
BRANCH  17  19
HETATM   19  C   UNL     1      -4.779  -0.391 -32.485  1.00  0.00     0.091 A 
HETATM   20  C   UNL     1      -5.539  -0.958 -33.509  1.00  0.00     0.080 A 
HETATM   21  C   UNL     1      -5.118  -2.317 -33.795  1.00  0.00    -0.026 A 
HETATM   22  C   UNL     1      -4.045  -2.691 -33.011  1.00  0.00    -0.008 A 
HETATM   23  C   UNL     1      -5.709  -3.265 -34.805  1.00  0.00     0.041 C 
HETATM   24  S   UNL     1      -3.539  -1.463 -31.963  1.00  0.00    -0.075 SA
HETATM   25  C   UNL     1      -3.386  -4.037 -33.017  1.00  0.00     0.047 C 
HETATM   26  C   UNL     1      -3.772  -4.822 -34.277  1.00  0.00     0.005 C 
HETATM   27  C   UNL     1      -5.275  -4.719 -34.564  1.00  0.00     0.005 C 
BRANCH  20  28
HETATM   28  C   UNL     1      -6.618  -0.207 -34.163  1.00  0.00     0.296 C 
HETATM   29  O   UNL     1      -6.414   0.692 -34.972  1.00  0.00    -0.259 OA
BRANCH  28  30
HETATM   30  O   UNL     1      -7.862  -0.636 -33.800  1.00  0.00    -0.318 OA
BRANCH  30  31
HETATM   31  C   UNL     1      -8.887   0.364 -33.733  1.00  0.00     0.174 C 
HETATM   32  C   UNL     1      -9.918  -0.033 -32.694  1.00  0.00     0.034 C 
ENDBRANCH  30  31
ENDBRANCH  28  30
ENDBRANCH  20  28
ENDBRANCH  17  19
ENDBRANCH   1  17
TORSDOF 7
ENDMDL
MODEL 5
REMARK VINA RESULT:      -8.3      2.307      3.425
REMARK  7 active torsions:
REMARK  status: ('A' for Active; 'I' for Inactive)
REMARK    1  A    between atoms: C_2  and  O_3 
REMARK    2  A    between atoms: O_3  and  C_4 
REMARK    3  A    between atoms: C_4  and  C_5 
REMARK    4  A    between atoms: C_6  and  N_7 
REMARK    5  A    between atoms: N_7  and  C_8 
REMARK    6  A    between atoms: C_9  and  C_10 
REMARK    7  A    between atoms: C_13  and  C_14 
ROOT
HETATM    1  C   UNL     1      -4.655   5.068 -32.089  1.00  0.00     0.114 C 
HETATM    2  C   UNL     1      -5.567   4.199 -32.570  1.00  0.00     0.095 C 
HETATM    3  C   UNL     1      -6.610   4.697 -33.408  1.00  0.00     0.103 C 
HETATM    4  N   UNL     1      -7.450   5.151 -34.068  1.00  0.00    -0.191 NA
ENDROOT
BRANCH   2   5
HETATM    5  C   UNL     1      -5.565   2.804 -32.247  1.00  0.00     0.120 A 
HETATM    6  S   UNL     1      -5.764   2.265 -30.603  1.00  0.00    -0.078 SA
HETATM    7  C   UNL     1      -5.779   0.639 -31.124  1.00  0.00     0.084 A 
HETATM    8  C   UNL     1      -5.674   0.577 -32.497  1.00  0.00     0.075 A 
HETATM    9  N   UNL     1      -5.545   1.811 -33.121  1.00  0.00    -0.239 NA
BRANCH   8  10
HETATM   10  C   UNL     1      -5.687  -0.662 -33.268  1.00  0.00    -0.007 A 
HETATM   11  C   UNL     1      -6.870  -1.175 -33.826  1.00  0.00     0.017 A 
HETATM   12  C   UNL     1      -6.851  -2.364 -34.563  1.00  0.00     0.043 A 
HETATM   13  C   UNL     1      -5.650  -3.037 -34.747  1.00  0.00     0.116 A 
HETATM   14  F   UNL     1      -5.635  -4.175 -35.453  1.00  0.00    -0.206 F 
HETATM   15  C   UNL     1      -4.466  -2.545 -34.214  1.00  0.00     0.043 A 
HETATM   16  C   UNL     1      -4.485  -1.356 -33.479  1.00  0.00     0.017 A 
ENDBRANCH   8  10
ENDBRANCH   2   5
BRANCH   1  17
HETATM   17  N   UNL     1      -3.523   4.868 -31.322  1.00  0.00    -0.358 N 
HETATM   18  H   UNL     1      -3.408   3.899 -31.004  1.00  0.00     0.166 HD
BRANCH  17  19
HETATM   19  C   UNL     1      -2.818   5.803 -30.608  1.00  0.00     0.091 A 
HETATM   20  C   UNL     1      -1.437   6.000 -30.669  1.00  0.00     0.080 A 
HETATM   21  C   UNL     1      -1.001   7.008 -29.721  1.00  0.00    -0.026 A 
HETATM   22  C   UNL     1      -2.067   7.547 -29.028  1.00  0.00    -0.008 A 
HETATM   23  C   UNL     1       0.407   7.476 -29.465  1.00  0.00     0.041 C 
HETATM   24  S   UNL     1      -3.552   6.884 -29.490  1.00  0.00    -0.075 SA
HETATM   25  C   UNL     1      -1.972   8.580 -27.946  1.00  0.00     0.047 C 
HETATM   26  C   UNL     1      -0.602   9.269 -27.975  1.00  0.00     0.005 C 
HETATM   27  C   UNL     1       0.534   8.253 -28.146  1.00  0.00     0.005 C 
BRANCH  20  28
HETATM   28  C   UNL     1      -0.598   5.237 -31.602  1.00  0.00     0.296 C 
HETATM   29  O   UNL     1       0.407   4.626 -31.254  1.00  0.00    -0.259 OA
BRANCH  28  30
HETATM   30  O   UNL     1      -1.074   5.254 -32.881  1.00  0.00    -0.318 OA
BRANCH  30  31
HETATM   31  C   UNL     1      -0.821   6.444 -33.641  1.00  0.00     0.174 C 
HETATM   32  C   UNL     1      -2.137   7.081 -34.042  1.00  0.00     0.034 C 
ENDBRANCH  30  31
ENDBRANCH  28  30
ENDBRANCH  20  28
ENDBRANCH  17  19
ENDBRANCH   1  17
TORSDOF 7
ENDMDL
MODEL 6
REMARK VINA RESULT:      -8.3      3.711      7.265
REMARK  7 active torsions:
REMARK  status: ('A' for Active; 'I' for Inactive)
REMARK    1  A    between atoms: C_2  and  O_3 
REMARK    2  A    between atoms: O_3  and  C_4 
REMARK    3  A    between atoms: C_4  and  C_5 
REMARK    4  A    between atoms: C_6  and  N_7 
REMARK    5  A    between atoms: N_7  and  C_8 
REMARK    6  A    between atoms: C_9  and  C_10 
REMARK    7  A    between atoms: C_13  and  C_14 
ROOT
HETATM    1  C   UNL     1      -7.303   3.374 -32.652  1.00  0.00     0.114 C 
HETATM    2  C   UNL     1      -6.239   2.911 -31.964  1.00  0.00     0.095 C 
HETATM    3  C   UNL     1      -5.829   3.611 -30.789  1.00  0.00     0.103 C 
HETATM    4  N   UNL     1      -5.520   4.224 -29.853  1.00  0.00    -0.191 NA
ENDROOT
BRANCH   2   5
HETATM    5  C   UNL     1      -5.473   1.776 -32.378  1.00  0.00     0.120 A 
HETATM    6  S   UNL     1      -3.779   1.648 -31.991  1.00  0.00    -0.078 SA
HETATM    7  C   UNL     1      -3.726   0.085 -32.676  1.00  0.00     0.084 A 
HETATM    8  C   UNL     1      -4.977  -0.282 -33.124  1.00  0.00     0.075 A 
HETATM    9  N   UNL     1      -5.956   0.688 -32.957  1.00  0.00    -0.239 NA
BRANCH   8  10
HETATM   10  C   UNL     1      -5.288  -1.571 -33.734  1.00  0.00    -0.007 A 
HETATM   11  C   UNL     1      -6.582  -1.887 -34.180  1.00  0.00     0.017 A 
HETATM   12  C   UNL     1      -6.848  -3.130 -34.763  1.00  0.00     0.043 A 
HETATM   13  C   UNL     1      -5.822  -4.055 -34.907  1.00  0.00     0.116 A 
HETATM   14  F   UNL     1      -6.080  -5.244 -35.465  1.00  0.00    -0.206 F 
HETATM   15  C   UNL     1      -4.532  -3.761 -34.482  1.00  0.00     0.043 A 
HETATM   16  C   UNL     1      -4.265  -2.519 -33.900  1.00  0.00     0.017 A 
ENDBRANCH   8  10
ENDBRANCH   2   5
BRANCH   1  17
HETATM   17  N   UNL     1      -7.952   2.877 -33.766  1.00  0.00    -0.358 N 
HETATM   18  H   UNL     1      -7.550   3.199 -34.653  1.00  0.00     0.166 HD
BRANCH  17  19
HETATM   19  C   UNL     1      -9.236   2.403 -33.846  1.00  0.00     0.091 A 
HETATM   20  C   UNL     1     -10.366   3.164 -34.154  1.00  0.00     0.080 A 
HETATM   21  C   UNL     1     -11.580   2.375 -34.068  1.00  0.00    -0.026 A 
HETATM   22  C   UNL     1     -11.308   1.060 -33.744  1.00  0.00    -0.008 A 
HETATM   23  C   UNL     1     -12.993   2.841 -34.295  1.00  0.00     0.041 C 
HETATM   24  S   UNL     1      -9.654   0.761 -33.552  1.00  0.00    -0.075 SA
HETATM   25  C   UNL     1     -12.329  -0.016 -33.532  1.00  0.00     0.047 C 
HETATM   26  C   UNL     1     -13.684   0.403 -34.115  1.00  0.00     0.005 C 
HETATM   27  C   UNL     1     -14.030   1.850 -33.745  1.00  0.00     0.005 C 
BRANCH  20  28
HETATM   28  C   UNL     1     -10.254   4.585 -34.508  1.00  0.00     0.296 C 
HETATM   29  O   UNL     1     -10.473   5.014 -35.637  1.00  0.00    -0.259 OA
BRANCH  28  30
HETATM   30  O   UNL     1      -9.916   5.373 -33.447  1.00  0.00    -0.318 OA
BRANCH  30  31
HETATM   31  C   UNL     1     -10.867   5.444 -32.376  1.00  0.00     0.174 C 
HETATM   32  C   UNL     1     -10.150   5.295 -31.048  1.00  0.00     0.034 C 
ENDBRANCH  30  31
ENDBRANCH  28  30
ENDBRANCH  20  28
ENDBRANCH  17  19
ENDBRANCH   1  17
TORSDOF 7
ENDMDL
MODEL 7
REMARK VINA RESULT:      -8.0      3.179      7.012
REMARK  7 active torsions:
REMARK  status: ('A' for Active; 'I' for Inactive)
REMARK    1  A    between atoms: C_2  and  O_3 
REMARK    2  A    between atoms: O_3  and  C_4 
REMARK    3  A    between atoms: C_4  and  C_5 
REMARK    4  A    between atoms: C_6  and  N_7 
REMARK    5  A    between atoms: N_7  and  C_8 
REMARK    6  A    between atoms: C_9  and  C_10 
REMARK    7  A    between atoms: C_13  and  C_14 
ROOT
HETATM    1  C   UNL     1      -7.376   4.119 -29.009  1.00  0.00     0.114 C 
HETATM    2  C   UNL     1      -6.989   5.409 -28.921  1.00  0.00     0.095 C 
HETATM    3  C   UNL     1      -7.849   6.336 -28.259  1.00  0.00     0.103 C 
HETATM    4  N   UNL     1      -8.590   7.057 -27.730  1.00  0.00    -0.191 NA
ENDROOT
BRANCH   2   5
HETATM    5  C   UNL     1      -5.776   5.903 -29.498  1.00  0.00     0.120 A 
HETATM    6  S   UNL     1      -4.721   6.959 -28.600  1.00  0.00    -0.078 SA
HETATM    7  C   UNL     1      -3.584   6.929 -29.873  1.00  0.00     0.084 A 
HETATM    8  C   UNL     1      -4.025   6.105 -30.887  1.00  0.00     0.075 A 
HETATM    9  N   UNL     1      -5.273   5.538 -30.666  1.00  0.00    -0.239 NA
BRANCH   8  10
HETATM   10  C   UNL     1      -3.277   5.832 -32.110  1.00  0.00    -0.007 A 
HETATM   11  C   UNL     1      -3.905   5.773 -33.365  1.00  0.00     0.017 A 
HETATM   12  C   UNL     1      -3.160   5.512 -34.520  1.00  0.00     0.043 A 
HETATM   13  C   UNL     1      -1.789   5.315 -34.422  1.00  0.00     0.116 A 
HETATM   14  F   UNL     1      -1.079   5.065 -35.529  1.00  0.00    -0.206 F 
HETATM   15  C   UNL     1      -1.144   5.378 -33.193  1.00  0.00     0.043 A 
HETATM   16  C   UNL     1      -1.887   5.640 -32.039  1.00  0.00     0.017 A 
ENDBRANCH   8  10
ENDBRANCH   2   5
BRANCH   1  17
HETATM   17  N   UNL     1      -6.735   3.011 -29.526  1.00  0.00    -0.358 N 
HETATM   18  H   UNL     1      -5.787   2.874 -29.155  1.00  0.00     0.166 HD
BRANCH  17  19
HETATM   19  C   UNL     1      -6.997   2.366 -30.708  1.00  0.00     0.091 A 
HETATM   20  C   UNL     1      -6.057   1.696 -31.494  1.00  0.00     0.080 A 
HETATM   21  C   UNL     1      -6.647   1.201 -32.723  1.00  0.00    -0.026 A 
HETATM   22  C   UNL     1      -7.998   1.480 -32.785  1.00  0.00    -0.008 A 
HETATM   23  C   UNL     1      -5.956   0.461 -33.837  1.00  0.00     0.041 C 
HETATM   24  S   UNL     1      -8.561   2.303 -31.419  1.00  0.00    -0.075 SA
HETATM   25  C   UNL     1      -8.906   1.149 -33.931  1.00  0.00     0.047 C 
HETATM   26  C   UNL     1      -8.259   0.105 -34.849  1.00  0.00     0.005 C 
HETATM   27  C   UNL     1      -6.788   0.439 -35.128  1.00  0.00     0.005 C 
BRANCH  20  28
HETATM   28  C   UNL     1      -4.660   1.559 -31.061  1.00  0.00     0.296 C 
HETATM   29  O   UNL     1      -3.881   2.504 -31.002  1.00  0.00    -0.259 OA
BRANCH  28  30
HETATM   30  O   UNL     1      -4.337   0.283 -30.703  1.00  0.00    -0.318 OA
BRANCH  30  31
HETATM   31  C   UNL     1      -3.109  -0.237 -31.233  1.00  0.00     0.174 C 
HETATM   32  C   UNL     1      -3.385  -1.523 -31.987  1.00  0.00     0.034 C 
ENDBRANCH  30  31
ENDBRANCH  28  30
ENDBRANCH  20  28
ENDBRANCH  17  19
ENDBRANCH   1  17
TORSDOF 7
ENDMDL
MODEL 8
REMARK VINA RESULT:      -7.9      3.602      7.159
REMARK  7 active torsions:
REMARK  status: ('A' for Active; 'I' for Inactive)
REMARK    1  A    between atoms: C_2  and  O_3 
REMARK    2  A    between atoms: O_3  and  C_4 
REMARK    3  A    between atoms: C_4  and  C_5 
REMARK    4  A    between atoms: C_6  and  N_7 
REMARK    5  A    between atoms: N_7  and  C_8 
REMARK    6  A    between atoms: C_9  and  C_10 
REMARK    7  A    between atoms: C_13  and  C_14 
ROOT
HETATM    1  C   UNL     1      -7.427   3.964 -33.068  1.00  0.00     0.114 C 
HETATM    2  C   UNL     1      -6.187   3.566 -33.422  1.00  0.00     0.095 C 
HETATM    3  C   UNL     1      -5.374   4.459 -34.182  1.00  0.00     0.103 C 
HETATM    4  N   UNL     1      -4.757   5.211 -34.817  1.00  0.00    -0.191 NA
ENDROOT
BRANCH   2   5
HETATM    5  C   UNL     1      -5.662   2.272 -33.108  1.00  0.00     0.120 A 
HETATM    6  S   UNL     1      -4.776   1.997 -31.634  1.00  0.00    -0.078 SA
HETATM    7  C   UNL     1      -4.673   0.331 -31.990  1.00  0.00     0.084 A 
HETATM    8  C   UNL     1      -5.334   0.053 -33.167  1.00  0.00     0.075 A 
HETATM    9  N   UNL     1      -5.883   1.163 -33.796  1.00  0.00    -0.239 NA
BRANCH   8  10
HETATM   10  C   UNL     1      -5.465  -1.282 -33.743  1.00  0.00    -0.007 A 
HETATM   11  C   UNL     1      -4.362  -2.142 -33.878  1.00  0.00     0.017 A 
HETATM   12  C   UNL     1      -4.518  -3.416 -34.432  1.00  0.00     0.043 A 
HETATM   13  C   UNL     1      -5.777  -3.835 -34.844  1.00  0.00     0.116 A 
HETATM   14  F   UNL     1      -5.924  -5.056 -35.374  1.00  0.00    -0.206 F 
HETATM   15  C   UNL     1      -6.884  -3.007 -34.712  1.00  0.00     0.043 A 
HETATM   16  C   UNL     1      -6.728  -1.734 -34.158  1.00  0.00     0.017 A 
ENDBRANCH   8  10
ENDBRANCH   2   5
BRANCH   1  17
HETATM   17  N   UNL     1      -8.393   3.351 -32.296  1.00  0.00    -0.358 N 
HETATM   18  H   UNL     1      -8.016   2.866 -31.474  1.00  0.00     0.166 HD
BRANCH  17  19
HETATM   19  C   UNL     1      -9.647   2.951 -32.683  1.00  0.00     0.091 A 
HETATM   20  C   UNL     1     -10.827   3.672 -32.484  1.00  0.00     0.080 A 
HETATM   21  C   UNL     1     -11.988   2.926 -32.933  1.00  0.00    -0.026 A 
HETATM   22  C   UNL     1     -11.629   1.710 -33.481  1.00  0.00    -0.008 A 
HETATM   23  C   UNL     1     -13.431   3.347 -32.860  1.00  0.00     0.041 C 
HETATM   24  S   UNL     1      -9.957   1.455 -33.474  1.00  0.00    -0.075 SA
HETATM   25  C   UNL     1     -12.577   0.674 -34.004  1.00  0.00     0.047 C 
HETATM   26  C   UNL     1     -13.966   1.281 -34.238  1.00  0.00     0.005 C 
HETATM   27  C   UNL     1     -14.395   2.168 -33.063  1.00  0.00     0.005 C 
BRANCH  20  28
HETATM   28  C   UNL     1     -10.810   5.012 -31.884  1.00  0.00     0.296 C 
HETATM   29  O   UNL     1     -11.139   6.024 -32.496  1.00  0.00    -0.259 OA
BRANCH  28  30
HETATM   30  O   UNL     1     -10.424   5.005 -30.576  1.00  0.00    -0.318 OA
BRANCH  30  31
HETATM   31  C   UNL     1      -9.862   6.223 -30.070  1.00  0.00     0.174 C 
HETATM   32  C   UNL     1      -8.357   6.079 -29.953  1.00  0.00     0.034 C 
ENDBRANCH  30  31
ENDBRANCH  28  30
ENDBRANCH  20  28
ENDBRANCH  17  19
ENDBRANCH   1  17
TORSDOF 7
ENDMDL
MODEL 9
REMARK VINA RESULT:      -7.9      3.903      7.553
REMARK  7 active torsions:
REMARK  status: ('A' for Active; 'I' for Inactive)
REMARK    1  A    between atoms: C_2  and  O_3 
REMARK    2  A    between atoms: O_3  and  C_4 
REMARK    3  A    between atoms: C_4  and  C_5 
REMARK    4  A    between atoms: C_6  and  N_7 
REMARK    5  A    between atoms: N_7  and  C_8 
REMARK    6  A    between atoms: C_9  and  C_10 
REMARK    7  A    between atoms: C_13  and  C_14 
ROOT
HETATM    1  C   UNL     1      -4.520   2.854 -33.107  1.00  0.00     0.114 C 
HETATM    2  C   UNL     1      -5.163   3.986 -33.460  1.00  0.00     0.095 C 
HETATM    3  C   UNL     1      -4.433   4.998 -34.154  1.00  0.00     0.103 C 
HETATM    4  N   UNL     1      -3.793   5.800 -34.698  1.00  0.00    -0.191 NA
ENDROOT
BRANCH   2   5
HETATM    5  C   UNL     1      -6.533   4.242 -33.136  1.00  0.00     0.120 A 
HETATM    6  S   UNL     1      -7.029   4.515 -31.489  1.00  0.00    -0.078 SA
HETATM    7  C   UNL     1      -8.622   4.842 -32.008  1.00  0.00     0.084 A 
HETATM    8  C   UNL     1      -8.700   4.771 -33.382  1.00  0.00     0.075 A 
HETATM    9  N   UNL     1      -7.512   4.421 -34.009  1.00  0.00    -0.239 NA
BRANCH   8  10
HETATM   10  C   UNL     1      -9.913   5.028 -34.152  1.00  0.00    -0.007 A 
HETATM   11  C   UNL     1     -10.634   3.990 -34.768  1.00  0.00     0.017 A 
HETATM   12  C   UNL     1     -11.794   4.268 -35.497  1.00  0.00     0.043 A 
HETATM   13  C   UNL     1     -12.239   5.579 -35.607  1.00  0.00     0.116 A 
HETATM   14  F   UNL     1     -13.350   5.842 -36.307  1.00  0.00    -0.206 F 
HETATM   15  C   UNL     1     -11.548   6.620 -35.000  1.00  0.00     0.043 A 
HETATM   16  C   UNL     1     -10.389   6.344 -34.270  1.00  0.00     0.017 A 
ENDBRANCH   8  10
ENDBRANCH   2   5
BRANCH   1  17
HETATM   17  N   UNL     1      -4.976   1.702 -32.497  1.00  0.00    -0.358 N 
HETATM   18  H   UNL     1      -4.888   1.716 -31.474  1.00  0.00     0.166 HD
BRANCH  17  19
HETATM   19  C   UNL     1      -5.110   0.455 -33.053  1.00  0.00     0.091 A 
HETATM   20  C   UNL     1      -6.270  -0.050 -33.644  1.00  0.00     0.080 A 
HETATM   21  C   UNL     1      -6.100  -1.432 -34.053  1.00  0.00    -0.026 A 
HETATM   22  C   UNL     1      -4.822  -1.885 -33.791  1.00  0.00    -0.008 A 
HETATM   23  C   UNL     1      -7.125  -2.330 -34.694  1.00  0.00     0.041 C 
HETATM   24  S   UNL     1      -3.839  -0.703 -33.085  1.00  0.00    -0.075 SA
HETATM   25  C   UNL     1      -4.318  -3.273 -34.047  1.00  0.00     0.047 C 
HETATM   26  C   UNL     1      -5.253  -4.019 -35.006  1.00  0.00     0.005 C 
HETATM   27  C   UNL     1      -6.725  -3.812 -34.629  1.00  0.00     0.005 C 
BRANCH  20  28
HETATM   28  C   UNL     1      -7.473   0.778 -33.793  1.00  0.00     0.296 C 
HETATM   29  O   UNL     1      -7.929   1.108 -34.883  1.00  0.00    -0.259 OA
BRANCH  28  30
HETATM   30  O   UNL     1      -8.042   1.110 -32.598  1.00  0.00    -0.318 OA
BRANCH  30  31
HETATM   31  C   UNL     1      -9.475   1.188 -32.574  1.00  0.00     0.174 C 
HETATM   32  C   UNL     1     -10.062  -0.206 -32.680  1.00  0.00     0.034 C 
ENDBRANCH  30  31
ENDBRANCH  28  30
ENDBRANCH  20  28
ENDBRANCH  17  19
ENDBRANCH   1  17
TORSDOF 7
ENDMDL
MODEL 10
REMARK VINA RESULT:      -7.9     16.977     18.564
REMARK  7 active torsions:
REMARK  status: ('A' for Active; 'I' for Inactive)
REMARK    1  A    between atoms: C_2  and  O_3 
REMARK    2  A    between atoms: O_3  and  C_4 
REMARK    3  A    between atoms: C_4  and  C_5 
REMARK    4  A    between atoms: C_6  and  N_7 
REMARK    5  A    between atoms: N_7  and  C_8 
REMARK    6  A    between atoms: C_9  and  C_10 
REMARK    7  A    between atoms: C_13  and  C_14 
ROOT
HETATM    1  C   UNL     1      -4.187 -15.252 -34.452  1.00  0.00     0.114 C 
HETATM    2  C   UNL     1      -5.287 -16.033 -34.478  1.00  0.00     0.095 C 
HETATM    3  C   UNL     1      -5.523 -16.916 -33.382  1.00  0.00     0.103 C 
HETATM    4  N   UNL     1      -5.662 -17.633 -32.479  1.00  0.00    -0.191 NA
ENDROOT
BRANCH   2   5
HETATM    5  C   UNL     1      -6.208 -16.052 -35.573  1.00  0.00     0.120 A 
HETATM    6  S   UNL     1      -7.081 -17.501 -35.985  1.00  0.00    -0.078 SA
HETATM    7  C   UNL     1      -7.952 -16.653 -37.184  1.00  0.00     0.084 A 
HETATM    8  C   UNL     1      -7.579 -15.326 -37.194  1.00  0.00     0.075 A 
HETATM    9  N   UNL     1      -6.584 -15.000 -36.283  1.00  0.00    -0.239 NA
BRANCH   8  10
HETATM   10  C   UNL     1      -8.154 -14.317 -38.078  1.00  0.00    -0.007 A 
HETATM   11  C   UNL     1      -7.721 -12.980 -38.057  1.00  0.00     0.017 A 
HETATM   12  C   UNL     1      -8.289 -12.036 -38.918  1.00  0.00     0.043 A 
HETATM   13  C   UNL     1      -9.285 -12.427 -39.804  1.00  0.00     0.116 A 
HETATM   14  F   UNL     1      -9.827 -11.521 -40.627  1.00  0.00    -0.206 F 
HETATM   15  C   UNL     1      -9.723 -13.744 -39.850  1.00  0.00     0.043 A 
HETATM   16  C   UNL     1      -9.154 -14.688 -38.991  1.00  0.00     0.017 A 
ENDBRANCH   8  10
ENDBRANCH   2   5
BRANCH   1  17
HETATM   17  N   UNL     1      -3.744 -14.277 -35.324  1.00  0.00    -0.358 N 
HETATM   18  H   UNL     1      -4.466 -13.593 -35.578  1.00  0.00     0.166 HD
BRANCH  17  19
HETATM   19  C   UNL     1      -2.676 -14.343 -36.183  1.00  0.00     0.091 A 
HETATM   20  C   UNL     1      -2.652 -13.848 -37.488  1.00  0.00     0.080 A 
HETATM   21  C   UNL     1      -1.400 -14.161 -38.152  1.00  0.00    -0.026 A 
HETATM   22  C   UNL     1      -0.534 -14.831 -37.312  1.00  0.00    -0.008 A 
HETATM   23  C   UNL     1      -1.006 -13.828 -39.567  1.00  0.00     0.041 C 
HETATM   24  S   UNL     1      -1.179 -15.082 -35.769  1.00  0.00    -0.075 SA
HETATM   25  C   UNL     1       0.826 -15.341 -37.685  1.00  0.00     0.047 C 
HETATM   26  C   UNL     1       1.314 -14.679 -38.979  1.00  0.00     0.005 C 
HETATM   27  C   UNL     1       0.209 -14.640 -40.041  1.00  0.00     0.005 C 
BRANCH  20  28
HETATM   28  C   UNL     1      -3.795 -13.116 -38.048  1.00  0.00     0.296 C 
HETATM   29  O   UNL     1      -4.114 -11.990 -37.680  1.00  0.00    -0.259 OA
BRANCH  28  30
HETATM   30  O   UNL     1      -4.437 -13.805 -39.035  1.00  0.00    -0.318 OA
BRANCH  30  31
HETATM   31  C   UNL     1      -4.645 -13.105 -40.270  1.00  0.00     0.174 C 
HETATM   32  C   UNL     1      -5.739 -13.791 -41.065  1.00  0.00     0.034 C 
ENDBRANCH  30  31
ENDBRANCH  28  30
ENDBRANCH  20  28
ENDBRANCH  17  19
ENDBRANCH   1  17
TORSDOF 7
ENDMDL
