MODEL 1
REMARK VINA RESULT:      -8.9      0.000      0.000
REMARK  3 active torsions:
REMARK  status: ('A' for Active; 'I' for Inactive)
REMARK    1  A    between atoms: C_8  and  C_9 
REMARK       I    between atoms: C_9  and  N_10 
REMARK    2  A    between atoms: N_10  and  C_11 
REMARK    3  A    between atoms: C_18  and  C_19 
REMARK       I    between atoms: C_19  and  N_20 
ROOT
HETATM    1  C   UNL     1      -9.154   0.865 -33.206  1.00  0.00     0.036 A 
HETATM    2  C   UNL     1     -10.478   0.586 -33.571  1.00  0.00     0.046 A 
HETATM    3  C   UNL     1     -11.481   1.555 -33.352  1.00  0.00     0.030 A 
HETATM    4  C   UNL     1     -11.119   2.782 -32.810  1.00  0.00     0.063 A 
HETATM    5  N   UNL     1     -12.282   3.499 -32.734  1.00  0.00    -0.277 N 
HETATM    6  H   UNL     1     -12.396   4.447 -32.394  1.00  0.00     0.189 HD
HETATM    7  N   UNL     1     -13.374   2.836 -33.145  1.00  0.00    -0.168 NA
HETATM    8  C   UNL     1     -12.895   1.629 -33.526  1.00  0.00     0.156 A 
HETATM    9  C   UNL     1      -9.809   3.100 -32.449  1.00  0.00     0.034 A 
HETATM   10  C   UNL     1      -8.839   2.110 -32.644  1.00  0.00     0.032 A 
ENDROOT
BRANCH   1  11
HETATM   11  N   UNL     1      -8.099  -0.068 -33.329  1.00  0.00    -0.323 N 
HETATM   12  C   UNL     1      -7.303  -0.277 -34.443  1.00  0.00     0.258 C 
HETATM   13  O   UNL     1      -7.283   0.401 -35.460  1.00  0.00    -0.267 OA
HETATM   14  H   UNL     1      -7.942  -0.650 -32.518  1.00  0.00     0.169 HD
BRANCH  12  15
HETATM   15  C   UNL     1      -6.390  -1.449 -34.351  1.00  0.00     0.056 A 
HETATM   16  C   UNL     1      -5.119  -1.332 -33.771  1.00  0.00     0.048 A 
HETATM   17  C   UNL     1      -4.611  -0.045 -33.186  1.00  0.00     0.071 C 
HETATM   18  N   UNL     1      -4.254  -2.382 -33.700  1.00  0.00    -0.241 NA
HETATM   19  C   UNL     1      -4.666  -3.565 -34.197  1.00  0.00     0.126 A 
HETATM   20 CL   UNL     1      -3.519  -4.832 -34.076  1.00  0.00    -0.063 Cl
HETATM   21  C   UNL     1      -5.908  -3.781 -34.766  1.00  0.00     0.045 A 
HETATM   22  C   UNL     1      -6.786  -2.703 -34.840  1.00  0.00     0.022 A 
ENDBRANCH  12  15
ENDBRANCH   1  11
BRANCH   8  23
HETATM   23  C   UNL     1     -13.794   0.575 -34.018  1.00  0.00     0.270 C 
HETATM   24  N   UNL     1     -13.602  -0.644 -33.425  1.00  0.00    -0.365 N 
HETATM   25  H   UNL     1     -12.866  -0.737 -32.736  1.00  0.00     0.159 HD
HETATM   26  H   UNL     1     -14.146  -1.436 -33.729  1.00  0.00     0.159 HD
HETATM   27  O   UNL     1     -14.641   0.729 -34.891  1.00  0.00    -0.266 OA
ENDBRANCH   8  23
TORSDOF 3
ENDMDL
MODEL 2
REMARK VINA RESULT:      -8.2      1.964      3.000
REMARK  3 active torsions:
REMARK  status: ('A' for Active; 'I' for Inactive)
REMARK    1  A    between atoms: C_8  and  C_9 
REMARK       I    between atoms: C_9  and  N_10 
REMARK    2  A    between atoms: N_10  and  C_11 
REMARK    3  A    between atoms: C_18  and  C_19 
REMARK       I    between atoms: C_19  and  N_20 
ROOT
HETATM    1  C   UNL     1      -9.254   0.864 -33.651  1.00  0.00     0.036 A 
HETATM    2  C   UNL     1      -9.129   2.222 -33.975  1.00  0.00     0.046 A 
HETATM    3  C   UNL     1     -10.281   3.037 -34.020  1.00  0.00     0.030 A 
HETATM    4  C   UNL     1     -11.512   2.474 -33.704  1.00  0.00     0.063 A 
HETATM    5  N   UNL     1     -12.415   3.495 -33.821  1.00  0.00    -0.277 N 
HETATM    6  H   UNL     1     -13.414   3.451 -33.655  1.00  0.00     0.189 HD
HETATM    7  N   UNL     1     -11.888   4.664 -34.218  1.00  0.00    -0.168 NA
HETATM    8  C   UNL     1     -10.569   4.395 -34.351  1.00  0.00     0.156 A 
HETATM    9  C   UNL     1     -11.672   1.130 -33.363  1.00  0.00     0.034 A 
HETATM   10  C   UNL     1     -10.519   0.336 -33.359  1.00  0.00     0.032 A 
ENDROOT
BRANCH   1  11
HETATM   11  N   UNL     1      -8.165  -0.038 -33.645  1.00  0.00    -0.323 N 
HETATM   12  C   UNL     1      -7.258  -0.249 -34.669  1.00  0.00     0.258 C 
HETATM   13  O   UNL     1      -7.157   0.405 -35.697  1.00  0.00    -0.267 OA
HETATM   14  H   UNL     1      -8.072  -0.595 -32.807  1.00  0.00     0.169 HD
BRANCH  12  15
HETATM   15  C   UNL     1      -6.325  -1.389 -34.457  1.00  0.00     0.056 A 
HETATM   16  C   UNL     1      -5.117  -1.216 -33.766  1.00  0.00     0.048 A 
HETATM   17  C   UNL     1      -4.703   0.102 -33.176  1.00  0.00     0.071 C 
HETATM   18  N   UNL     1      -4.233  -2.237 -33.582  1.00  0.00    -0.241 NA
HETATM   19  C   UNL     1      -4.564  -3.445 -34.078  1.00  0.00     0.126 A 
HETATM   20 CL   UNL     1      -3.398  -4.672 -33.813  1.00  0.00    -0.063 Cl
HETATM   21  C   UNL     1      -5.740  -3.715 -34.753  1.00  0.00     0.045 A 
HETATM   22  C   UNL     1      -6.638  -2.667 -34.941  1.00  0.00     0.022 A 
ENDBRANCH  12  15
ENDBRANCH   1  11
BRANCH   8  23
HETATM   23  C   UNL     1      -9.625   5.424 -34.811  1.00  0.00     0.270 C 
HETATM   24  N   UNL     1      -8.623   5.702 -33.921  1.00  0.00    -0.365 N 
HETATM   25  H   UNL     1      -8.617   5.217 -33.031  1.00  0.00     0.159 HD
HETATM   26  H   UNL     1      -7.954   6.424 -34.135  1.00  0.00     0.159 HD
HETATM   27  O   UNL     1      -9.704   6.016 -35.882  1.00  0.00    -0.266 OA
ENDBRANCH   8  23
TORSDOF 3
ENDMDL
MODEL 3
REMARK VINA RESULT:      -8.1      1.394      2.039
REMARK  3 active torsions:
REMARK  status: ('A' for Active; 'I' for Inactive)
REMARK    1  A    between atoms: C_8  and  C_9 
REMARK       I    between atoms: C_9  and  N_10 
REMARK    2  A    between atoms: N_10  and  C_11 
REMARK    3  A    between atoms: C_18  and  C_19 
REMARK       I    between atoms: C_19  and  N_20 
ROOT
HETATM    1  C   UNL     1      -8.987   1.495 -33.723  1.00  0.00     0.036 A 
HETATM    2  C   UNL     1     -10.233   0.855 -33.774  1.00  0.00     0.046 A 
HETATM    3  C   UNL     1     -11.394   1.610 -34.048  1.00  0.00     0.030 A 
HETATM    4  C   UNL     1     -11.264   2.971 -34.298  1.00  0.00     0.063 A 
HETATM    5  N   UNL     1     -12.535   3.415 -34.541  1.00  0.00    -0.277 N 
HETATM    6  H   UNL     1     -12.820   4.361 -34.770  1.00  0.00     0.189 HD
HETATM    7  N   UNL     1     -13.485   2.473 -34.437  1.00  0.00    -0.168 NA
HETATM    8  C   UNL     1     -12.795   1.351 -34.127  1.00  0.00     0.156 A 
HETATM    9  C   UNL     1     -10.039   3.638 -34.270  1.00  0.00     0.034 A 
HETATM   10  C   UNL     1      -8.907   2.874 -33.962  1.00  0.00     0.032 A 
ENDROOT
BRANCH   1  11
HETATM   11  N   UNL     1      -7.784   0.831 -33.392  1.00  0.00    -0.323 N 
HETATM   12  C   UNL     1      -6.825   0.364 -34.275  1.00  0.00     0.258 C 
HETATM   13  O   UNL     1      -6.785   0.568 -35.480  1.00  0.00    -0.267 OA
HETATM   14  H   UNL     1      -7.639   0.667 -32.405  1.00  0.00     0.169 HD
BRANCH  12  15
HETATM   15  C   UNL     1      -5.749  -0.457 -33.657  1.00  0.00     0.056 A 
HETATM   16  C   UNL     1      -5.695  -1.844 -33.851  1.00  0.00     0.048 A 
HETATM   17  C   UNL     1      -6.686  -2.581 -34.707  1.00  0.00     0.071 C 
HETATM   18  N   UNL     1      -4.737  -2.622 -33.275  1.00  0.00    -0.241 NA
HETATM   19  C   UNL     1      -3.813  -2.009 -32.509  1.00  0.00     0.126 A 
HETATM   20 CL   UNL     1      -2.648  -3.056 -31.814  1.00  0.00    -0.063 Cl
HETATM   21  C   UNL     1      -3.773  -0.646 -32.278  1.00  0.00     0.045 A 
HETATM   22  C   UNL     1      -4.757   0.143 -32.867  1.00  0.00     0.022 A 
ENDBRANCH  12  15
ENDBRANCH   1  11
BRANCH   8  23
HETATM   23  C   UNL     1     -13.485   0.075 -33.890  1.00  0.00     0.270 C 
HETATM   24  N   UNL     1     -14.784   0.053 -34.321  1.00  0.00    -0.365 N 
HETATM   25  H   UNL     1     -15.171   0.893 -34.733  1.00  0.00     0.159 HD
HETATM   26  H   UNL     1     -15.346  -0.768 -34.163  1.00  0.00     0.159 HD
HETATM   27  O   UNL     1     -12.982  -0.901 -33.344  1.00  0.00    -0.266 OA
ENDBRANCH   8  23
TORSDOF 3
ENDMDL
MODEL 4
REMARK VINA RESULT:      -8.0      4.878      7.572
REMARK  3 active torsions:
REMARK  status: ('A' for Active; 'I' for Inactive)
REMARK    1  A    between atoms: C_8  and  C_9 
REMARK       I    between atoms: C_9  and  N_10 
REMARK    2  A    between atoms: N_10  and  C_11 
REMARK    3  A    between atoms: C_18  and  C_19 
REMARK       I    between atoms: C_19  and  N_20 
ROOT
HETATM    1  C   UNL     1      -4.820   2.451 -32.018  1.00  0.00     0.036 A 
HETATM    2  C   UNL     1      -3.563   3.063 -32.124  1.00  0.00     0.046 A 
HETATM    3  C   UNL     1      -3.334   4.299 -31.483  1.00  0.00     0.030 A 
HETATM    4  C   UNL     1      -4.355   4.862 -30.728  1.00  0.00     0.063 A 
HETATM    5  N   UNL     1      -3.837   6.025 -30.229  1.00  0.00    -0.277 N 
HETATM    6  H   UNL     1      -4.301   6.693 -29.623  1.00  0.00     0.189 HD
HETATM    7  N   UNL     1      -2.579   6.288 -30.619  1.00  0.00    -0.168 NA
HETATM    8  C   UNL     1      -2.256   5.231 -31.400  1.00  0.00     0.156 A 
HETATM    9  C   UNL     1      -5.614   4.274 -30.588  1.00  0.00     0.034 A 
HETATM   10  C   UNL     1      -5.827   3.066 -31.263  1.00  0.00     0.032 A 
ENDROOT
BRANCH   1  11
HETATM   11  N   UNL     1      -5.158   1.248 -32.679  1.00  0.00    -0.323 N 
HETATM   12  C   UNL     1      -5.424   0.024 -32.088  1.00  0.00     0.258 C 
HETATM   13  O   UNL     1      -5.550  -0.194 -30.892  1.00  0.00    -0.267 OA
HETATM   14  H   UNL     1      -5.177   1.301 -33.688  1.00  0.00     0.169 HD
BRANCH  12  15
HETATM   15  C   UNL     1      -5.573  -1.112 -33.037  1.00  0.00     0.056 A 
HETATM   16  C   UNL     1      -6.803  -1.386 -33.652  1.00  0.00     0.048 A 
HETATM   17  C   UNL     1      -8.027  -0.545 -33.422  1.00  0.00     0.071 C 
HETATM   18  N   UNL     1      -6.973  -2.436 -34.503  1.00  0.00    -0.241 NA
HETATM   19  C   UNL     1      -5.901  -3.213 -34.756  1.00  0.00     0.126 A 
HETATM   20 CL   UNL     1      -6.198  -4.516 -35.829  1.00  0.00    -0.063 Cl
HETATM   21  C   UNL     1      -4.646  -3.009 -34.215  1.00  0.00     0.045 A 
HETATM   22  C   UNL     1      -4.479  -1.936 -33.342  1.00  0.00     0.022 A 
ENDBRANCH  12  15
ENDBRANCH   1  11
BRANCH   8  23
HETATM   23  C   UNL     1      -0.947   5.149 -32.065  1.00  0.00     0.270 C 
HETATM   24  N   UNL     1      -0.982   5.431 -33.403  1.00  0.00    -0.365 N 
HETATM   25  H   UNL     1      -1.875   5.644 -33.831  1.00  0.00     0.159 HD
HETATM   26  H   UNL     1      -0.137   5.360 -33.948  1.00  0.00     0.159 HD
HETATM   27  O   UNL     1       0.101   4.841 -31.508  1.00  0.00    -0.266 OA
ENDBRANCH   8  23
TORSDOF 3
ENDMDL
MODEL 5
REMARK VINA RESULT:      -7.9      3.939      5.011
REMARK  3 active torsions:
REMARK  status: ('A' for Active; 'I' for Inactive)
REMARK    1  A    between atoms: C_8  and  C_9 
REMARK       I    between atoms: C_9  and  N_10 
REMARK    2  A    between atoms: N_10  and  C_11 
REMARK    3  A    between atoms: C_18  and  C_19 
REMARK       I    between atoms: C_19  and  N_20 
ROOT
HETATM    1  C   UNL     1      -8.283   1.808 -33.596  1.00  0.00     0.036 A 
HETATM    2  C   UNL     1      -9.425   2.318 -34.228  1.00  0.00     0.046 A 
HETATM    3  C   UNL     1     -10.661   1.653 -34.077  1.00  0.00     0.030 A 
HETATM    4  C   UNL     1     -10.720   0.523 -33.271  1.00  0.00     0.063 A 
HETATM    5  N   UNL     1     -12.026   0.120 -33.309  1.00  0.00    -0.277 N 
HETATM    6  H   UNL     1     -12.439  -0.671 -32.827  1.00  0.00     0.189 HD
HETATM    7  N   UNL     1     -12.817   0.866 -34.097  1.00  0.00    -0.168 NA
HETATM    8  C   UNL     1     -11.986   1.816 -34.583  1.00  0.00     0.156 A 
HETATM    9  C   UNL     1      -9.607  -0.004 -32.615  1.00  0.00     0.034 A 
HETATM   10  C   UNL     1      -8.386   0.653 -32.808  1.00  0.00     0.032 A 
ENDROOT
BRANCH   1  11
HETATM   11  N   UNL     1      -6.994   2.370 -33.744  1.00  0.00    -0.323 N 
HETATM   12  C   UNL     1      -6.389   3.288 -32.902  1.00  0.00     0.258 C 
HETATM   13  O   UNL     1      -6.806   3.663 -31.816  1.00  0.00    -0.267 OA
HETATM   14  H   UNL     1      -6.489   2.079 -34.569  1.00  0.00     0.169 HD
BRANCH  12  15
HETATM   15  C   UNL     1      -5.102   3.844 -33.401  1.00  0.00     0.056 A 
HETATM   16  C   UNL     1      -3.883   3.500 -32.800  1.00  0.00     0.048 A 
HETATM   17  C   UNL     1      -3.792   2.538 -31.649  1.00  0.00     0.071 C 
HETATM   18  N   UNL     1      -2.695   4.016 -33.220  1.00  0.00    -0.241 NA
HETATM   19  C   UNL     1      -2.719   4.872 -34.260  1.00  0.00     0.126 A 
HETATM   20 CL   UNL     1      -1.186   5.483 -34.722  1.00  0.00    -0.063 Cl
HETATM   21  C   UNL     1      -3.868   5.253 -34.928  1.00  0.00     0.045 A 
HETATM   22  C   UNL     1      -5.080   4.725 -34.492  1.00  0.00     0.022 A 
ENDBRANCH  12  15
ENDBRANCH   1  11
BRANCH   8  23
HETATM   23  C   UNL     1     -12.464   2.832 -35.532  1.00  0.00     0.270 C 
HETATM   24  N   UNL     1     -13.057   3.914 -34.940  1.00  0.00    -0.365 N 
HETATM   25  H   UNL     1     -13.146   3.926 -33.931  1.00  0.00     0.159 HD
HETATM   26  H   UNL     1     -13.451   4.641 -35.515  1.00  0.00     0.159 HD
HETATM   27  O   UNL     1     -12.372   2.748 -36.752  1.00  0.00    -0.266 OA
ENDBRANCH   8  23
TORSDOF 3
ENDMDL
MODEL 6
REMARK VINA RESULT:      -7.9      5.887      8.647
REMARK  3 active torsions:
REMARK  status: ('A' for Active; 'I' for Inactive)
REMARK    1  A    between atoms: C_8  and  C_9 
REMARK       I    between atoms: C_9  and  N_10 
REMARK    2  A    between atoms: N_10  and  C_11 
REMARK    3  A    between atoms: C_18  and  C_19 
REMARK       I    between atoms: C_19  and  N_20 
ROOT
HETATM    1  C   UNL     1      -3.710   3.925 -32.370  1.00  0.00     0.036 A 
HETATM    2  C   UNL     1      -2.509   4.041 -31.656  1.00  0.00     0.046 A 
HETATM    3  C   UNL     1      -2.065   5.315 -31.242  1.00  0.00     0.030 A 
HETATM    4  C   UNL     1      -2.853   6.424 -31.525  1.00  0.00     0.063 A 
HETATM    5  N   UNL     1      -2.180   7.490 -30.996  1.00  0.00    -0.277 N 
HETATM    6  H   UNL     1      -2.466   8.463 -31.006  1.00  0.00     0.189 HD
HETATM    7  N   UNL     1      -1.006   7.180 -30.424  1.00  0.00    -0.168 NA
HETATM    8  C   UNL     1      -0.918   5.838 -30.573  1.00  0.00     0.156 A 
HETATM    9  C   UNL     1      -4.061   6.344 -32.221  1.00  0.00     0.034 A 
HETATM   10  C   UNL     1      -4.462   5.073 -32.650  1.00  0.00     0.032 A 
ENDROOT
BRANCH   1  11
HETATM   11  N   UNL     1      -4.197   2.699 -32.879  1.00  0.00    -0.323 N 
HETATM   12  C   UNL     1      -5.047   1.815 -32.236  1.00  0.00     0.258 C 
HETATM   13  O   UNL     1      -5.633   2.006 -31.180  1.00  0.00    -0.267 OA
HETATM   14  H   UNL     1      -3.858   2.448 -33.797  1.00  0.00     0.169 HD
BRANCH  12  15
HETATM   15  C   UNL     1      -5.250   0.517 -32.936  1.00  0.00     0.056 A 
HETATM   16  C   UNL     1      -4.447  -0.594 -32.647  1.00  0.00     0.048 A 
HETATM   17  C   UNL     1      -3.364  -0.562 -31.605  1.00  0.00     0.071 C 
HETATM   18  N   UNL     1      -4.593  -1.785 -33.293  1.00  0.00    -0.241 NA
HETATM   19  C   UNL     1      -5.561  -1.873 -34.226  1.00  0.00     0.126 A 
HETATM   20 CL   UNL     1      -5.677  -3.398 -34.997  1.00  0.00    -0.063 Cl
HETATM   21  C   UNL     1      -6.415  -0.839 -34.563  1.00  0.00     0.045 A 
HETATM   22  C   UNL     1      -6.257   0.377 -33.902  1.00  0.00     0.022 A 
ENDBRANCH  12  15
ENDBRANCH   1  11
BRANCH   8  23
HETATM   23  C   UNL     1       0.260   5.095 -30.101  1.00  0.00     0.270 C 
HETATM   24  N   UNL     1       0.427   5.118 -28.743  1.00  0.00    -0.365 N 
HETATM   25  H   UNL     1      -0.231   5.647 -28.182  1.00  0.00     0.159 HD
HETATM   26  H   UNL     1       1.231   4.670 -28.334  1.00  0.00     0.159 HD
HETATM   27  O   UNL     1       1.054   4.509 -30.828  1.00  0.00    -0.266 OA
ENDBRANCH   8  23
TORSDOF 3
ENDMDL
MODEL 7
REMARK VINA RESULT:      -7.8      3.611      7.822
REMARK  3 active torsions:
REMARK  status: ('A' for Active; 'I' for Inactive)
REMARK    1  A    between atoms: C_8  and  C_9 
REMARK       I    between atoms: C_9  and  N_10 
REMARK    2  A    between atoms: N_10  and  C_11 
REMARK    3  A    between atoms: C_18  and  C_19 
REMARK       I    between atoms: C_19  and  N_20 
ROOT
HETATM    1  C   UNL     1      -8.731   0.422 -32.502  1.00  0.00     0.036 A 
HETATM    2  C   UNL     1      -8.019  -0.601 -33.144  1.00  0.00     0.046 A 
HETATM    3  C   UNL     1      -6.616  -0.667 -33.004  1.00  0.00     0.030 A 
HETATM    4  C   UNL     1      -5.979   0.267 -32.197  1.00  0.00     0.063 A 
HETATM    5  N   UNL     1      -4.651  -0.059 -32.247  1.00  0.00    -0.277 N 
HETATM    6  H   UNL     1      -3.887   0.405 -31.767  1.00  0.00     0.189 HD
HETATM    7  N   UNL     1      -4.362  -1.101 -33.042  1.00  0.00    -0.168 NA
HETATM    8  C   UNL     1      -5.568  -1.486 -33.521  1.00  0.00     0.156 A 
HETATM    9  C   UNL     1      -6.657   1.289 -31.531  1.00  0.00     0.034 A 
HETATM   10  C   UNL     1      -8.044   1.355 -31.714  1.00  0.00     0.032 A 
ENDROOT
BRANCH   1  11
HETATM   11  N   UNL     1     -10.127   0.603 -32.638  1.00  0.00    -0.323 N 
HETATM   12  C   UNL     1     -10.779   1.277 -33.657  1.00  0.00     0.258 C 
HETATM   13  O   UNL     1     -10.274   1.710 -34.683  1.00  0.00    -0.267 OA
HETATM   14  H   UNL     1     -10.687   0.215 -31.892  1.00  0.00     0.169 HD
BRANCH  12  15
HETATM   15  C   UNL     1     -12.240   1.467 -33.449  1.00  0.00     0.056 A 
HETATM   16  C   UNL     1     -12.745   2.656 -32.903  1.00  0.00     0.048 A 
HETATM   17  C   UNL     1     -11.863   3.812 -32.525  1.00  0.00     0.071 C 
HETATM   18  N   UNL     1     -14.075   2.844 -32.677  1.00  0.00    -0.241 NA
HETATM   19  C   UNL     1     -14.913   1.843 -33.014  1.00  0.00     0.126 A 
HETATM   20 CL   UNL     1     -16.567   2.154 -32.692  1.00  0.00    -0.063 Cl
HETATM   21  C   UNL     1     -14.510   0.646 -33.576  1.00  0.00     0.045 A 
HETATM   22  C   UNL     1     -13.149   0.458 -33.801  1.00  0.00     0.022 A 
ENDBRANCH  12  15
ENDBRANCH   1  11
BRANCH   8  23
HETATM   23  C   UNL     1      -5.688  -2.598 -34.475  1.00  0.00     0.270 C 
HETATM   24  N   UNL     1      -4.488  -3.097 -34.905  1.00  0.00    -0.365 N 
HETATM   25  H   UNL     1      -3.635  -2.665 -34.570  1.00  0.00     0.159 HD
HETATM   26  H   UNL     1      -4.474  -3.834 -35.591  1.00  0.00     0.159 HD
HETATM   27  O   UNL     1      -6.749  -3.056 -34.885  1.00  0.00    -0.266 OA
ENDBRANCH   8  23
TORSDOF 3
ENDMDL
MODEL 8
REMARK VINA RESULT:      -7.7      4.558      6.411
REMARK  3 active torsions:
REMARK  status: ('A' for Active; 'I' for Inactive)
REMARK    1  A    between atoms: C_8  and  C_9 
REMARK       I    between atoms: C_9  and  N_10 
REMARK    2  A    between atoms: N_10  and  C_11 
REMARK    3  A    between atoms: C_18  and  C_19 
REMARK       I    between atoms: C_19  and  N_20 
ROOT
HETATM    1  C   UNL     1      -4.549   2.502 -32.261  1.00  0.00     0.036 A 
HETATM    2  C   UNL     1      -5.391   3.306 -31.478  1.00  0.00     0.046 A 
HETATM    3  C   UNL     1      -4.877   4.476 -30.879  1.00  0.00     0.030 A 
HETATM    4  C   UNL     1      -3.552   4.823 -31.113  1.00  0.00     0.063 A 
HETATM    5  N   UNL     1      -3.357   5.989 -30.425  1.00  0.00    -0.277 N 
HETATM    6  H   UNL     1      -2.506   6.537 -30.376  1.00  0.00     0.189 HD
HETATM    7  N   UNL     1      -4.427   6.415 -29.735  1.00  0.00    -0.168 NA
HETATM    8  C   UNL     1      -5.375   5.486 -30.002  1.00  0.00     0.156 A 
HETATM    9  C   UNL     1      -2.690   4.055 -31.898  1.00  0.00     0.034 A 
HETATM   10  C   UNL     1      -3.214   2.881 -32.453  1.00  0.00     0.032 A 
ENDROOT
BRANCH   1  11
HETATM   11  N   UNL     1      -4.960   1.282 -32.844  1.00  0.00    -0.323 N 
HETATM   12  C   UNL     1      -5.189   0.085 -32.187  1.00  0.00     0.258 C 
HETATM   13  O   UNL     1      -5.212  -0.088 -30.977  1.00  0.00    -0.267 OA
HETATM   14  H   UNL     1      -5.067   1.299 -33.849  1.00  0.00     0.169 HD
BRANCH  12  15
HETATM   15  C   UNL     1      -5.436  -1.082 -33.077  1.00  0.00     0.056 A 
HETATM   16  C   UNL     1      -6.713  -1.341 -33.593  1.00  0.00     0.048 A 
HETATM   17  C   UNL     1      -7.895  -0.456 -33.313  1.00  0.00     0.071 C 
HETATM   18  N   UNL     1      -6.972  -2.418 -34.387  1.00  0.00    -0.241 NA
HETATM   19  C   UNL     1      -5.943  -3.236 -34.682  1.00  0.00     0.126 A 
HETATM   20 CL   UNL     1      -6.350  -4.570 -35.678  1.00  0.00    -0.063 Cl
HETATM   21  C   UNL     1      -4.647  -3.050 -34.237  1.00  0.00     0.045 A 
HETATM   22  C   UNL     1      -4.390  -1.950 -33.423  1.00  0.00     0.022 A 
ENDBRANCH  12  15
ENDBRANCH   1  11
BRANCH   8  23
HETATM   23  C   UNL     1      -6.712   5.569 -29.398  1.00  0.00     0.270 C 
HETATM   24  N   UNL     1      -6.855   4.835 -28.252  1.00  0.00    -0.365 N 
HETATM   25  H   UNL     1      -6.067   4.286 -27.927  1.00  0.00     0.159 HD
HETATM   26  H   UNL     1      -7.750   4.800 -27.792  1.00  0.00     0.159 HD
HETATM   27  O   UNL     1      -7.649   6.214 -29.859  1.00  0.00    -0.266 OA
ENDBRANCH   8  23
TORSDOF 3
ENDMDL
MODEL 9
REMARK VINA RESULT:      -7.6      4.278      8.359
REMARK  3 active torsions:
REMARK  status: ('A' for Active; 'I' for Inactive)
REMARK    1  A    between atoms: C_8  and  C_9 
REMARK       I    between atoms: C_9  and  N_10 
REMARK    2  A    between atoms: N_10  and  C_11 
REMARK    3  A    between atoms: C_18  and  C_19 
REMARK       I    between atoms: C_19  and  N_20 
ROOT
HETATM    1  C   UNL     1      -9.549   1.237 -33.115  1.00  0.00     0.036 A 
HETATM    2  C   UNL     1      -8.606   1.584 -32.137  1.00  0.00     0.046 A 
HETATM    3  C   UNL     1      -7.240   1.301 -32.355  1.00  0.00     0.030 A 
HETATM    4  C   UNL     1      -6.860   0.716 -33.556  1.00  0.00     0.063 A 
HETATM    5  N   UNL     1      -5.501   0.583 -33.479  1.00  0.00    -0.277 N 
HETATM    6  H   UNL     1      -4.881   0.200 -34.184  1.00  0.00     0.189 HD
HETATM    7  N   UNL     1      -4.965   0.997 -32.320  1.00  0.00    -0.168 NA
HETATM    8  C   UNL     1      -6.029   1.440 -31.612  1.00  0.00     0.156 A 
HETATM    9  C   UNL     1      -7.769   0.370 -34.558  1.00  0.00     0.034 A 
HETATM   10  C   UNL     1      -9.121   0.629 -34.304  1.00  0.00     0.032 A 
ENDROOT
BRANCH   1  11
HETATM   11  N   UNL     1     -10.941   1.423 -32.955  1.00  0.00    -0.323 N 
HETATM   12  C   UNL     1     -11.725   2.381 -33.575  1.00  0.00     0.258 C 
HETATM   13  O   UNL     1     -11.378   3.138 -34.470  1.00  0.00    -0.267 OA
HETATM   14  H   UNL     1     -11.386   0.800 -32.296  1.00  0.00     0.169 HD
BRANCH  12  15
HETATM   15  C   UNL     1     -13.127   2.461 -33.080  1.00  0.00     0.056 A 
HETATM   16  C   UNL     1     -14.091   1.528 -33.485  1.00  0.00     0.048 A 
HETATM   17  C   UNL     1     -13.775   0.384 -34.406  1.00  0.00     0.071 C 
HETATM   18  N   UNL     1     -15.387   1.595 -33.068  1.00  0.00    -0.241 NA
HETATM   19  C   UNL     1     -15.721   2.593 -32.227  1.00  0.00     0.126 A 
HETATM   20 CL   UNL     1     -17.368   2.613 -31.757  1.00  0.00    -0.063 Cl
HETATM   21  C   UNL     1     -14.835   3.545 -31.758  1.00  0.00     0.045 A 
HETATM   22  C   UNL     1     -13.513   3.474 -32.190  1.00  0.00     0.022 A 
ENDBRANCH  12  15
ENDBRANCH   1  11
BRANCH   8  23
HETATM   23  C   UNL     1      -5.872   1.957 -30.244  1.00  0.00     0.270 C 
HETATM   24  N   UNL     1      -6.280   1.088 -29.269  1.00  0.00    -0.365 N 
HETATM   25  H   UNL     1      -6.671   0.196 -29.547  1.00  0.00     0.159 HD
HETATM   26  H   UNL     1      -6.247   1.374 -28.303  1.00  0.00     0.159 HD
HETATM   27  O   UNL     1      -5.434   3.067 -29.962  1.00  0.00    -0.266 OA
ENDBRANCH   8  23
TORSDOF 3
ENDMDL
MODEL 10
REMARK VINA RESULT:      -7.6      6.468      9.265
REMARK  3 active torsions:
REMARK  status: ('A' for Active; 'I' for Inactive)
REMARK    1  A    between atoms: C_8  and  C_9 
REMARK       I    between atoms: C_9  and  N_10 
REMARK    2  A    between atoms: N_10  and  C_11 
REMARK    3  A    between atoms: C_18  and  C_19 
REMARK       I    between atoms: C_19  and  N_20 
ROOT
HETATM    1  C   UNL     1      -3.885   2.954 -31.909  1.00  0.00     0.036 A 
HETATM    2  C   UNL     1      -3.526   1.602 -32.000  1.00  0.00     0.046 A 
HETATM    3  C   UNL     1      -4.437   0.673 -32.547  1.00  0.00     0.030 A 
HETATM    4  C   UNL     1      -5.661   1.134 -33.017  1.00  0.00     0.063 A 
HETATM    5  N   UNL     1      -6.306   0.024 -33.491  1.00  0.00    -0.277 N 
HETATM    6  H   UNL     1      -7.224  -0.015 -33.919  1.00  0.00     0.189 HD
HETATM    7  N   UNL     1      -5.625  -1.123 -33.341  1.00  0.00    -0.168 NA
HETATM    8  C   UNL     1      -4.469  -0.739 -32.753  1.00  0.00     0.156 A 
HETATM    9  C   UNL     1      -6.047   2.474 -32.956  1.00  0.00     0.034 A 
HETATM   10  C   UNL     1      -5.139   3.369 -32.378  1.00  0.00     0.032 A 
ENDROOT
BRANCH   1  11
HETATM   11  N   UNL     1      -3.063   3.940 -31.318  1.00  0.00    -0.323 N 
HETATM   12  C   UNL     1      -2.009   4.609 -31.917  1.00  0.00     0.258 C 
HETATM   13  O   UNL     1      -1.698   4.564 -33.099  1.00  0.00    -0.267 OA
HETATM   14  H   UNL     1      -3.265   4.145 -30.349  1.00  0.00     0.169 HD
BRANCH  12  15
HETATM   15  C   UNL     1      -1.205   5.462 -31.002  1.00  0.00     0.056 A 
HETATM   16  C   UNL     1      -1.481   6.829 -30.856  1.00  0.00     0.048 A 
HETATM   17  C   UNL     1      -2.610   7.508 -31.580  1.00  0.00     0.071 C 
HETATM   18  N   UNL     1      -0.743   7.638 -30.046  1.00  0.00    -0.241 NA
HETATM   19  C   UNL     1       0.272   7.075 -29.361  1.00  0.00     0.126 A 
HETATM   20 CL   UNL     1       1.156   8.159 -28.371  1.00  0.00    -0.063 Cl
HETATM   21  C   UNL     1       0.605   5.735 -29.424  1.00  0.00     0.045 A 
HETATM   22  C   UNL     1      -0.150   4.914 -30.257  1.00  0.00     0.022 A 
ENDBRANCH  12  15
ENDBRANCH   1  11
BRANCH   8  23
HETATM   23  C   UNL     1      -3.441  -1.721 -32.381  1.00  0.00     0.270 C 
HETATM   24  N   UNL     1      -3.648  -2.970 -32.900  1.00  0.00    -0.365 N 
HETATM   25  H   UNL     1      -4.477  -3.131 -33.460  1.00  0.00     0.159 HD
HETATM   26  H   UNL     1      -3.016  -3.718 -32.664  1.00  0.00     0.159 HD
HETATM   27  O   UNL     1      -2.478  -1.487 -31.659  1.00  0.00    -0.266 OA
ENDBRANCH   8  23
TORSDOF 3
ENDMDL
