MODEL 1
REMARK VINA RESULT:      -9.2      0.000      0.000
REMARK  10 active torsions:
REMARK  status: ('A' for Active; 'I' for Inactive)
REMARK    1  A    between atoms: C_2  and  N_3 
REMARK    2  A    between atoms: N_3  and  C_5 
REMARK    3  A    between atoms: N_3  and  C_35 
REMARK    4  A    between atoms: C_5  and  C_6 
REMARK    5  A    between atoms: C_6  and  C_7 
REMARK    6  A    between atoms: C_7  and  N_8 
REMARK       I    between atoms: N_8  and  C_9 
REMARK    7  A    between atoms: N_8  and  C_19 
REMARK       I    between atoms: C_9  and  N_10 
REMARK    8  A    between atoms: N_10  and  C_11 
REMARK    9  A    between atoms: C_19  and  C_20 
REMARK   10  A    between atoms: C_21  and  O_22 
ROOT
HETATM    1  N   UNL     1      -5.474   2.087 -32.629  1.00  0.00    -0.330 N 
HETATM    2  C   UNL     1      -5.408   0.676 -32.569  1.00  0.00     0.323 C 
HETATM    3  N   UNL     1      -5.425   0.071 -33.808  1.00  0.00    -0.309 N 
HETATM    4  O   UNL     1      -5.228   0.073 -31.513  1.00  0.00    -0.247 OA
HETATM    5  H   UNL     1      -5.096   0.628 -34.587  1.00  0.00     0.170 HD
ENDROOT
BRANCH   1   6
HETATM    6  C   UNL     1      -5.410   2.936 -31.419  1.00  0.00     0.129 C 
BRANCH   6   7
HETATM    7  C   UNL     1      -4.237   3.901 -31.226  1.00  0.00     0.048 C 
BRANCH   7   8
HETATM    8  C   UNL     1      -2.896   3.344 -31.698  1.00  0.00     0.236 C 
BRANCH   8   9
HETATM    9  N   UNL     1      -2.024   4.448 -32.270  1.00  0.00    -0.072 N 
HETATM   10  H   UNL     1      -1.207   3.938 -32.654  1.00  0.00     0.279 HD
BRANCH   9  11
HETATM   11  C   UNL     1      -1.459   5.425 -31.256  1.00  0.00     0.230 C 
HETATM   12  C   UNL     1       0.060   5.414 -31.223  1.00  0.00     0.034 C 
ENDBRANCH   9  11
BRANCH   9  13
HETATM   13  C   UNL     1      -2.664   5.155 -33.451  1.00  0.00     0.230 C 
HETATM   14  C   UNL     1      -1.749   5.133 -34.662  1.00  0.00     0.034 C 
ENDBRANCH   9  13
ENDBRANCH   8   9
ENDBRANCH   7   8
ENDBRANCH   6   7
ENDBRANCH   1   6
BRANCH   1  15
HETATM   15  C   UNL     1      -6.099   2.760 -33.793  1.00  0.00     0.170 C 
BRANCH  15  16
HETATM   16  C   UNL     1      -7.597   2.934 -33.742  1.00  0.00     0.013 A 
HETATM   17  C   UNL     1      -8.284   4.114 -33.983  1.00  0.00     0.170 A 
HETATM   18  N   UNL     1      -9.616   4.222 -34.108  1.00  0.00    -0.224 NA
HETATM   19  C   UNL     1     -10.362   3.116 -33.978  1.00  0.00     0.072 A 
HETATM   20  C   UNL     1      -9.789   1.861 -33.692  1.00  0.00    -0.004 A 
HETATM   21  C   UNL     1     -11.738   3.195 -34.144  1.00  0.00     0.072 A 
HETATM   22  C   UNL     1      -8.392   1.789 -33.582  1.00  0.00     0.027 A 
HETATM   23  C   UNL     1     -10.603   0.725 -33.545  1.00  0.00     0.053 A 
HETATM   24  C   UNL     1     -11.982   0.832 -33.700  1.00  0.00     0.103 A 
HETATM   25  C   UNL     1     -12.546   2.064 -34.031  1.00  0.00     0.104 A 
HETATM   26  O   UNL     1     -12.713  -0.312 -33.530  1.00  0.00    -0.346 OA
HETATM   27  O   UNL     1     -13.887   2.236 -34.254  1.00  0.00    -0.346 OA
HETATM   28  C   UNL     1     -14.547   0.981 -34.465  1.00  0.00     0.202 C 
HETATM   29  C   UNL     1     -14.114  -0.027 -33.413  1.00  0.00     0.202 C 
BRANCH  17  30
HETATM   30  O   UNL     1      -7.638   5.303 -34.132  1.00  0.00    -0.344 OA
HETATM   31  H   UNL     1      -6.696   5.093 -34.067  1.00  0.00     0.219 HD
ENDBRANCH  17  30
ENDBRANCH  15  16
ENDBRANCH   1  15
BRANCH   3  32
HETATM   32  C   UNL     1      -5.552  -1.302 -34.097  1.00  0.00     0.036 A 
HETATM   33  C   UNL     1      -6.748  -1.902 -34.501  1.00  0.00     0.032 A 
HETATM   34  C   UNL     1      -6.780  -3.267 -34.802  1.00  0.00     0.044 A 
HETATM   35  C   UNL     1      -5.618  -4.024 -34.707  1.00  0.00     0.116 A 
HETATM   36  F   UNL     1      -5.654  -5.330 -34.999  1.00  0.00    -0.206 F 
HETATM   37  C   UNL     1      -4.421  -3.443 -34.317  1.00  0.00     0.044 A 
HETATM   38  C   UNL     1      -4.386  -2.080 -34.015  1.00  0.00     0.032 A 
ENDBRANCH   3  32
TORSDOF 10
ENDMDL
MODEL 2
REMARK VINA RESULT:      -9.2      2.228      8.093
REMARK  10 active torsions:
REMARK  status: ('A' for Active; 'I' for Inactive)
REMARK    1  A    between atoms: C_2  and  N_3 
REMARK    2  A    between atoms: N_3  and  C_5 
REMARK    3  A    between atoms: N_3  and  C_35 
REMARK    4  A    between atoms: C_5  and  C_6 
REMARK    5  A    between atoms: C_6  and  C_7 
REMARK    6  A    between atoms: C_7  and  N_8 
REMARK       I    between atoms: N_8  and  C_9 
REMARK    7  A    between atoms: N_8  and  C_19 
REMARK       I    between atoms: C_9  and  N_10 
REMARK    8  A    between atoms: N_10  and  C_11 
REMARK    9  A    between atoms: C_19  and  C_20 
REMARK   10  A    between atoms: C_21  and  O_22 
ROOT
HETATM    1  N   UNL     1      -9.136   1.209 -33.557  1.00  0.00    -0.330 N 
HETATM    2  C   UNL     1      -8.318   0.267 -34.223  1.00  0.00     0.323 C 
HETATM    3  N   UNL     1      -7.632  -0.568 -33.367  1.00  0.00    -0.309 N 
HETATM    4  O   UNL     1      -8.328   0.140 -35.446  1.00  0.00    -0.247 OA
HETATM    5  H   UNL     1      -8.038  -0.709 -32.451  1.00  0.00     0.170 HD
ENDROOT
BRANCH   1   6
HETATM    6  C   UNL     1     -10.004   2.161 -34.284  1.00  0.00     0.129 C 
BRANCH   6   7
HETATM    7  C   UNL     1     -11.425   2.432 -33.786  1.00  0.00     0.048 C 
BRANCH   7   8
HETATM    8  C   UNL     1     -12.511   2.105 -34.810  1.00  0.00     0.236 C 
BRANCH   8   9
HETATM    9  N   UNL     1     -13.878   2.056 -34.150  1.00  0.00    -0.072 N 
HETATM   10  H   UNL     1     -14.463   2.661 -34.757  1.00  0.00     0.279 HD
BRANCH   9  11
HETATM   11  C   UNL     1     -13.955   2.669 -32.765  1.00  0.00     0.230 C 
HETATM   12  C   UNL     1     -15.256   2.336 -32.053  1.00  0.00     0.034 C 
ENDBRANCH   9  11
BRANCH   9  13
HETATM   13  C   UNL     1     -14.511   0.677 -34.203  1.00  0.00     0.230 C 
HETATM   14  C   UNL     1     -13.548  -0.386 -33.707  1.00  0.00     0.034 C 
ENDBRANCH   9  13
ENDBRANCH   8   9
ENDBRANCH   7   8
ENDBRANCH   6   7
ENDBRANCH   1   6
BRANCH   1  15
HETATM   15  C   UNL     1      -8.813   1.638 -32.175  1.00  0.00     0.170 C 
BRANCH  15  16
HETATM   16  C   UNL     1      -7.441   2.226 -31.959  1.00  0.00     0.013 A 
HETATM   17  C   UNL     1      -6.503   1.778 -31.042  1.00  0.00     0.170 A 
HETATM   18  N   UNL     1      -5.227   2.190 -30.975  1.00  0.00    -0.224 NA
HETATM   19  C   UNL     1      -4.810   3.121 -31.846  1.00  0.00     0.072 A 
HETATM   20  C   UNL     1      -5.676   3.686 -32.802  1.00  0.00    -0.004 A 
HETATM   21  C   UNL     1      -3.484   3.533 -31.824  1.00  0.00     0.072 A 
HETATM   22  C   UNL     1      -6.997   3.219 -32.847  1.00  0.00     0.027 A 
HETATM   23  C   UNL     1      -5.209   4.673 -33.688  1.00  0.00     0.053 A 
HETATM   24  C   UNL     1      -3.880   5.082 -33.636  1.00  0.00     0.103 A 
HETATM   25  C   UNL     1      -3.010   4.488 -32.722  1.00  0.00     0.104 A 
HETATM   26  O   UNL     1      -3.498   6.055 -34.519  1.00  0.00    -0.346 OA
HETATM   27  O   UNL     1      -1.676   4.797 -32.649  1.00  0.00    -0.346 OA
HETATM   28  C   UNL     1      -1.238   5.495 -33.822  1.00  0.00     0.202 C 
HETATM   29  C   UNL     1      -2.217   6.603 -34.176  1.00  0.00     0.202 C 
BRANCH  17  30
HETATM   30  O   UNL     1      -6.807   0.836 -30.107  1.00  0.00    -0.344 OA
HETATM   31  H   UNL     1      -6.156   0.132 -30.230  1.00  0.00     0.219 HD
ENDBRANCH  17  30
ENDBRANCH  15  16
ENDBRANCH   1  15
BRANCH   3  32
HETATM   32  C   UNL     1      -6.610  -1.484 -33.690  1.00  0.00     0.036 A 
HETATM   33  C   UNL     1      -6.812  -2.627 -34.470  1.00  0.00     0.032 A 
HETATM   34  C   UNL     1      -5.736  -3.466 -34.773  1.00  0.00     0.044 A 
HETATM   35  C   UNL     1      -4.465  -3.159 -34.303  1.00  0.00     0.116 A 
HETATM   36  F   UNL     1      -3.438  -3.965 -34.599  1.00  0.00    -0.206 F 
HETATM   37  C   UNL     1      -4.245  -2.024 -33.536  1.00  0.00     0.044 A 
HETATM   38  C   UNL     1      -5.318  -1.184 -33.232  1.00  0.00     0.032 A 
ENDBRANCH   3  32
TORSDOF 10
ENDMDL
MODEL 3
REMARK VINA RESULT:      -9.1      2.234      8.072
REMARK  10 active torsions:
REMARK  status: ('A' for Active; 'I' for Inactive)
REMARK    1  A    between atoms: C_2  and  N_3 
REMARK    2  A    between atoms: N_3  and  C_5 
REMARK    3  A    between atoms: N_3  and  C_35 
REMARK    4  A    between atoms: C_5  and  C_6 
REMARK    5  A    between atoms: C_6  and  C_7 
REMARK    6  A    between atoms: C_7  and  N_8 
REMARK       I    between atoms: N_8  and  C_9 
REMARK    7  A    between atoms: N_8  and  C_19 
REMARK       I    between atoms: C_9  and  N_10 
REMARK    8  A    between atoms: N_10  and  C_11 
REMARK    9  A    between atoms: C_19  and  C_20 
REMARK   10  A    between atoms: C_21  and  O_22 
ROOT
HETATM    1  N   UNL     1      -7.267   1.737 -32.842  1.00  0.00    -0.330 N 
HETATM    2  C   UNL     1      -7.081   0.336 -32.819  1.00  0.00     0.323 C 
HETATM    3  N   UNL     1      -6.022  -0.091 -33.591  1.00  0.00    -0.309 N 
HETATM    4  O   UNL     1      -7.731  -0.399 -32.078  1.00  0.00    -0.247 OA
HETATM    5  H   UNL     1      -5.285   0.582 -33.760  1.00  0.00     0.170 HD
ENDROOT
BRANCH   1   6
HETATM    6  C   UNL     1      -8.308   2.413 -32.037  1.00  0.00     0.129 C 
BRANCH   6   7
HETATM    7  C   UNL     1      -9.653   2.772 -32.674  1.00  0.00     0.048 C 
BRANCH   7   8
HETATM    8  C   UNL     1     -10.470   1.558 -33.115  1.00  0.00     0.236 C 
BRANCH   8   9
HETATM    9  N   UNL     1     -11.954   1.884 -33.131  1.00  0.00    -0.072 N 
HETATM   10  H   UNL     1     -12.281   1.570 -32.197  1.00  0.00     0.279 HD
BRANCH   9  11
HETATM   11  C   UNL     1     -12.781   1.109 -34.137  1.00  0.00     0.230 C 
HETATM   12  C   UNL     1     -13.204  -0.254 -33.616  1.00  0.00     0.034 C 
ENDBRANCH   9  11
BRANCH   9  13
HETATM   13  C   UNL     1     -12.231   3.375 -33.188  1.00  0.00     0.230 C 
HETATM   14  C   UNL     1     -12.742   3.783 -34.558  1.00  0.00     0.034 C 
ENDBRANCH   9  13
ENDBRANCH   8   9
ENDBRANCH   7   8
ENDBRANCH   6   7
ENDBRANCH   1   6
BRANCH   1  15
HETATM   15  C   UNL     1      -6.803   2.536 -34.001  1.00  0.00     0.170 C 
BRANCH  15  16
HETATM   16  C   UNL     1      -5.855   3.669 -33.697  1.00  0.00     0.013 A 
HETATM   17  C   UNL     1      -6.164   5.021 -33.752  1.00  0.00     0.170 A 
HETATM   18  N   UNL     1      -5.373   6.013 -33.314  1.00  0.00    -0.224 NA
HETATM   19  C   UNL     1      -4.179   5.697 -32.792  1.00  0.00     0.072 A 
HETATM   20  C   UNL     1      -3.730   4.364 -32.717  1.00  0.00    -0.004 A 
HETATM   21  C   UNL     1      -3.361   6.702 -32.295  1.00  0.00     0.072 A 
HETATM   22  C   UNL     1      -4.592   3.355 -33.174  1.00  0.00     0.027 A 
HETATM   23  C   UNL     1      -2.465   4.069 -32.180  1.00  0.00     0.053 A 
HETATM   24  C   UNL     1      -1.656   5.096 -31.703  1.00  0.00     0.103 A 
HETATM   25  C   UNL     1      -2.119   6.411 -31.732  1.00  0.00     0.104 A 
HETATM   26  O   UNL     1      -0.432   4.738 -31.206  1.00  0.00    -0.346 OA
HETATM   27  O   UNL     1      -1.404   7.467 -31.230  1.00  0.00    -0.346 OA
HETATM   28  C   UNL     1      -0.343   7.021 -30.376  1.00  0.00     0.202 C 
HETATM   29  C   UNL     1       0.419   5.880 -31.031  1.00  0.00     0.202 C 
BRANCH  17  30
HETATM   30  O   UNL     1      -7.345   5.467 -34.261  1.00  0.00    -0.344 OA
HETATM   31  H   UNL     1      -7.915   5.618 -33.494  1.00  0.00     0.219 HD
ENDBRANCH  17  30
ENDBRANCH  15  16
ENDBRANCH   1  15
BRANCH   3  32
HETATM   32  C   UNL     1      -5.677  -1.416 -33.927  1.00  0.00     0.036 A 
HETATM   33  C   UNL     1      -4.447  -2.001 -33.613  1.00  0.00     0.032 A 
HETATM   34  C   UNL     1      -4.198  -3.334 -33.952  1.00  0.00     0.044 A 
HETATM   35  C   UNL     1      -5.179  -4.078 -34.596  1.00  0.00     0.116 A 
HETATM   36  F   UNL     1      -4.936  -5.356 -34.915  1.00  0.00    -0.206 F 
HETATM   37  C   UNL     1      -6.409  -3.517 -34.906  1.00  0.00     0.044 A 
HETATM   38  C   UNL     1      -6.660  -2.186 -34.569  1.00  0.00     0.032 A 
ENDBRANCH   3  32
TORSDOF 10
ENDMDL
MODEL 4
REMARK VINA RESULT:      -9.1      2.788      6.917
REMARK  10 active torsions:
REMARK  status: ('A' for Active; 'I' for Inactive)
REMARK    1  A    between atoms: C_2  and  N_3 
REMARK    2  A    between atoms: N_3  and  C_5 
REMARK    3  A    between atoms: N_3  and  C_35 
REMARK    4  A    between atoms: C_5  and  C_6 
REMARK    5  A    between atoms: C_6  and  C_7 
REMARK    6  A    between atoms: C_7  and  N_8 
REMARK       I    between atoms: N_8  and  C_9 
REMARK    7  A    between atoms: N_8  and  C_19 
REMARK       I    between atoms: C_9  and  N_10 
REMARK    8  A    between atoms: N_10  and  C_11 
REMARK    9  A    between atoms: C_19  and  C_20 
REMARK   10  A    between atoms: C_21  and  O_22 
ROOT
HETATM    1  N   UNL     1      -7.588   1.747 -33.200  1.00  0.00    -0.330 N 
HETATM    2  C   UNL     1      -7.396   0.347 -33.149  1.00  0.00     0.323 C 
HETATM    3  N   UNL     1      -6.222  -0.069 -33.741  1.00  0.00    -0.309 N 
HETATM    4  O   UNL     1      -8.151  -0.395 -32.524  1.00  0.00    -0.247 OA
HETATM    5  H   UNL     1      -5.473   0.610 -33.788  1.00  0.00     0.170 HD
ENDROOT
BRANCH   1   6
HETATM    6  C   UNL     1      -8.751   2.412 -32.573  1.00  0.00     0.129 C 
BRANCH   6   7
HETATM    7  C   UNL     1      -8.807   2.578 -31.052  1.00  0.00     0.048 C 
BRANCH   7   8
HETATM    8  C   UNL     1      -7.950   3.728 -30.526  1.00  0.00     0.236 C 
BRANCH   8   9
HETATM    9  N   UNL     1      -6.516   3.275 -30.305  1.00  0.00    -0.072 N 
HETATM   10  H   UNL     1      -6.105   3.302 -31.257  1.00  0.00     0.279 HD
BRANCH   9  11
HETATM   11  C   UNL     1      -6.351   1.845 -29.828  1.00  0.00     0.230 C 
HETATM   12  C   UNL     1      -5.124   1.173 -30.420  1.00  0.00     0.034 C 
ENDBRANCH   9  11
BRANCH   9  13
HETATM   13  C   UNL     1      -5.708   4.254 -29.475  1.00  0.00     0.230 C 
HETATM   14  C   UNL     1      -6.350   5.629 -29.473  1.00  0.00     0.034 C 
ENDBRANCH   9  13
ENDBRANCH   8   9
ENDBRANCH   7   8
ENDBRANCH   6   7
ENDBRANCH   1   6
BRANCH   1  15
HETATM   15  C   UNL     1      -6.950   2.553 -34.268  1.00  0.00     0.170 C 
BRANCH  15  16
HETATM   16  C   UNL     1      -6.025   3.655 -33.814  1.00  0.00     0.013 A 
HETATM   17  C   UNL     1      -6.357   4.998 -33.709  1.00  0.00     0.170 A 
HETATM   18  N   UNL     1      -5.589   5.943 -33.142  1.00  0.00    -0.224 NA
HETATM   19  C   UNL     1      -4.397   5.584 -32.644  1.00  0.00     0.072 A 
HETATM   20  C   UNL     1      -3.927   4.258 -32.723  1.00  0.00    -0.004 A 
HETATM   21  C   UNL     1      -3.604   6.533 -32.015  1.00  0.00     0.072 A 
HETATM   22  C   UNL     1      -4.764   3.300 -33.312  1.00  0.00     0.027 A 
HETATM   23  C   UNL     1      -2.664   3.921 -32.206  1.00  0.00     0.053 A 
HETATM   24  C   UNL     1      -1.880   4.894 -31.595  1.00  0.00     0.103 A 
HETATM   25  C   UNL     1      -2.365   6.195 -31.472  1.00  0.00     0.104 A 
HETATM   26  O   UNL     1      -0.657   4.497 -31.126  1.00  0.00    -0.346 OA
HETATM   27  O   UNL     1      -1.676   7.194 -30.834  1.00  0.00    -0.346 OA
HETATM   28  C   UNL     1      -0.619   6.663 -30.023  1.00  0.00     0.202 C 
HETATM   29  C   UNL     1       0.171   5.622 -30.800  1.00  0.00     0.202 C 
BRANCH  17  30
HETATM   30  O   UNL     1      -7.538   5.485 -34.179  1.00  0.00    -0.344 OA
HETATM   31  H   UNL     1      -7.539   6.424 -33.952  1.00  0.00     0.219 HD
ENDBRANCH  17  30
ENDBRANCH  15  16
ENDBRANCH   1  15
BRANCH   3  32
HETATM   32  C   UNL     1      -5.817  -1.390 -34.019  1.00  0.00     0.036 A 
HETATM   33  C   UNL     1      -4.572  -1.912 -33.655  1.00  0.00     0.032 A 
HETATM   34  C   UNL     1      -4.262  -3.245 -33.938  1.00  0.00     0.044 A 
HETATM   35  C   UNL     1      -5.196  -4.053 -34.575  1.00  0.00     0.116 A 
HETATM   36  F   UNL     1      -4.894  -5.330 -34.841  1.00  0.00    -0.206 F 
HETATM   37  C   UNL     1      -6.440  -3.554 -34.935  1.00  0.00     0.044 A 
HETATM   38  C   UNL     1      -6.752  -2.223 -34.654  1.00  0.00     0.032 A 
ENDBRANCH   3  32
TORSDOF 10
ENDMDL
MODEL 5
REMARK VINA RESULT:      -8.8      3.734      8.420
REMARK  10 active torsions:
REMARK  status: ('A' for Active; 'I' for Inactive)
REMARK    1  A    between atoms: C_2  and  N_3 
REMARK    2  A    between atoms: N_3  and  C_5 
REMARK    3  A    between atoms: N_3  and  C_35 
REMARK    4  A    between atoms: C_5  and  C_6 
REMARK    5  A    between atoms: C_6  and  C_7 
REMARK    6  A    between atoms: C_7  and  N_8 
REMARK       I    between atoms: N_8  and  C_9 
REMARK    7  A    between atoms: N_8  and  C_19 
REMARK       I    between atoms: C_9  and  N_10 
REMARK    8  A    between atoms: N_10  and  C_11 
REMARK    9  A    between atoms: C_19  and  C_20 
REMARK   10  A    between atoms: C_21  and  O_22 
ROOT
HETATM    1  N   UNL     1      -5.243   4.457 -32.635  1.00  0.00    -0.330 N 
HETATM    2  C   UNL     1      -4.215   5.400 -32.405  1.00  0.00     0.323 C 
HETATM    3  N   UNL     1      -3.142   4.885 -31.710  1.00  0.00    -0.309 N 
HETATM    4  O   UNL     1      -4.240   6.529 -32.892  1.00  0.00    -0.247 OA
HETATM    5  H   UNL     1      -2.997   3.885 -31.777  1.00  0.00     0.170 HD
ENDROOT
BRANCH   1   6
HETATM    6  C   UNL     1      -6.459   4.783 -33.414  1.00  0.00     0.129 C 
BRANCH   6   7
HETATM    7  C   UNL     1      -7.825   4.283 -32.939  1.00  0.00     0.048 C 
BRANCH   7   8
HETATM    8  C   UNL     1      -8.787   3.946 -34.077  1.00  0.00     0.236 C 
BRANCH   8   9
HETATM    9  N   UNL     1      -9.767   2.865 -33.652  1.00  0.00    -0.072 N 
HETATM   10  H   UNL     1      -9.742   2.910 -32.616  1.00  0.00     0.279 HD
BRANCH   9  11
HETATM   11  C   UNL     1      -9.368   1.446 -34.011  1.00  0.00     0.230 C 
HETATM   12  C   UNL     1      -9.574   0.476 -32.860  1.00  0.00     0.034 C 
ENDBRANCH   9  11
BRANCH   9  13
HETATM   13  C   UNL     1     -11.199   3.176 -34.048  1.00  0.00     0.230 C 
HETATM   14  C   UNL     1     -12.113   3.171 -32.836  1.00  0.00     0.034 C 
ENDBRANCH   9  13
ENDBRANCH   8   9
ENDBRANCH   7   8
ENDBRANCH   6   7
ENDBRANCH   1   6
BRANCH   1  15
HETATM   15  C   UNL     1      -5.413   3.296 -31.730  1.00  0.00     0.170 C 
BRANCH  15  16
HETATM   16  C   UNL     1      -4.900   1.971 -32.235  1.00  0.00     0.013 A 
HETATM   17  C   UNL     1      -3.669   1.409 -31.931  1.00  0.00     0.170 A 
HETATM   18  N   UNL     1      -3.291   0.159 -32.241  1.00  0.00    -0.224 NA
HETATM   19  C   UNL     1      -4.151  -0.622 -32.910  1.00  0.00     0.072 A 
HETATM   20  C   UNL     1      -5.419  -0.157 -33.312  1.00  0.00    -0.004 A 
HETATM   21  C   UNL     1      -3.800  -1.932 -33.204  1.00  0.00     0.072 A 
HETATM   22  C   UNL     1      -5.780   1.151 -32.958  1.00  0.00     0.027 A 
HETATM   23  C   UNL     1      -6.289  -0.998 -34.028  1.00  0.00     0.053 A 
HETATM   24  C   UNL     1      -5.907  -2.303 -34.326  1.00  0.00     0.103 A 
HETATM   25  C   UNL     1      -4.673  -2.779 -33.886  1.00  0.00     0.104 A 
HETATM   26  O   UNL     1      -6.799  -3.060 -35.036  1.00  0.00    -0.346 OA
HETATM   27  O   UNL     1      -4.251  -4.067 -34.092  1.00  0.00    -0.346 OA
HETATM   28  C   UNL     1      -5.342  -4.920 -34.465  1.00  0.00     0.202 C 
HETATM   29  C   UNL     1      -6.188  -4.257 -35.539  1.00  0.00     0.202 C 
BRANCH  17  30
HETATM   30  O   UNL     1      -2.711   2.103 -31.257  1.00  0.00    -0.344 OA
HETATM   31  H   UNL     1      -3.178   2.560 -30.544  1.00  0.00     0.219 HD
ENDBRANCH  17  30
ENDBRANCH  15  16
ENDBRANCH   1  15
BRANCH   3  32
HETATM   32  C   UNL     1      -2.047   5.587 -31.166  1.00  0.00     0.036 A 
HETATM   33  C   UNL     1      -0.747   5.509 -31.674  1.00  0.00     0.032 A 
HETATM   34  C   UNL     1       0.276   6.267 -31.097  1.00  0.00     0.044 A 
HETATM   35  C   UNL     1      -0.004   7.103 -30.023  1.00  0.00     0.116 A 
HETATM   36  F   UNL     1       0.980   7.829 -29.476  1.00  0.00    -0.206 F 
HETATM   37  C   UNL     1      -1.290   7.200 -29.513  1.00  0.00     0.044 A 
HETATM   38  C   UNL     1      -2.313   6.444 -30.087  1.00  0.00     0.032 A 
ENDBRANCH   3  32
TORSDOF 10
ENDMDL
MODEL 6
REMARK VINA RESULT:      -8.5      1.919      2.678
REMARK  10 active torsions:
REMARK  status: ('A' for Active; 'I' for Inactive)
REMARK    1  A    between atoms: C_2  and  N_3 
REMARK    2  A    between atoms: N_3  and  C_5 
REMARK    3  A    between atoms: N_3  and  C_35 
REMARK    4  A    between atoms: C_5  and  C_6 
REMARK    5  A    between atoms: C_6  and  C_7 
REMARK    6  A    between atoms: C_7  and  N_8 
REMARK       I    between atoms: N_8  and  C_9 
REMARK    7  A    between atoms: N_8  and  C_19 
REMARK       I    between atoms: C_9  and  N_10 
REMARK    8  A    between atoms: N_10  and  C_11 
REMARK    9  A    between atoms: C_19  and  C_20 
REMARK   10  A    between atoms: C_21  and  O_22 
ROOT
HETATM    1  N   UNL     1      -6.956   1.822 -32.055  1.00  0.00    -0.330 N 
HETATM    2  C   UNL     1      -6.609   0.452 -32.112  1.00  0.00     0.323 C 
HETATM    3  N   UNL     1      -6.283   0.020 -33.380  1.00  0.00    -0.309 N 
HETATM    4  O   UNL     1      -6.495  -0.238 -31.101  1.00  0.00    -0.247 OA
HETATM    5  H   UNL     1      -5.945   0.724 -34.025  1.00  0.00     0.170 HD
ENDROOT
BRANCH   1   6
HETATM    6  C   UNL     1      -7.282   2.505 -30.784  1.00  0.00     0.129 C 
BRANCH   6   7
HETATM    7  C   UNL     1      -6.189   3.251 -30.016  1.00  0.00     0.048 C 
BRANCH   7   8
HETATM    8  C   UNL     1      -5.685   4.507 -30.724  1.00  0.00     0.236 C 
BRANCH   8   9
HETATM    9  N   UNL     1      -4.331   4.258 -31.366  1.00  0.00    -0.072 N 
HETATM   10  H   UNL     1      -4.539   4.273 -32.382  1.00  0.00     0.279 HD
BRANCH   9  11
HETATM   11  C   UNL     1      -3.721   2.898 -31.092  1.00  0.00     0.230 C 
HETATM   12  C   UNL     1      -3.420   2.128 -32.368  1.00  0.00     0.034 C 
ENDBRANCH   9  11
BRANCH   9  13
HETATM   13  C   UNL     1      -3.346   5.388 -31.126  1.00  0.00     0.230 C 
HETATM   14  C   UNL     1      -4.059   6.646 -30.665  1.00  0.00     0.034 C 
ENDBRANCH   9  13
ENDBRANCH   8   9
ENDBRANCH   7   8
ENDBRANCH   6   7
ENDBRANCH   1   6
BRANCH   1  15
HETATM   15  C   UNL     1      -7.493   2.510 -33.253  1.00  0.00     0.170 C 
BRANCH  15  16
HETATM   16  C   UNL     1      -8.962   2.312 -33.537  1.00  0.00     0.013 A 
HETATM   17  C   UNL     1      -9.502   1.338 -34.364  1.00  0.00     0.170 A 
HETATM   18  N   UNL     1     -10.810   1.057 -34.476  1.00  0.00    -0.224 NA
HETATM   19  C   UNL     1     -11.682   1.772 -33.751  1.00  0.00     0.072 A 
HETATM   20  C   UNL     1     -11.264   2.817 -32.903  1.00  0.00    -0.004 A 
HETATM   21  C   UNL     1     -13.036   1.472 -33.817  1.00  0.00     0.072 A 
HETATM   22  C   UNL     1      -9.888   3.070 -32.805  1.00  0.00     0.027 A 
HETATM   23  C   UNL     1     -12.207   3.558 -32.171  1.00  0.00     0.053 A 
HETATM   24  C   UNL     1     -13.561   3.249 -32.266  1.00  0.00     0.103 A 
HETATM   25  C   UNL     1     -13.971   2.185 -33.068  1.00  0.00     0.104 A 
HETATM   26  O   UNL     1     -14.424   4.021 -31.536  1.00  0.00    -0.346 OA
HETATM   27  O   UNL     1     -15.279   1.786 -33.169  1.00  0.00    -0.346 OA
HETATM   28  C   UNL     1     -16.075   2.333 -32.110  1.00  0.00     0.202 C 
HETATM   29  C   UNL     1     -15.784   3.815 -31.941  1.00  0.00     0.202 C 
BRANCH  17  30
HETATM   30  O   UNL     1      -8.719   0.549 -35.149  1.00  0.00    -0.344 OA
HETATM   31  H   UNL     1      -8.003   1.122 -35.458  1.00  0.00     0.219 HD
ENDBRANCH  17  30
ENDBRANCH  15  16
ENDBRANCH   1  15
BRANCH   3  32
HETATM   32  C   UNL     1      -6.068  -1.304 -33.813  1.00  0.00     0.036 A 
HETATM   33  C   UNL     1      -7.090  -2.152 -34.249  1.00  0.00     0.032 A 
HETATM   34  C   UNL     1      -6.787  -3.442 -34.695  1.00  0.00     0.044 A 
HETATM   35  C   UNL     1      -5.467  -3.876 -34.711  1.00  0.00     0.116 A 
HETATM   36  F   UNL     1      -5.183  -5.111 -35.142  1.00  0.00    -0.206 F 
HETATM   37  C   UNL     1      -4.440  -3.044 -34.291  1.00  0.00     0.044 A 
HETATM   38  C   UNL     1      -4.740  -1.756 -33.844  1.00  0.00     0.032 A 
ENDBRANCH   3  32
TORSDOF 10
ENDMDL
MODEL 7
REMARK VINA RESULT:      -8.5      1.909      2.774
REMARK  10 active torsions:
REMARK  status: ('A' for Active; 'I' for Inactive)
REMARK    1  A    between atoms: C_2  and  N_3 
REMARK    2  A    between atoms: N_3  and  C_5 
REMARK    3  A    between atoms: N_3  and  C_35 
REMARK    4  A    between atoms: C_5  and  C_6 
REMARK    5  A    between atoms: C_6  and  C_7 
REMARK    6  A    between atoms: C_7  and  N_8 
REMARK       I    between atoms: N_8  and  C_9 
REMARK    7  A    between atoms: N_8  and  C_19 
REMARK       I    between atoms: C_9  and  N_10 
REMARK    8  A    between atoms: N_10  and  C_11 
REMARK    9  A    between atoms: C_19  and  C_20 
REMARK   10  A    between atoms: C_21  and  O_22 
ROOT
HETATM    1  N   UNL     1      -4.640   1.238 -31.506  1.00  0.00    -0.330 N 
HETATM    2  C   UNL     1      -4.370   0.245 -32.475  1.00  0.00     0.323 C 
HETATM    3  N   UNL     1      -5.439  -0.591 -32.719  1.00  0.00    -0.309 N 
HETATM    4  O   UNL     1      -3.321   0.223 -33.116  1.00  0.00    -0.247 OA
HETATM    5  H   UNL     1      -6.359  -0.217 -32.523  1.00  0.00     0.170 HD
ENDROOT
BRANCH   1   6
HETATM    6  C   UNL     1      -3.653   2.276 -31.136  1.00  0.00     0.129 C 
BRANCH   6   7
HETATM    7  C   UNL     1      -3.979   3.755 -31.360  1.00  0.00     0.048 C 
BRANCH   7   8
HETATM    8  C   UNL     1      -3.140   4.413 -32.454  1.00  0.00     0.236 C 
BRANCH   8   9
HETATM    9  N   UNL     1      -4.030   5.003 -33.535  1.00  0.00    -0.072 N 
HETATM   10  H   UNL     1      -4.383   5.879 -33.106  1.00  0.00     0.279 HD
BRANCH   9  11
HETATM   11  C   UNL     1      -5.262   4.189 -33.880  1.00  0.00     0.230 C 
HETATM   12  C   UNL     1      -6.552   4.933 -33.581  1.00  0.00     0.034 C 
ENDBRANCH   9  11
BRANCH   9  13
HETATM   13  C   UNL     1      -3.257   5.426 -34.771  1.00  0.00     0.230 C 
HETATM   14  C   UNL     1      -2.063   6.287 -34.400  1.00  0.00     0.034 C 
ENDBRANCH   9  13
ENDBRANCH   8   9
ENDBRANCH   7   8
ENDBRANCH   6   7
ENDBRANCH   1   6
BRANCH   1  15
HETATM   15  C   UNL     1      -5.680   1.016 -30.472  1.00  0.00     0.170 C 
BRANCH  15  16
HETATM   16  C   UNL     1      -7.011   1.685 -30.706  1.00  0.00     0.013 A 
HETATM   17  C   UNL     1      -7.432   2.875 -30.129  1.00  0.00     0.170 A 
HETATM   18  N   UNL     1      -8.539   3.552 -30.472  1.00  0.00    -0.224 NA
HETATM   19  C   UNL     1      -9.323   3.049 -31.437  1.00  0.00     0.072 A 
HETATM   20  C   UNL     1      -9.028   1.827 -32.073  1.00  0.00    -0.004 A 
HETATM   21  C   UNL     1     -10.450   3.752 -31.838  1.00  0.00     0.072 A 
HETATM   22  C   UNL     1      -7.855   1.157 -31.695  1.00  0.00     0.027 A 
HETATM   23  C   UNL     1      -9.881   1.320 -33.068  1.00  0.00     0.053 A 
HETATM   24  C   UNL     1     -11.015   2.035 -33.443  1.00  0.00     0.103 A 
HETATM   25  C   UNL     1     -11.282   3.267 -32.847  1.00  0.00     0.104 A 
HETATM   26  O   UNL     1     -11.808   1.476 -34.408  1.00  0.00    -0.346 OA
HETATM   27  O   UNL     1     -12.347   4.054 -33.202  1.00  0.00    -0.346 OA
HETATM   28  C   UNL     1     -12.903   3.645 -34.458  1.00  0.00     0.202 C 
HETATM   29  C   UNL     1     -13.079   2.135 -34.492  1.00  0.00     0.202 C 
BRANCH  17  30
HETATM   30  O   UNL     1      -6.722   3.482 -29.139  1.00  0.00    -0.344 OA
HETATM   31  H   UNL     1      -6.514   2.783 -28.505  1.00  0.00     0.219 HD
ENDBRANCH  17  30
ENDBRANCH  15  16
ENDBRANCH   1  15
BRANCH   3  32
HETATM   32  C   UNL     1      -5.452  -1.777 -33.480  1.00  0.00     0.036 A 
HETATM   33  C   UNL     1      -4.349  -2.625 -33.611  1.00  0.00     0.032 A 
HETATM   34  C   UNL     1      -4.455  -3.803 -34.358  1.00  0.00     0.044 A 
HETATM   35  C   UNL     1      -5.663  -4.130 -34.963  1.00  0.00     0.116 A 
HETATM   36  F   UNL     1      -5.760  -5.261 -35.674  1.00  0.00    -0.206 F 
HETATM   37  C   UNL     1      -6.770  -3.304 -34.836  1.00  0.00     0.044 A 
HETATM   38  C   UNL     1      -6.665  -2.128 -34.091  1.00  0.00     0.032 A 
ENDBRANCH   3  32
TORSDOF 10
ENDMDL
MODEL 8
REMARK VINA RESULT:      -8.5      3.054      8.313
REMARK  10 active torsions:
REMARK  status: ('A' for Active; 'I' for Inactive)
REMARK    1  A    between atoms: C_2  and  N_3 
REMARK    2  A    between atoms: N_3  and  C_5 
REMARK    3  A    between atoms: N_3  and  C_35 
REMARK    4  A    between atoms: C_5  and  C_6 
REMARK    5  A    between atoms: C_6  and  C_7 
REMARK    6  A    between atoms: C_7  and  N_8 
REMARK       I    between atoms: N_8  and  C_9 
REMARK    7  A    between atoms: N_8  and  C_19 
REMARK       I    between atoms: C_9  and  N_10 
REMARK    8  A    between atoms: N_10  and  C_11 
REMARK    9  A    between atoms: C_19  and  C_20 
REMARK   10  A    between atoms: C_21  and  O_22 
ROOT
HETATM    1  N   UNL     1      -7.269   1.681 -33.985  1.00  0.00    -0.330 N 
HETATM    2  C   UNL     1      -8.523   1.158 -34.375  1.00  0.00     0.323 C 
HETATM    3  N   UNL     1      -9.579   2.002 -34.105  1.00  0.00    -0.309 N 
HETATM    4  O   UNL     1      -8.627   0.107 -35.006  1.00  0.00    -0.247 OA
HETATM    5  H   UNL     1      -9.364   2.990 -34.043  1.00  0.00     0.170 HD
ENDROOT
BRANCH   1   6
HETATM    6  C   UNL     1      -5.998   0.966 -34.236  1.00  0.00     0.129 C 
BRANCH   6   7
HETATM    7  C   UNL     1      -5.879  -0.521 -33.896  1.00  0.00     0.048 C 
BRANCH   7   8
HETATM    8  C   UNL     1      -5.417  -0.791 -32.465  1.00  0.00     0.236 C 
BRANCH   8   9
HETATM    9  N   UNL     1      -4.323  -1.844 -32.440  1.00  0.00    -0.072 N 
HETATM   10  H   UNL     1      -4.724  -2.597 -31.849  1.00  0.00     0.279 HD
BRANCH   9  11
HETATM   11  C   UNL     1      -3.034  -1.430 -31.757  1.00  0.00     0.230 C 
HETATM   12  C   UNL     1      -3.016   0.046 -31.396  1.00  0.00     0.034 C 
ENDBRANCH   9  11
BRANCH   9  13
HETATM   13  C   UNL     1      -4.075  -2.471 -33.800  1.00  0.00     0.230 C 
HETATM   14  C   UNL     1      -3.861  -3.969 -33.680  1.00  0.00     0.034 C 
ENDBRANCH   9  13
ENDBRANCH   8   9
ENDBRANCH   7   8
ENDBRANCH   6   7
ENDBRANCH   1   6
BRANCH   1  15
HETATM   15  C   UNL     1      -7.180   2.682 -32.895  1.00  0.00     0.170 C 
BRANCH  15  16
HETATM   16  C   UNL     1      -6.034   3.659 -32.975  1.00  0.00     0.013 A 
HETATM   17  C   UNL     1      -6.091   4.932 -33.525  1.00  0.00     0.170 A 
HETATM   18  N   UNL     1      -5.122   5.857 -33.437  1.00  0.00    -0.224 NA
HETATM   19  C   UNL     1      -3.995   5.542 -32.783  1.00  0.00     0.072 A 
HETATM   20  C   UNL     1      -3.796   4.269 -32.214  1.00  0.00    -0.004 A 
HETATM   21  C   UNL     1      -2.996   6.496 -32.643  1.00  0.00     0.072 A 
HETATM   22  C   UNL     1      -4.838   3.336 -32.317  1.00  0.00     0.027 A 
HETATM   23  C   UNL     1      -2.595   3.968 -31.550  1.00  0.00     0.053 A 
HETATM   24  C   UNL     1      -1.601   4.935 -31.436  1.00  0.00     0.103 A 
HETATM   25  C   UNL     1      -1.816   6.211 -31.957  1.00  0.00     0.104 A 
HETATM   26  O   UNL     1      -0.452   4.568 -30.789  1.00  0.00    -0.346 OA
HETATM   27  O   UNL     1      -0.909   7.231 -31.835  1.00  0.00    -0.346 OA
HETATM   28  C   UNL     1       0.071   6.942 -30.830  1.00  0.00     0.202 C 
HETATM   29  C   UNL     1       0.596   5.525 -30.996  1.00  0.00     0.202 C 
BRANCH  17  30
HETATM   30  O   UNL     1      -7.182   5.367 -34.214  1.00  0.00    -0.344 OA
HETATM   31  H   UNL     1      -7.607   4.568 -34.554  1.00  0.00     0.219 HD
ENDBRANCH  17  30
ENDBRANCH  15  16
ENDBRANCH   1  15
BRANCH   3  32
HETATM   32  C   UNL     1     -10.957   1.719 -34.200  1.00  0.00     0.036 A 
HETATM   33  C   UNL     1     -11.575   0.651 -33.545  1.00  0.00     0.032 A 
HETATM   34  C   UNL     1     -12.955   0.461 -33.665  1.00  0.00     0.044 A 
HETATM   35  C   UNL     1     -13.711   1.341 -34.430  1.00  0.00     0.116 A 
HETATM   36  F   UNL     1     -15.033   1.156 -34.538  1.00  0.00    -0.206 F 
HETATM   37  C   UNL     1     -13.115   2.412 -35.079  1.00  0.00     0.044 A 
HETATM   38  C   UNL     1     -11.737   2.604 -34.961  1.00  0.00     0.032 A 
ENDBRANCH   3  32
TORSDOF 10
ENDMDL
MODEL 9
REMARK VINA RESULT:      -8.3      3.348      7.133
REMARK  10 active torsions:
REMARK  status: ('A' for Active; 'I' for Inactive)
REMARK    1  A    between atoms: C_2  and  N_3 
REMARK    2  A    between atoms: N_3  and  C_5 
REMARK    3  A    between atoms: N_3  and  C_35 
REMARK    4  A    between atoms: C_5  and  C_6 
REMARK    5  A    between atoms: C_6  and  C_7 
REMARK    6  A    between atoms: C_7  and  N_8 
REMARK       I    between atoms: N_8  and  C_9 
REMARK    7  A    between atoms: N_8  and  C_19 
REMARK       I    between atoms: C_9  and  N_10 
REMARK    8  A    between atoms: N_10  and  C_11 
REMARK    9  A    between atoms: C_19  and  C_20 
REMARK   10  A    between atoms: C_21  and  O_22 
ROOT
HETATM    1  N   UNL     1      -7.244   2.078 -31.614  1.00  0.00    -0.330 N 
HETATM    2  C   UNL     1      -7.037   0.691 -31.786  1.00  0.00     0.323 C 
HETATM    3  N   UNL     1      -6.314   0.379 -32.918  1.00  0.00    -0.309 N 
HETATM    4  O   UNL     1      -7.368  -0.132 -30.934  1.00  0.00    -0.247 OA
HETATM    5  H   UNL     1      -5.697   1.099 -33.273  1.00  0.00     0.170 HD
ENDROOT
BRANCH   1   6
HETATM    6  C   UNL     1      -7.943   2.636 -30.435  1.00  0.00     0.129 C 
BRANCH   6   7
HETATM    7  C   UNL     1      -7.753   4.108 -30.061  1.00  0.00     0.048 C 
BRANCH   7   8
HETATM    8  C   UNL     1      -6.505   4.375 -29.222  1.00  0.00     0.236 C 
BRANCH   8   9
HETATM    9  N   UNL     1      -6.444   5.832 -28.795  1.00  0.00    -0.072 N 
HETATM   10  H   UNL     1      -6.938   5.838 -27.883  1.00  0.00     0.279 HD
BRANCH   9  11
HETATM   11  C   UNL     1      -7.204   6.802 -29.679  1.00  0.00     0.230 C 
HETATM   12  C   UNL     1      -6.295   7.545 -30.644  1.00  0.00     0.034 C 
ENDBRANCH   9  11
BRANCH   9  13
HETATM   13  C   UNL     1      -5.032   6.306 -28.507  1.00  0.00     0.230 C 
HETATM   14  C   UNL     1      -4.904   6.804 -27.079  1.00  0.00     0.034 C 
ENDBRANCH   9  13
ENDBRANCH   8   9
ENDBRANCH   7   8
ENDBRANCH   6   7
ENDBRANCH   1   6
BRANCH   1  15
HETATM   15  C   UNL     1      -7.237   2.989 -32.784  1.00  0.00     0.170 C 
BRANCH  15  16
HETATM   16  C   UNL     1      -6.032   3.885 -32.928  1.00  0.00     0.013 A 
HETATM   17  C   UNL     1      -6.017   5.130 -33.540  1.00  0.00     0.170 A 
HETATM   18  N   UNL     1      -4.990   5.994 -33.511  1.00  0.00    -0.224 NA
HETATM   19  C   UNL     1      -3.874   5.640 -32.858  1.00  0.00     0.072 A 
HETATM   20  C   UNL     1      -3.748   4.386 -32.228  1.00  0.00    -0.004 A 
HETATM   21  C   UNL     1      -2.815   6.532 -32.778  1.00  0.00     0.072 A 
HETATM   22  C   UNL     1      -4.849   3.517 -32.270  1.00  0.00     0.027 A 
HETATM   23  C   UNL     1      -2.557   4.040 -31.567  1.00  0.00     0.053 A 
HETATM   24  C   UNL     1      -1.502   4.946 -31.515  1.00  0.00     0.103 A 
HETATM   25  C   UNL     1      -1.644   6.205 -32.096  1.00  0.00     0.104 A 
HETATM   26  O   UNL     1      -0.368   4.537 -30.866  1.00  0.00    -0.346 OA
HETATM   27  O   UNL     1      -0.671   7.170 -32.038  1.00  0.00    -0.346 OA
HETATM   28  C   UNL     1       0.305   6.867 -31.033  1.00  0.00     0.202 C 
HETATM   29  C   UNL     1       0.736   5.412 -31.135  1.00  0.00     0.202 C 
BRANCH  17  30
HETATM   30  O   UNL     1      -7.090   5.601 -34.234  1.00  0.00    -0.344 OA
HETATM   31  H   UNL     1      -7.683   4.844 -34.334  1.00  0.00     0.219 HD
ENDBRANCH  17  30
ENDBRANCH  15  16
ENDBRANCH   1  15
BRANCH   3  32
HETATM   32  C   UNL     1      -6.088  -0.897 -33.474  1.00  0.00     0.036 A 
HETATM   33  C   UNL     1      -7.085  -1.665 -34.083  1.00  0.00     0.032 A 
HETATM   34  C   UNL     1      -6.769  -2.907 -34.641  1.00  0.00     0.044 A 
HETATM   35  C   UNL     1      -5.460  -3.372 -34.597  1.00  0.00     0.116 A 
HETATM   36  F   UNL     1      -5.162  -4.561 -35.136  1.00  0.00    -0.206 F 
HETATM   37  C   UNL     1      -4.456  -2.619 -34.006  1.00  0.00     0.044 A 
HETATM   38  C   UNL     1      -4.770  -1.378 -33.447  1.00  0.00     0.032 A 
ENDBRANCH   3  32
TORSDOF 10
ENDMDL
MODEL 10
REMARK VINA RESULT:      -8.2      2.829      7.824
REMARK  10 active torsions:
REMARK  status: ('A' for Active; 'I' for Inactive)
REMARK    1  A    between atoms: C_2  and  N_3 
REMARK    2  A    between atoms: N_3  and  C_5 
REMARK    3  A    between atoms: N_3  and  C_35 
REMARK    4  A    between atoms: C_5  and  C_6 
REMARK    5  A    between atoms: C_6  and  C_7 
REMARK    6  A    between atoms: C_7  and  N_8 
REMARK       I    between atoms: N_8  and  C_9 
REMARK    7  A    between atoms: N_8  and  C_19 
REMARK       I    between atoms: C_9  and  N_10 
REMARK    8  A    between atoms: N_10  and  C_11 
REMARK    9  A    between atoms: C_19  and  C_20 
REMARK   10  A    between atoms: C_21  and  O_22 
ROOT
HETATM    1  N   UNL     1      -7.154   1.977 -31.629  1.00  0.00    -0.330 N 
HETATM    2  C   UNL     1      -6.982   0.585 -31.804  1.00  0.00     0.323 C 
HETATM    3  N   UNL     1      -6.294   0.255 -32.953  1.00  0.00    -0.309 N 
HETATM    4  O   UNL     1      -7.313  -0.230 -30.944  1.00  0.00    -0.247 OA
HETATM    5  H   UNL     1      -5.669   0.960 -33.323  1.00  0.00     0.170 HD
ENDROOT
BRANCH   1   6
HETATM    6  C   UNL     1      -7.812   2.551 -30.435  1.00  0.00     0.129 C 
BRANCH   6   7
HETATM    7  C   UNL     1      -9.226   3.126 -30.545  1.00  0.00     0.048 C 
BRANCH   7   8
HETATM    8  C   UNL     1      -9.278   4.651 -30.487  1.00  0.00     0.236 C 
BRANCH   8   9
HETATM    9  N   UNL     1     -10.713   5.138 -30.375  1.00  0.00    -0.072 N 
HETATM   10  H   UNL     1     -10.897   5.118 -29.354  1.00  0.00     0.279 HD
BRANCH   9  11
HETATM   11  C   UNL     1     -11.759   4.233 -30.998  1.00  0.00     0.230 C 
HETATM   12  C   UNL     1     -12.218   4.725 -32.360  1.00  0.00     0.034 C 
ENDBRANCH   9  11
BRANCH   9  13
HETATM   13  C   UNL     1     -10.882   6.585 -30.800  1.00  0.00     0.230 C 
HETATM   14  C   UNL     1     -11.456   7.422 -29.671  1.00  0.00     0.034 C 
ENDBRANCH   9  13
ENDBRANCH   8   9
ENDBRANCH   7   8
ENDBRANCH   6   7
ENDBRANCH   1   6
BRANCH   1  15
HETATM   15  C   UNL     1      -7.153   2.886 -32.800  1.00  0.00     0.170 C 
BRANCH  15  16
HETATM   16  C   UNL     1      -5.985   3.835 -32.911  1.00  0.00     0.013 A 
HETATM   17  C   UNL     1      -6.026   5.109 -33.457  1.00  0.00     0.170 A 
HETATM   18  N   UNL     1      -5.032   6.009 -33.396  1.00  0.00    -0.224 NA
HETATM   19  C   UNL     1      -3.895   5.665 -32.774  1.00  0.00     0.072 A 
HETATM   20  C   UNL     1      -3.713   4.387 -32.212  1.00  0.00    -0.004 A 
HETATM   21  C   UNL     1      -2.869   6.593 -32.660  1.00  0.00     0.072 A 
HETATM   22  C   UNL     1      -4.780   3.480 -32.287  1.00  0.00     0.027 A 
HETATM   23  C   UNL     1      -2.501   4.053 -31.582  1.00  0.00     0.053 A 
HETATM   24  C   UNL     1      -1.480   4.995 -31.495  1.00  0.00     0.103 A 
HETATM   25  C   UNL     1      -1.677   6.277 -32.009  1.00  0.00     0.104 A 
HETATM   26  O   UNL     1      -0.323   4.598 -30.881  1.00  0.00    -0.346 OA
HETATM   27  O   UNL     1      -0.742   7.274 -31.911  1.00  0.00    -0.346 OA
HETATM   28  C   UNL     1       0.258   6.958 -30.934  1.00  0.00     0.202 C 
HETATM   29  C   UNL     1       0.743   5.528 -31.117  1.00  0.00     0.202 C 
BRANCH  17  30
HETATM   30  O   UNL     1      -7.124   5.573 -34.115  1.00  0.00    -0.344 OA
HETATM   31  H   UNL     1      -7.690   4.800 -34.247  1.00  0.00     0.219 HD
ENDBRANCH  17  30
ENDBRANCH  15  16
ENDBRANCH   1  15
BRANCH   3  32
HETATM   32  C   UNL     1      -6.110  -1.025 -33.512  1.00  0.00     0.036 A 
HETATM   33  C   UNL     1      -7.146  -1.787 -34.061  1.00  0.00     0.032 A 
HETATM   34  C   UNL     1      -6.872  -3.035 -34.629  1.00  0.00     0.044 A 
HETATM   35  C   UNL     1      -5.568  -3.513 -34.651  1.00  0.00     0.116 A 
HETATM   36  F   UNL     1      -5.311  -4.708 -35.199  1.00  0.00    -0.206 F 
HETATM   37  C   UNL     1      -4.526  -2.767 -34.120  1.00  0.00     0.044 A 
HETATM   38  C   UNL     1      -4.797  -1.520 -33.552  1.00  0.00     0.032 A 
ENDBRANCH   3  32
TORSDOF 10
ENDMDL
