MODEL 1
REMARK VINA RESULT:      -8.8      0.000      0.000
REMARK  4 active torsions:
REMARK  status: ('A' for Active; 'I' for Inactive)
REMARK    1  A    between atoms: C_10  and  C_11 
REMARK       I    between atoms: C_11  and  N_12 
REMARK    2  A    between atoms: N_12  and  N_13 
REMARK       I    between atoms: N_13  and  C_14 
REMARK    3  A    between atoms: C_14  and  C_15 
REMARK    4  A    between atoms: C_15  and  C_16 
ROOT
HETATM    1  C   UNL     1     -10.623   2.629 -33.959  1.00  0.00     0.272 C 
HETATM    2  N   UNL     1     -10.191   1.321 -33.938  1.00  0.00    -0.263 N 
HETATM    3  O   UNL     1     -10.013   3.487 -34.599  1.00  0.00    -0.266 OA
HETATM    4  H   UNL     1     -10.679   0.566 -33.456  1.00  0.00     0.190 HD
ENDROOT
BRANCH   2   5
HETATM    5  N   UNL     1      -9.088   0.961 -34.723  1.00  0.00    -0.267 N 
HETATM    6  C   UNL     1      -8.161   0.086 -34.200  1.00  0.00     0.240 C 
HETATM    7  O   UNL     1      -8.232  -0.358 -33.055  1.00  0.00    -0.272 OA
HETATM    8  H   UNL     1      -9.021   1.390 -35.644  1.00  0.00     0.190 HD
BRANCH   6   9
HETATM    9  C   UNL     1      -7.046  -0.290 -35.156  1.00  0.00     0.143 C 
BRANCH   9  10
HETATM   10  C   UNL     1      -6.191  -1.456 -34.714  1.00  0.00    -0.049 A 
HETATM   11  C   UNL     1      -6.492  -2.777 -35.076  1.00  0.00     0.009 A 
HETATM   12  C   UNL     1      -5.651  -3.828 -34.700  1.00  0.00     0.024 A 
HETATM   13  C   UNL     1      -4.491  -3.563 -33.977  1.00  0.00     0.034 A 
HETATM   14 CL   UNL     1      -3.448  -4.855 -33.527  1.00  0.00    -0.084 Cl
HETATM   15  C   UNL     1      -4.165  -2.257 -33.625  1.00  0.00     0.024 A 
HETATM   16  C   UNL     1      -5.010  -1.207 -33.996  1.00  0.00     0.009 A 
ENDBRANCH   9  10
ENDBRANCH   6   9
ENDBRANCH   2   5
BRANCH   1  17
HETATM   17  C   UNL     1     -11.826   2.942 -33.184  1.00  0.00     0.064 A 
HETATM   18  C   UNL     1     -13.166   2.414 -33.223  1.00  0.00     0.046 A 
HETATM   19  C   UNL     1     -13.844   1.436 -33.981  1.00  0.00     0.130 A 
HETATM   20  C   UNL     1     -13.915   3.092 -32.252  1.00  0.00     0.046 A 
HETATM   21  C   UNL     1     -15.195   1.160 -33.763  1.00  0.00     0.043 A 
HETATM   22  F   UNL     1     -13.203   0.746 -34.934  1.00  0.00    -0.205 F 
HETATM   23  C   UNL     1     -15.901   1.852 -32.786  1.00  0.00     0.005 A 
HETATM   24  C   UNL     1     -15.272   2.832 -32.013  1.00  0.00     0.030 A 
HETATM   25  N   UNL     1     -13.076   3.995 -31.647  1.00  0.00    -0.364 N 
HETATM   26  H   UNL     1     -13.349   4.627 -30.905  1.00  0.00     0.165 HD
HETATM   27  C   UNL     1     -11.830   3.919 -32.198  1.00  0.00     0.106 A 
ENDBRANCH   1  17
TORSDOF 4
ENDMDL
MODEL 2
REMARK VINA RESULT:      -8.8      3.889      8.909
REMARK  4 active torsions:
REMARK  status: ('A' for Active; 'I' for Inactive)
REMARK    1  A    between atoms: C_10  and  C_11 
REMARK       I    between atoms: C_11  and  N_12 
REMARK    2  A    between atoms: N_12  and  N_13 
REMARK       I    between atoms: N_13  and  C_14 
REMARK    3  A    between atoms: C_14  and  C_15 
REMARK    4  A    between atoms: C_15  and  C_16 
ROOT
HETATM    1  C   UNL     1      -5.539   0.214 -32.863  1.00  0.00     0.272 C 
HETATM    2  N   UNL     1      -6.888  -0.060 -32.813  1.00  0.00    -0.263 N 
HETATM    3  O   UNL     1      -5.131   1.349 -33.115  1.00  0.00    -0.266 OA
HETATM    4  H   UNL     1      -7.277  -0.970 -32.573  1.00  0.00     0.190 HD
ENDROOT
BRANCH   2   5
HETATM    5  N   UNL     1      -7.797   0.994 -32.974  1.00  0.00    -0.267 N 
HETATM    6  C   UNL     1      -8.467   1.113 -34.172  1.00  0.00     0.240 C 
HETATM    7  O   UNL     1      -8.267   0.362 -35.127  1.00  0.00    -0.272 OA
HETATM    8  H   UNL     1      -7.898   1.637 -32.191  1.00  0.00     0.190 HD
BRANCH   6   9
HETATM    9  C   UNL     1      -9.475   2.244 -34.217  1.00  0.00     0.143 C 
BRANCH   9  10
HETATM   10  C   UNL     1     -10.921   1.808 -34.300  1.00  0.00    -0.049 A 
HETATM   11  C   UNL     1     -11.401   0.690 -33.602  1.00  0.00     0.009 A 
HETATM   12  C   UNL     1     -12.755   0.345 -33.653  1.00  0.00     0.024 A 
HETATM   13  C   UNL     1     -13.642   1.129 -34.386  1.00  0.00     0.034 A 
HETATM   14 CL   UNL     1     -15.311   0.713 -34.436  1.00  0.00    -0.084 Cl
HETATM   15  C   UNL     1     -13.188   2.253 -35.069  1.00  0.00     0.024 A 
HETATM   16  C   UNL     1     -11.833   2.594 -35.022  1.00  0.00     0.009 A 
ENDBRANCH   9  10
ENDBRANCH   6   9
ENDBRANCH   2   5
BRANCH   1  17
HETATM   17  C   UNL     1      -4.626  -0.904 -32.612  1.00  0.00     0.064 A 
HETATM   18  C   UNL     1      -4.515  -2.213 -33.204  1.00  0.00     0.046 A 
HETATM   19  C   UNL     1      -5.200  -2.927 -34.211  1.00  0.00     0.130 A 
HETATM   20  C   UNL     1      -3.458  -2.875 -32.568  1.00  0.00     0.046 A 
HETATM   21  C   UNL     1      -4.830  -4.229 -34.552  1.00  0.00     0.043 A 
HETATM   22  F   UNL     1      -6.228  -2.369 -34.863  1.00  0.00    -0.205 F 
HETATM   23  C   UNL     1      -3.771  -4.849 -33.900  1.00  0.00     0.005 A 
HETATM   24  C   UNL     1      -3.065  -4.181 -32.894  1.00  0.00     0.030 A 
HETATM   25  N   UNL     1      -2.944  -2.015 -31.628  1.00  0.00    -0.364 N 
HETATM   26  H   UNL     1      -2.169  -2.230 -31.014  1.00  0.00     0.165 HD
HETATM   27  C   UNL     1      -3.636  -0.840 -31.641  1.00  0.00     0.106 A 
ENDBRANCH   1  17
TORSDOF 4
ENDMDL
MODEL 3
REMARK VINA RESULT:      -8.7      3.831      9.091
REMARK  4 active torsions:
REMARK  status: ('A' for Active; 'I' for Inactive)
REMARK    1  A    between atoms: C_10  and  C_11 
REMARK       I    between atoms: C_11  and  N_12 
REMARK    2  A    between atoms: N_12  and  N_13 
REMARK       I    between atoms: N_13  and  C_14 
REMARK    3  A    between atoms: C_14  and  C_15 
REMARK    4  A    between atoms: C_15  and  C_16 
ROOT
HETATM    1  C   UNL     1      -6.957  -0.069 -34.881  1.00  0.00     0.272 C 
HETATM    2  N   UNL     1      -8.113   0.089 -34.148  1.00  0.00    -0.263 N 
HETATM    3  O   UNL     1      -6.852   0.409 -36.011  1.00  0.00    -0.266 OA
HETATM    4  H   UNL     1      -8.238  -0.253 -33.197  1.00  0.00     0.190 HD
ENDROOT
BRANCH   2   5
HETATM    5  N   UNL     1      -9.145   0.875 -34.677  1.00  0.00    -0.267 N 
HETATM    6  C   UNL     1     -10.345   0.933 -34.003  1.00  0.00     0.240 C 
HETATM    7  O   UNL     1     -10.569   0.287 -32.980  1.00  0.00    -0.272 OA
HETATM    8  H   UNL     1      -8.955   1.351 -35.557  1.00  0.00     0.190 HD
BRANCH   6   9
HETATM    9  C   UNL     1     -11.369   1.864 -34.623  1.00  0.00     0.143 C 
BRANCH   9  10
HETATM   10  C   UNL     1     -12.685   1.950 -33.884  1.00  0.00    -0.049 A 
HETATM   11  C   UNL     1     -12.913   2.906 -32.883  1.00  0.00     0.009 A 
HETATM   12  C   UNL     1     -14.160   2.998 -32.257  1.00  0.00     0.024 A 
HETATM   13  C   UNL     1     -15.194   2.150 -32.643  1.00  0.00     0.034 A 
HETATM   14 CL   UNL     1     -16.732   2.274 -31.884  1.00  0.00    -0.084 Cl
HETATM   15  C   UNL     1     -14.993   1.209 -33.649  1.00  0.00     0.024 A 
HETATM   16  C   UNL     1     -13.744   1.113 -34.270  1.00  0.00     0.009 A 
ENDBRANCH   9  10
ENDBRANCH   6   9
ENDBRANCH   2   5
BRANCH   1  17
HETATM   17  C   UNL     1      -5.876  -0.834 -34.255  1.00  0.00     0.064 A 
HETATM   18  C   UNL     1      -5.537  -2.234 -34.290  1.00  0.00     0.046 A 
HETATM   19  C   UNL     1      -6.073  -3.388 -34.901  1.00  0.00     0.130 A 
HETATM   20  C   UNL     1      -4.396  -2.411 -33.496  1.00  0.00     0.046 A 
HETATM   21  C   UNL     1      -5.484  -4.641 -34.721  1.00  0.00     0.043 A 
HETATM   22  F   UNL     1      -7.165  -3.307 -35.671  1.00  0.00    -0.205 F 
HETATM   23  C   UNL     1      -4.349  -4.773 -33.929  1.00  0.00     0.005 A 
HETATM   24  C   UNL     1      -3.785  -3.659 -33.302  1.00  0.00     0.030 A 
HETATM   25  N   UNL     1      -4.052  -1.180 -32.996  1.00  0.00    -0.364 N 
HETATM   26  H   UNL     1      -3.265  -1.007 -32.384  1.00  0.00     0.165 HD
HETATM   27  C   UNL     1      -4.930  -0.234 -33.436  1.00  0.00     0.106 A 
ENDBRANCH   1  17
TORSDOF 4
ENDMDL
MODEL 4
REMARK VINA RESULT:      -8.5      7.291      9.946
REMARK  4 active torsions:
REMARK  status: ('A' for Active; 'I' for Inactive)
REMARK    1  A    between atoms: C_10  and  C_11 
REMARK       I    between atoms: C_11  and  N_12 
REMARK    2  A    between atoms: N_12  and  N_13 
REMARK       I    between atoms: N_13  and  C_14 
REMARK    3  A    between atoms: C_14  and  C_15 
REMARK    4  A    between atoms: C_15  and  C_16 
ROOT
HETATM    1  C   UNL     1      -4.251   1.643 -31.743  1.00  0.00     0.272 C 
HETATM    2  N   UNL     1      -3.069   2.324 -31.549  1.00  0.00    -0.263 N 
HETATM    3  O   UNL     1      -5.337   2.189 -31.545  1.00  0.00    -0.266 OA
HETATM    4  H   UNL     1      -2.147   1.931 -31.734  1.00  0.00     0.190 HD
ENDROOT
BRANCH   2   5
HETATM    5  N   UNL     1      -3.121   3.679 -31.199  1.00  0.00    -0.267 N 
HETATM    6  C   UNL     1      -2.650   4.613 -32.096  1.00  0.00     0.240 C 
HETATM    7  O   UNL     1      -2.141   4.307 -33.174  1.00  0.00    -0.272 OA
HETATM    8  H   UNL     1      -3.489   3.901 -30.276  1.00  0.00     0.190 HD
BRANCH   6   9
HETATM    9  C   UNL     1      -2.814   6.052 -31.647  1.00  0.00     0.143 C 
BRANCH   9  10
HETATM   10  C   UNL     1      -1.731   6.560 -30.723  1.00  0.00    -0.049 A 
HETATM   11  C   UNL     1      -0.377   6.550 -31.089  1.00  0.00     0.009 A 
HETATM   12  C   UNL     1       0.596   7.080 -30.237  1.00  0.00     0.024 A 
HETATM   13  C   UNL     1       0.219   7.643 -29.021  1.00  0.00     0.034 A 
HETATM   14 CL   UNL     1       1.415   8.309 -27.978  1.00  0.00    -0.084 Cl
HETATM   15  C   UNL     1      -1.121   7.681 -28.648  1.00  0.00     0.024 A 
HETATM   16  C   UNL     1      -2.093   7.145 -29.499  1.00  0.00     0.009 A 
ENDBRANCH   9  10
ENDBRANCH   6   9
ENDBRANCH   2   5
BRANCH   1  17
HETATM   17  C   UNL     1      -4.148   0.250 -32.184  1.00  0.00     0.064 A 
HETATM   18  C   UNL     1      -4.881  -0.510 -33.164  1.00  0.00     0.046 A 
HETATM   19  C   UNL     1      -5.944  -0.251 -34.055  1.00  0.00     0.130 A 
HETATM   20  C   UNL     1      -4.358  -1.810 -33.167  1.00  0.00     0.046 A 
HETATM   21  C   UNL     1      -6.441  -1.247 -34.898  1.00  0.00     0.043 A 
HETATM   22  F   UNL     1      -6.505   0.964 -34.111  1.00  0.00    -0.205 F 
HETATM   23  C   UNL     1      -5.890  -2.522 -34.873  1.00  0.00     0.005 A 
HETATM   24  C   UNL     1      -4.838  -2.827 -34.005  1.00  0.00     0.030 A 
HETATM   25  N   UNL     1      -3.353  -1.848 -32.231  1.00  0.00    -0.364 N 
HETATM   26  H   UNL     1      -2.798  -2.666 -32.015  1.00  0.00     0.165 HD
HETATM   27  C   UNL     1      -3.224  -0.628 -31.635  1.00  0.00     0.106 A 
ENDBRANCH   1  17
TORSDOF 4
ENDMDL
MODEL 5
REMARK VINA RESULT:      -8.3      7.691      9.816
REMARK  4 active torsions:
REMARK  status: ('A' for Active; 'I' for Inactive)
REMARK    1  A    between atoms: C_10  and  C_11 
REMARK       I    between atoms: C_11  and  N_12 
REMARK    2  A    between atoms: N_12  and  N_13 
REMARK       I    between atoms: N_13  and  C_14 
REMARK    3  A    between atoms: C_14  and  C_15 
REMARK    4  A    between atoms: C_15  and  C_16 
ROOT
HETATM    1  C   UNL     1      -3.559   2.910 -32.261  1.00  0.00     0.272 C 
HETATM    2  N   UNL     1      -3.303   3.912 -33.171  1.00  0.00    -0.263 N 
HETATM    3  O   UNL     1      -2.773   2.672 -31.342  1.00  0.00    -0.266 OA
HETATM    4  H   UNL     1      -3.936   4.174 -33.925  1.00  0.00     0.190 HD
ENDROOT
BRANCH   2   5
HETATM    5  N   UNL     1      -2.169   4.715 -32.991  1.00  0.00    -0.267 N 
HETATM    6  C   UNL     1      -2.141   5.962 -33.577  1.00  0.00     0.240 C 
HETATM    7  O   UNL     1      -3.048   6.385 -34.292  1.00  0.00    -0.272 OA
HETATM    8  H   UNL     1      -1.406   4.317 -32.447  1.00  0.00     0.190 HD
BRANCH   6   9
HETATM    9  C   UNL     1      -0.899   6.774 -33.263  1.00  0.00     0.143 C 
BRANCH   9  10
HETATM   10  C   UNL     1      -0.783   7.233 -31.827  1.00  0.00    -0.049 A 
HETATM   11  C   UNL     1      -1.775   8.013 -31.214  1.00  0.00     0.009 A 
HETATM   12  C   UNL     1      -1.667   8.374 -29.868  1.00  0.00     0.024 A 
HETATM   13  C   UNL     1      -0.575   7.941 -29.119  1.00  0.00     0.034 A 
HETATM   14 CL   UNL     1      -0.450   8.373 -27.459  1.00  0.00    -0.084 Cl
HETATM   15  C   UNL     1       0.409   7.151 -29.705  1.00  0.00     0.024 A 
HETATM   16  C   UNL     1       0.303   6.794 -31.053  1.00  0.00     0.009 A 
ENDBRANCH   9  10
ENDBRANCH   6   9
ENDBRANCH   2   5
BRANCH   1  17
HETATM   17  C   UNL     1      -4.796   2.148 -32.445  1.00  0.00     0.064 A 
HETATM   18  C   UNL     1      -5.042   0.798 -32.884  1.00  0.00     0.046 A 
HETATM   19  C   UNL     1      -4.246  -0.290 -33.301  1.00  0.00     0.130 A 
HETATM   20  C   UNL     1      -6.429   0.599 -32.878  1.00  0.00     0.046 A 
HETATM   21  C   UNL     1      -4.821  -1.504 -33.681  1.00  0.00     0.043 A 
HETATM   22  F   UNL     1      -2.912  -0.182 -33.343  1.00  0.00    -0.205 F 
HETATM   23  C   UNL     1      -6.202  -1.661 -33.654  1.00  0.00     0.005 A 
HETATM   24  C   UNL     1      -7.031  -0.611 -33.252  1.00  0.00     0.030 A 
HETATM   25  N   UNL     1      -7.008   1.772 -32.456  1.00  0.00    -0.364 N 
HETATM   26  H   UNL     1      -8.003   1.919 -32.357  1.00  0.00     0.165 HD
HETATM   27  C   UNL     1      -6.044   2.703 -32.202  1.00  0.00     0.106 A 
ENDBRANCH   1  17
TORSDOF 4
ENDMDL
MODEL 6
REMARK VINA RESULT:      -8.2      5.768      8.082
REMARK  4 active torsions:
REMARK  status: ('A' for Active; 'I' for Inactive)
REMARK    1  A    between atoms: C_10  and  C_11 
REMARK       I    between atoms: C_11  and  N_12 
REMARK    2  A    between atoms: N_12  and  N_13 
REMARK       I    between atoms: N_13  and  C_14 
REMARK    3  A    between atoms: C_14  and  C_15 
REMARK    4  A    between atoms: C_15  and  C_16 
ROOT
HETATM    1  C   UNL     1      -4.311   2.946 -32.563  1.00  0.00     0.272 C 
HETATM    2  N   UNL     1      -5.591   2.926 -33.073  1.00  0.00    -0.263 N 
HETATM    3  O   UNL     1      -3.584   1.954 -32.637  1.00  0.00    -0.266 OA
HETATM    4  H   UNL     1      -6.219   3.729 -33.071  1.00  0.00     0.190 HD
ENDROOT
BRANCH   2   5
HETATM    5  N   UNL     1      -6.030   1.782 -33.752  1.00  0.00    -0.267 N 
HETATM    6  C   UNL     1      -6.796   0.861 -33.071  1.00  0.00     0.240 C 
HETATM    7  O   UNL     1      -7.072   0.973 -31.877  1.00  0.00    -0.272 OA
HETATM    8  H   UNL     1      -5.736   1.683 -34.722  1.00  0.00     0.190 HD
BRANCH   6   9
HETATM    9  C   UNL     1      -7.274  -0.304 -33.917  1.00  0.00     0.143 C 
BRANCH   9  10
HETATM   10  C   UNL     1      -6.340  -1.492 -33.954  1.00  0.00    -0.049 A 
HETATM   11  C   UNL     1      -6.687  -2.689 -34.597  1.00  0.00     0.009 A 
HETATM   12  C   UNL     1      -5.779  -3.750 -34.665  1.00  0.00     0.024 A 
HETATM   13  C   UNL     1      -4.510  -3.614 -34.108  1.00  0.00     0.034 A 
HETATM   14 CL   UNL     1      -3.388  -4.914 -34.205  1.00  0.00    -0.084 Cl
HETATM   15  C   UNL     1      -4.141  -2.426 -33.483  1.00  0.00     0.024 A 
HETATM   16  C   UNL     1      -5.051  -1.368 -33.411  1.00  0.00     0.009 A 
ENDBRANCH   9  10
ENDBRANCH   6   9
ENDBRANCH   2   5
BRANCH   1  17
HETATM   17  C   UNL     1      -3.870   4.190 -31.930  1.00  0.00     0.064 A 
HETATM   18  C   UNL     1      -2.874   5.163 -32.301  1.00  0.00     0.046 A 
HETATM   19  C   UNL     1      -1.957   5.316 -33.363  1.00  0.00     0.130 A 
HETATM   20  C   UNL     1      -2.870   6.159 -31.315  1.00  0.00     0.046 A 
HETATM   21  C   UNL     1      -1.097   6.414 -33.424  1.00  0.00     0.043 A 
HETATM   22  F   UNL     1      -1.892   4.406 -34.343  1.00  0.00    -0.205 F 
HETATM   23  C   UNL     1      -1.129   7.382 -32.428  1.00  0.00     0.005 A 
HETATM   24  C   UNL     1      -2.017   7.272 -31.354  1.00  0.00     0.030 A 
HETATM   25  N   UNL     1      -3.817   5.814 -30.382  1.00  0.00    -0.364 N 
HETATM   26  H   UNL     1      -4.031   6.352 -29.553  1.00  0.00     0.165 HD
HETATM   27  C   UNL     1      -4.414   4.639 -30.735  1.00  0.00     0.106 A 
ENDBRANCH   1  17
TORSDOF 4
ENDMDL
MODEL 7
REMARK VINA RESULT:      -8.0      6.861      9.041
REMARK  4 active torsions:
REMARK  status: ('A' for Active; 'I' for Inactive)
REMARK    1  A    between atoms: C_10  and  C_11 
REMARK       I    between atoms: C_11  and  N_12 
REMARK    2  A    between atoms: N_12  and  N_13 
REMARK       I    between atoms: N_13  and  C_14 
REMARK    3  A    between atoms: C_14  and  C_15 
REMARK    4  A    between atoms: C_15  and  C_16 
ROOT
HETATM    1  C   UNL     1      -4.085   4.647 -31.998  1.00  0.00     0.272 C 
HETATM    2  N   UNL     1      -3.784   3.305 -31.924  1.00  0.00    -0.263 N 
HETATM    3  O   UNL     1      -4.850   5.079 -32.862  1.00  0.00    -0.266 OA
HETATM    4  H   UNL     1      -3.188   2.892 -31.207  1.00  0.00     0.190 HD
ENDROOT
BRANCH   2   5
HETATM    5  N   UNL     1      -4.427   2.419 -32.799  1.00  0.00    -0.267 N 
HETATM    6  C   UNL     1      -5.439   1.623 -32.308  1.00  0.00     0.240 C 
HETATM    7  O   UNL     1      -5.772   1.619 -31.124  1.00  0.00    -0.272 OA
HETATM    8  H   UNL     1      -4.090   2.398 -33.759  1.00  0.00     0.190 HD
BRANCH   6   9
HETATM    9  C   UNL     1      -6.112   0.752 -33.352  1.00  0.00     0.143 C 
BRANCH   9  10
HETATM   10  C   UNL     1      -5.470  -0.599 -33.566  1.00  0.00    -0.049 A 
HETATM   11  C   UNL     1      -4.392  -1.042 -32.786  1.00  0.00     0.009 A 
HETATM   12  C   UNL     1      -3.857  -2.320 -32.969  1.00  0.00     0.024 A 
HETATM   13  C   UNL     1      -4.409  -3.173 -33.921  1.00  0.00     0.034 A 
HETATM   14 CL   UNL     1      -3.760  -4.752 -34.136  1.00  0.00    -0.084 Cl
HETATM   15  C   UNL     1      -5.492  -2.759 -34.692  1.00  0.00     0.024 A 
HETATM   16  C   UNL     1      -6.023  -1.479 -34.511  1.00  0.00     0.009 A 
ENDBRANCH   9  10
ENDBRANCH   6   9
ENDBRANCH   2   5
BRANCH   1  17
HETATM   17  C   UNL     1      -3.447   5.524 -31.013  1.00  0.00     0.064 A 
HETATM   18  C   UNL     1      -2.083   5.955 -30.842  1.00  0.00     0.046 A 
HETATM   19  C   UNL     1      -0.860   5.725 -31.508  1.00  0.00     0.130 A 
HETATM   20  C   UNL     1      -2.043   6.794 -29.720  1.00  0.00     0.046 A 
HETATM   21  C   UNL     1       0.326   6.313 -31.065  1.00  0.00     0.043 A 
HETATM   22  F   UNL     1      -0.810   4.930 -32.585  1.00  0.00    -0.205 F 
HETATM   23  C   UNL     1       0.321   7.143 -29.951  1.00  0.00     0.005 A 
HETATM   24  C   UNL     1      -0.865   7.398 -29.257  1.00  0.00     0.030 A 
HETATM   25  N   UNL     1      -3.322   6.873 -29.224  1.00  0.00    -0.364 N 
HETATM   26  H   UNL     1      -3.591   7.410 -28.411  1.00  0.00     0.165 HD
HETATM   27  C   UNL     1      -4.165   6.116 -29.983  1.00  0.00     0.106 A 
ENDBRANCH   1  17
TORSDOF 4
ENDMDL
MODEL 8
REMARK VINA RESULT:      -7.8      7.491      8.738
REMARK  4 active torsions:
REMARK  status: ('A' for Active; 'I' for Inactive)
REMARK    1  A    between atoms: C_10  and  C_11 
REMARK       I    between atoms: C_11  and  N_12 
REMARK    2  A    between atoms: N_12  and  N_13 
REMARK       I    between atoms: N_13  and  C_14 
REMARK    3  A    between atoms: C_14  and  C_15 
REMARK    4  A    between atoms: C_15  and  C_16 
ROOT
HETATM    1  C   UNL     1      -5.501   4.152 -31.562  1.00  0.00     0.272 C 
HETATM    2  N   UNL     1      -4.395   4.002 -30.754  1.00  0.00    -0.263 N 
HETATM    3  O   UNL     1      -5.591   5.101 -32.342  1.00  0.00    -0.266 OA
HETATM    4  H   UNL     1      -4.255   3.217 -30.119  1.00  0.00     0.190 HD
ENDROOT
BRANCH   2   5
HETATM    5  N   UNL     1      -3.332   4.904 -30.889  1.00  0.00    -0.267 N 
HETATM    6  C   UNL     1      -2.295   4.581 -31.738  1.00  0.00     0.240 C 
HETATM    7  O   UNL     1      -2.237   3.514 -32.347  1.00  0.00    -0.272 OA
HETATM    8  H   UNL     1      -3.375   5.751 -30.327  1.00  0.00     0.190 HD
BRANCH   6   9
HETATM    9  C   UNL     1      -1.231   5.655 -31.862  1.00  0.00     0.143 C 
BRANCH   9  10
HETATM   10  C   UNL     1      -0.582   6.065 -30.560  1.00  0.00    -0.049 A 
HETATM   11  C   UNL     1       0.184   5.171 -29.798  1.00  0.00     0.009 A 
HETATM   12  C   UNL     1       0.819   5.595 -28.627  1.00  0.00     0.024 A 
HETATM   13  C   UNL     1       0.711   6.923 -28.222  1.00  0.00     0.034 A 
HETATM   14 CL   UNL     1       1.505   7.448 -26.789  1.00  0.00    -0.084 Cl
HETATM   15  C   UNL     1      -0.029   7.830 -28.975  1.00  0.00     0.024 A 
HETATM   16  C   UNL     1      -0.669   7.403 -30.143  1.00  0.00     0.009 A 
ENDBRANCH   9  10
ENDBRANCH   6   9
ENDBRANCH   2   5
BRANCH   1  17
HETATM   17  C   UNL     1      -6.554   3.141 -31.440  1.00  0.00     0.064 A 
HETATM   18  C   UNL     1      -7.170   2.266 -32.404  1.00  0.00     0.046 A 
HETATM   19  C   UNL     1      -7.031   2.031 -33.789  1.00  0.00     0.130 A 
HETATM   20  C   UNL     1      -8.132   1.504 -31.728  1.00  0.00     0.046 A 
HETATM   21  C   UNL     1      -7.816   1.080 -34.444  1.00  0.00     0.043 A 
HETATM   22  F   UNL     1      -6.139   2.721 -34.511  1.00  0.00    -0.205 F 
HETATM   23  C   UNL     1      -8.756   0.342 -33.735  1.00  0.00     0.005 A 
HETATM   24  C   UNL     1      -8.931   0.542 -32.362  1.00  0.00     0.030 A 
HETATM   25  N   UNL     1      -8.110   1.894 -30.411  1.00  0.00    -0.364 N 
HETATM   26  H   UNL     1      -8.705   1.513 -29.688  1.00  0.00     0.165 HD
HETATM   27  C   UNL     1      -7.178   2.873 -30.229  1.00  0.00     0.106 A 
ENDBRANCH   1  17
TORSDOF 4
ENDMDL
MODEL 9
REMARK VINA RESULT:      -7.8      6.562      9.169
REMARK  4 active torsions:
REMARK  status: ('A' for Active; 'I' for Inactive)
REMARK    1  A    between atoms: C_10  and  C_11 
REMARK       I    between atoms: C_11  and  N_12 
REMARK    2  A    between atoms: N_12  and  N_13 
REMARK       I    between atoms: N_13  and  C_14 
REMARK    3  A    between atoms: C_14  and  C_15 
REMARK    4  A    between atoms: C_15  and  C_16 
ROOT
HETATM    1  C   UNL     1      -3.671   4.799 -33.824  1.00  0.00     0.272 C 
HETATM    2  N   UNL     1      -4.030   3.803 -32.942  1.00  0.00    -0.263 N 
HETATM    3  O   UNL     1      -4.243   4.921 -34.909  1.00  0.00    -0.266 OA
HETATM    4  H   UNL     1      -3.616   3.681 -32.019  1.00  0.00     0.190 HD
ENDROOT
BRANCH   2   5
HETATM    5  N   UNL     1      -5.115   2.975 -33.262  1.00  0.00    -0.267 N 
HETATM    6  C   UNL     1      -5.538   2.050 -32.333  1.00  0.00     0.240 C 
HETATM    7  O   UNL     1      -4.975   1.884 -31.251  1.00  0.00    -0.272 OA
HETATM    8  H   UNL     1      -5.522   3.091 -34.188  1.00  0.00     0.190 HD
BRANCH   6   9
HETATM    9  C   UNL     1      -6.759   1.255 -32.752  1.00  0.00     0.143 C 
BRANCH   9  10
HETATM   10  C   UNL     1      -6.467  -0.130 -33.285  1.00  0.00    -0.049 A 
HETATM   11  C   UNL     1      -7.477  -0.956 -33.799  1.00  0.00     0.009 A 
HETATM   12  C   UNL     1      -7.168  -2.209 -34.338  1.00  0.00     0.024 A 
HETATM   13  C   UNL     1      -5.843  -2.635 -34.386  1.00  0.00     0.034 A 
HETATM   14 CL   UNL     1      -5.461  -4.169 -35.062  1.00  0.00    -0.084 Cl
HETATM   15  C   UNL     1      -4.825  -1.820 -33.899  1.00  0.00     0.024 A 
HETATM   16  C   UNL     1      -5.135  -0.571 -33.355  1.00  0.00     0.009 A 
ENDBRANCH   9  10
ENDBRANCH   6   9
ENDBRANCH   2   5
BRANCH   1  17
HETATM   17  C   UNL     1      -2.583   5.688 -33.412  1.00  0.00     0.064 A 
HETATM   18  C   UNL     1      -1.637   5.619 -32.327  1.00  0.00     0.046 A 
HETATM   19  C   UNL     1      -1.380   4.725 -31.265  1.00  0.00     0.130 A 
HETATM   20  C   UNL     1      -0.818   6.753 -32.410  1.00  0.00     0.046 A 
HETATM   21  C   UNL     1      -0.354   4.964 -30.350  1.00  0.00     0.043 A 
HETATM   22  F   UNL     1      -2.122   3.621 -31.111  1.00  0.00    -0.205 F 
HETATM   23  C   UNL     1       0.439   6.099 -30.471  1.00  0.00     0.005 A 
HETATM   24  C   UNL     1       0.220   7.015 -31.504  1.00  0.00     0.030 A 
HETATM   25  N   UNL     1      -1.241   7.484 -33.493  1.00  0.00    -0.364 N 
HETATM   26  H   UNL     1      -0.831   8.359 -33.792  1.00  0.00     0.165 HD
HETATM   27  C   UNL     1      -2.296   6.862 -34.094  1.00  0.00     0.106 A 
ENDBRANCH   1  17
TORSDOF 4
ENDMDL
MODEL 10
REMARK VINA RESULT:      -7.7      8.736     10.502
REMARK  4 active torsions:
REMARK  status: ('A' for Active; 'I' for Inactive)
REMARK    1  A    between atoms: C_10  and  C_11 
REMARK       I    between atoms: C_11  and  N_12 
REMARK    2  A    between atoms: N_12  and  N_13 
REMARK       I    between atoms: N_13  and  C_14 
REMARK    3  A    between atoms: C_14  and  C_15 
REMARK    4  A    between atoms: C_15  and  C_16 
ROOT
HETATM    1  C   UNL     1      -4.948   4.380 -31.035  1.00  0.00     0.272 C 
HETATM    2  N   UNL     1      -3.643   4.434 -30.597  1.00  0.00    -0.263 N 
HETATM    3  O   UNL     1      -5.526   5.392 -31.433  1.00  0.00    -0.266 OA
HETATM    4  H   UNL     1      -3.108   3.622 -30.294  1.00  0.00     0.190 HD
ENDROOT
BRANCH   2   5
HETATM    5  N   UNL     1      -2.951   5.649 -30.686  1.00  0.00    -0.267 N 
HETATM    6  C   UNL     1      -1.611   5.626 -31.004  1.00  0.00     0.240 C 
HETATM    7  O   UNL     1      -0.981   4.582 -31.168  1.00  0.00    -0.272 OA
HETATM    8  H   UNL     1      -3.481   6.495 -30.485  1.00  0.00     0.190 HD
BRANCH   6   9
HETATM    9  C   UNL     1      -0.975   6.996 -31.141  1.00  0.00     0.143 C 
BRANCH   9  10
HETATM   10  C   UNL     1      -0.566   7.643 -29.837  1.00  0.00    -0.049 A 
HETATM   11  C   UNL     1       0.677   7.388 -29.240  1.00  0.00     0.009 A 
HETATM   12  C   UNL     1       1.051   8.046 -28.064  1.00  0.00     0.024 A 
HETATM   13  C   UNL     1       0.192   8.979 -27.489  1.00  0.00     0.034 A 
HETATM   14 CL   UNL     1       0.659   9.799 -26.050  1.00  0.00    -0.084 Cl
HETATM   15  C   UNL     1      -1.037   9.259 -28.077  1.00  0.00     0.024 A 
HETATM   16  C   UNL     1      -1.413   8.597 -29.250  1.00  0.00     0.009 A 
ENDBRANCH   9  10
ENDBRANCH   6   9
ENDBRANCH   2   5
BRANCH   1  17
HETATM   17  C   UNL     1      -5.606   3.071 -30.996  1.00  0.00     0.064 A 
HETATM   18  C   UNL     1      -5.251   1.794 -31.560  1.00  0.00     0.046 A 
HETATM   19  C   UNL     1      -4.189   1.296 -32.346  1.00  0.00     0.130 A 
HETATM   20  C   UNL     1      -6.257   0.884 -31.208  1.00  0.00     0.046 A 
HETATM   21  C   UNL     1      -4.149  -0.042 -32.743  1.00  0.00     0.043 A 
HETATM   22  F   UNL     1      -3.191   2.101 -32.731  1.00  0.00    -0.205 F 
HETATM   23  C   UNL     1      -5.164  -0.913 -32.367  1.00  0.00     0.005 A 
HETATM   24  C   UNL     1      -6.238  -0.464 -31.593  1.00  0.00     0.030 A 
HETATM   25  N   UNL     1      -7.186   1.570 -30.464  1.00  0.00    -0.364 N 
HETATM   26  H   UNL     1      -8.026   1.163 -30.076  1.00  0.00     0.165 HD
HETATM   27  C   UNL     1      -6.811   2.875 -30.337  1.00  0.00     0.106 A 
ENDBRANCH   1  17
TORSDOF 4
ENDMDL
