MODEL 1
REMARK VINA RESULT:      -8.4      0.000      0.000
REMARK  4 active torsions:
REMARK  status: ('A' for Active; 'I' for Inactive)
REMARK    1  A    between atoms: O_2  and  C_3 
REMARK    2  A    between atoms: C_7  and  N_8 
REMARK       I    between atoms: N_8  and  C_9 
REMARK    3  A    between atoms: C_9  and  C_10 
REMARK    4  A    between atoms: C_12  and  C_13 
ROOT
HETATM    1  N   UNL     1      -4.579   2.872 -32.948  1.00  0.00    -0.323 N 
HETATM    2  C   UNL     1      -4.741   1.554 -32.553  1.00  0.00     0.256 C 
HETATM    3  O   UNL     1      -4.231   1.021 -31.575  1.00  0.00    -0.267 OA
HETATM    4  H   UNL     1      -4.965   3.133 -33.844  1.00  0.00     0.169 HD
ENDROOT
BRANCH   2   5
HETATM    5  C   UNL     1      -5.602   0.720 -33.442  1.00  0.00     0.033 A 
HETATM    6  C   UNL     1      -5.309  -0.648 -33.554  1.00  0.00     0.029 A 
HETATM    7  C   UNL     1      -6.093  -1.486 -34.359  1.00  0.00    -0.023 A 
HETATM    8  C   UNL     1      -7.175  -0.931 -35.056  1.00  0.00     0.012 A 
HETATM    9  C   UNL     1      -7.482   0.427 -34.935  1.00  0.00     0.002 A 
HETATM   10  C   UNL     1      -6.704   1.252 -34.123  1.00  0.00     0.017 A 
BRANCH   7  11
HETATM   11  C   UNL     1      -5.803  -2.906 -34.477  1.00  0.00    -0.002 A 
HETATM   12  C   UNL     1      -6.691  -3.852 -34.952  1.00  0.00     0.153 A 
HETATM   13  O   UNL     1      -6.127  -5.087 -34.960  1.00  0.00    -0.334 OA
HETATM   14  C   UNL     1      -4.861  -4.945 -34.493  1.00  0.00     0.142 A 
HETATM   15  C   UNL     1      -4.609  -3.628 -34.187  1.00  0.00     0.038 A 
ENDBRANCH   7  11
ENDBRANCH   2   5
BRANCH   1  16
HETATM   16  C   UNL     1      -3.874   3.885 -32.262  1.00  0.00     0.041 A 
HETATM   17  C   UNL     1      -4.446   4.740 -31.323  1.00  0.00     0.074 A 
HETATM   18  C   UNL     1      -3.670   5.725 -30.707  1.00  0.00     0.155 A 
HETATM   19  C   UNL     1      -2.316   5.896 -31.005  1.00  0.00     0.145 A 
HETATM   20  F   UNL     1      -4.261   6.527 -29.807  1.00  0.00    -0.203 F 
HETATM   21  C   UNL     1      -1.755   5.033 -31.944  1.00  0.00     0.155 A 
HETATM   22  C   UNL     1      -2.518   4.040 -32.565  1.00  0.00     0.074 A 
HETATM   23  F   UNL     1      -0.463   5.118 -32.292  1.00  0.00    -0.203 F 
BRANCH  19  24
HETATM   24  O   UNL     1      -1.687   6.905 -30.331  1.00  0.00    -0.350 OA
HETATM   25  C   UNL     1      -0.835   6.542 -29.253  1.00  0.00     0.210 C 
ENDBRANCH  19  24
ENDBRANCH   1  16
TORSDOF 4
ENDMDL
MODEL 2
REMARK VINA RESULT:      -8.3      0.186      1.689
REMARK  4 active torsions:
REMARK  status: ('A' for Active; 'I' for Inactive)
REMARK    1  A    between atoms: O_2  and  C_3 
REMARK    2  A    between atoms: C_7  and  N_8 
REMARK       I    between atoms: N_8  and  C_9 
REMARK    3  A    between atoms: C_9  and  C_10 
REMARK    4  A    between atoms: C_12  and  C_13 
ROOT
HETATM    1  N   UNL     1      -4.422   2.936 -33.053  1.00  0.00    -0.323 N 
HETATM    2  C   UNL     1      -4.737   1.680 -32.560  1.00  0.00     0.256 C 
HETATM    3  O   UNL     1      -4.348   1.196 -31.504  1.00  0.00    -0.267 OA
HETATM    4  H   UNL     1      -4.719   3.147 -33.995  1.00  0.00     0.169 HD
ENDROOT
BRANCH   2   5
HETATM    5  C   UNL     1      -5.610   0.847 -33.438  1.00  0.00     0.033 A 
HETATM    6  C   UNL     1      -5.326  -0.522 -33.548  1.00  0.00     0.029 A 
HETATM    7  C   UNL     1      -6.122  -1.359 -34.343  1.00  0.00    -0.023 A 
HETATM    8  C   UNL     1      -7.207  -0.800 -35.031  1.00  0.00     0.012 A 
HETATM    9  C   UNL     1      -7.505   0.560 -34.913  1.00  0.00     0.002 A 
HETATM   10  C   UNL     1      -6.716   1.384 -34.111  1.00  0.00     0.017 A 
BRANCH   7  11
HETATM   11  C   UNL     1      -5.840  -2.781 -34.458  1.00  0.00    -0.002 A 
HETATM   12  C   UNL     1      -6.762  -3.734 -34.848  1.00  0.00     0.153 A 
HETATM   13  O   UNL     1      -6.199  -4.970 -34.878  1.00  0.00    -0.334 OA
HETATM   14  C   UNL     1      -4.902  -4.820 -34.511  1.00  0.00     0.142 A 
HETATM   15  C   UNL     1      -4.628  -3.499 -34.248  1.00  0.00     0.038 A 
ENDBRANCH   7  11
ENDBRANCH   2   5
BRANCH   1  16
HETATM   16  C   UNL     1      -3.672   3.941 -32.404  1.00  0.00     0.041 A 
HETATM   17  C   UNL     1      -2.306   4.140 -32.584  1.00  0.00     0.074 A 
HETATM   18  C   UNL     1      -1.646   5.154 -31.885  1.00  0.00     0.155 A 
HETATM   19  C   UNL     1      -2.314   5.990 -30.987  1.00  0.00     0.145 A 
HETATM   20  F   UNL     1      -0.328   5.312 -32.088  1.00  0.00    -0.203 F 
HETATM   21  C   UNL     1      -3.681   5.783 -30.817  1.00  0.00     0.155 A 
HETATM   22  C   UNL     1      -4.355   4.775 -31.514  1.00  0.00     0.074 A 
HETATM   23  F   UNL     1      -4.407   6.537 -29.980  1.00  0.00    -0.203 F 
BRANCH  19  24
HETATM   24  O   UNL     1      -1.538   6.931 -30.369  1.00  0.00    -0.350 OA
HETATM   25  C   UNL     1      -1.089   6.647 -29.051  1.00  0.00     0.210 C 
ENDBRANCH  19  24
ENDBRANCH   1  16
TORSDOF 4
ENDMDL
MODEL 3
REMARK VINA RESULT:      -8.2      5.556      8.115
REMARK  4 active torsions:
REMARK  status: ('A' for Active; 'I' for Inactive)
REMARK    1  A    between atoms: O_2  and  C_3 
REMARK    2  A    between atoms: C_7  and  N_8 
REMARK       I    between atoms: N_8  and  C_9 
REMARK    3  A    between atoms: C_9  and  C_10 
REMARK    4  A    between atoms: C_12  and  C_13 
ROOT
HETATM    1  N   UNL     1      -9.793   0.933 -33.598  1.00  0.00    -0.323 N 
HETATM    2  C   UNL     1      -8.890   1.061 -32.555  1.00  0.00     0.256 C 
HETATM    3  O   UNL     1      -9.123   1.530 -31.448  1.00  0.00    -0.267 OA
HETATM    4  H   UNL     1      -9.423   0.640 -34.492  1.00  0.00     0.169 HD
ENDROOT
BRANCH   2   5
HETATM    5  C   UNL     1      -7.500   0.606 -32.851  1.00  0.00     0.033 A 
HETATM    6  C   UNL     1      -7.323  -0.684 -33.374  1.00  0.00     0.029 A 
HETATM    7  C   UNL     1      -6.043  -1.162 -33.689  1.00  0.00    -0.023 A 
HETATM    8  C   UNL     1      -4.940  -0.326 -33.468  1.00  0.00     0.012 A 
HETATM    9  C   UNL     1      -5.111   0.966 -32.964  1.00  0.00     0.002 A 
HETATM   10  C   UNL     1      -6.389   1.438 -32.663  1.00  0.00     0.017 A 
BRANCH   7  11
HETATM   11  C   UNL     1      -5.849  -2.494 -34.238  1.00  0.00    -0.002 A 
HETATM   12  C   UNL     1      -4.637  -3.157 -34.277  1.00  0.00     0.153 A 
HETATM   13  O   UNL     1      -4.776  -4.390 -34.830  1.00  0.00    -0.334 OA
HETATM   14  C   UNL     1      -6.087  -4.533 -35.149  1.00  0.00     0.142 A 
HETATM   15  C   UNL     1      -6.790  -3.403 -34.802  1.00  0.00     0.038 A 
ENDBRANCH   7  11
ENDBRANCH   2   5
BRANCH   1  16
HETATM   16  C   UNL     1     -11.174   1.225 -33.570  1.00  0.00     0.041 A 
HETATM   17  C   UNL     1     -11.703   2.514 -33.556  1.00  0.00     0.074 A 
HETATM   18  C   UNL     1     -13.086   2.704 -33.512  1.00  0.00     0.155 A 
HETATM   19  C   UNL     1     -13.980   1.631 -33.472  1.00  0.00     0.145 A 
HETATM   20  F   UNL     1     -13.554   3.962 -33.501  1.00  0.00    -0.203 F 
HETATM   21  C   UNL     1     -13.440   0.348 -33.489  1.00  0.00     0.155 A 
HETATM   22  C   UNL     1     -12.057   0.142 -33.538  1.00  0.00     0.074 A 
HETATM   23  F   UNL     1     -14.219  -0.743 -33.457  1.00  0.00    -0.203 F 
BRANCH  19  24
HETATM   24  O   UNL     1     -15.304   1.969 -33.422  1.00  0.00    -0.350 OA
HETATM   25  C   UNL     1     -15.887   2.148 -32.138  1.00  0.00     0.210 C 
ENDBRANCH  19  24
ENDBRANCH   1  16
TORSDOF 4
ENDMDL
MODEL 4
REMARK VINA RESULT:      -7.8      3.515      8.450
REMARK  4 active torsions:
REMARK  status: ('A' for Active; 'I' for Inactive)
REMARK    1  A    between atoms: O_2  and  C_3 
REMARK    2  A    between atoms: C_7  and  N_8 
REMARK       I    between atoms: N_8  and  C_9 
REMARK    3  A    between atoms: C_9  and  C_10 
REMARK    4  A    between atoms: C_12  and  C_13 
ROOT
HETATM    1  N   UNL     1      -3.992   0.839 -32.248  1.00  0.00    -0.323 N 
HETATM    2  C   UNL     1      -4.742   1.434 -31.247  1.00  0.00     0.256 C 
HETATM    3  O   UNL     1      -5.527   0.870 -30.496  1.00  0.00    -0.267 OA
HETATM    4  H   UNL     1      -3.480   1.453 -32.865  1.00  0.00     0.169 HD
ENDROOT
BRANCH   2   5
HETATM    5  C   UNL     1      -4.579   2.912 -31.117  1.00  0.00     0.033 A 
HETATM    6  C   UNL     1      -3.717   3.564 -32.012  1.00  0.00     0.029 A 
HETATM    7  C   UNL     1      -3.538   4.953 -31.951  1.00  0.00    -0.023 A 
HETATM    8  C   UNL     1      -4.233   5.680 -30.975  1.00  0.00     0.012 A 
HETATM    9  C   UNL     1      -5.106   5.038 -30.092  1.00  0.00     0.002 A 
HETATM   10  C   UNL     1      -5.288   3.657 -30.166  1.00  0.00     0.017 A 
BRANCH   7  11
HETATM   11  C   UNL     1      -2.652   5.641 -32.878  1.00  0.00    -0.002 A 
HETATM   12  C   UNL     1      -2.570   7.013 -33.012  1.00  0.00     0.153 A 
HETATM   13  O   UNL     1      -1.642   7.355 -33.943  1.00  0.00    -0.334 OA
HETATM   14  C   UNL     1      -1.113   6.198 -34.415  1.00  0.00     0.142 A 
HETATM   15  C   UNL     1      -1.692   5.118 -33.792  1.00  0.00     0.038 A 
ENDBRANCH   7  11
ENDBRANCH   2   5
BRANCH   1  16
HETATM   16  C   UNL     1      -3.909  -0.539 -32.544  1.00  0.00     0.041 A 
HETATM   17  C   UNL     1      -3.245  -1.473 -31.752  1.00  0.00     0.074 A 
HETATM   18  C   UNL     1      -3.204  -2.816 -32.136  1.00  0.00     0.155 A 
HETATM   19  C   UNL     1      -3.809  -3.269 -33.311  1.00  0.00     0.145 A 
HETATM   20  F   UNL     1      -2.554  -3.684 -31.344  1.00  0.00    -0.203 F 
HETATM   21  C   UNL     1      -4.472  -2.326 -34.093  1.00  0.00     0.155 A 
HETATM   22  C   UNL     1      -4.525  -0.980 -33.719  1.00  0.00     0.074 A 
HETATM   23  F   UNL     1      -5.085  -2.667 -35.236  1.00  0.00    -0.203 F 
BRANCH  19  24
HETATM   24  O   UNL     1      -3.679  -4.607 -33.562  1.00  0.00    -0.350 OA
HETATM   25  C   UNL     1      -4.764  -5.261 -34.207  1.00  0.00     0.210 C 
ENDBRANCH  19  24
ENDBRANCH   1  16
TORSDOF 4
ENDMDL
MODEL 5
REMARK VINA RESULT:      -7.6      4.308      6.234
REMARK  4 active torsions:
REMARK  status: ('A' for Active; 'I' for Inactive)
REMARK    1  A    between atoms: O_2  and  C_3 
REMARK    2  A    between atoms: C_7  and  N_8 
REMARK       I    between atoms: N_8  and  C_9 
REMARK    3  A    between atoms: C_9  and  C_10 
REMARK    4  A    between atoms: C_12  and  C_13 
ROOT
HETATM    1  N   UNL     1      -8.120   1.162 -32.660  1.00  0.00    -0.323 N 
HETATM    2  C   UNL     1      -6.933   1.520 -33.277  1.00  0.00     0.256 C 
HETATM    3  O   UNL     1      -6.699   2.583 -33.839  1.00  0.00    -0.267 OA
HETATM    4  H   UNL     1      -8.204   0.204 -32.347  1.00  0.00     0.169 HD
ENDROOT
BRANCH   2   5
HETATM    5  C   UNL     1      -5.866   0.477 -33.268  1.00  0.00     0.033 A 
HETATM    6  C   UNL     1      -6.168  -0.784 -33.804  1.00  0.00     0.029 A 
HETATM    7  C   UNL     1      -5.201  -1.799 -33.841  1.00  0.00    -0.023 A 
HETATM    8  C   UNL     1      -3.925  -1.531 -33.326  1.00  0.00     0.012 A 
HETATM    9  C   UNL     1      -3.613  -0.272 -32.807  1.00  0.00     0.002 A 
HETATM   10  C   UNL     1      -4.577   0.736 -32.784  1.00  0.00     0.017 A 
BRANCH   7  11
HETATM   11  C   UNL     1      -5.501  -3.107 -34.401  1.00  0.00    -0.002 A 
HETATM   12  C   UNL     1      -4.663  -4.203 -34.325  1.00  0.00     0.153 A 
HETATM   13  O   UNL     1      -5.225  -5.286 -34.923  1.00  0.00    -0.334 OA
HETATM   14  C   UNL     1      -6.438  -4.893 -35.387  1.00  0.00     0.142 A 
HETATM   15  C   UNL     1      -6.659  -3.570 -35.088  1.00  0.00     0.038 A 
ENDBRANCH   7  11
ENDBRANCH   2   5
BRANCH   1  16
HETATM   16  C   UNL     1      -9.260   1.973 -32.472  1.00  0.00     0.041 A 
HETATM   17  C   UNL     1     -10.379   1.958 -33.301  1.00  0.00     0.074 A 
HETATM   18  C   UNL     1     -11.455   2.811 -33.042  1.00  0.00     0.155 A 
HETATM   19  C   UNL     1     -11.452   3.703 -31.967  1.00  0.00     0.145 A 
HETATM   20  F   UNL     1     -12.515   2.763 -33.866  1.00  0.00    -0.203 F 
HETATM   21  C   UNL     1     -10.329   3.707 -31.144  1.00  0.00     0.155 A 
HETATM   22  C   UNL     1      -9.246   2.855 -31.388  1.00  0.00     0.074 A 
HETATM   23  F   UNL     1     -10.236   4.525 -30.086  1.00  0.00    -0.203 F 
BRANCH  19  24
HETATM   24  O   UNL     1     -12.570   4.481 -31.844  1.00  0.00    -0.350 OA
HETATM   25  C   UNL     1     -12.550   5.759 -32.465  1.00  0.00     0.210 C 
ENDBRANCH  19  24
ENDBRANCH   1  16
TORSDOF 4
ENDMDL
MODEL 6
REMARK VINA RESULT:      -7.5      4.197      6.303
REMARK  4 active torsions:
REMARK  status: ('A' for Active; 'I' for Inactive)
REMARK    1  A    between atoms: O_2  and  C_3 
REMARK    2  A    between atoms: C_7  and  N_8 
REMARK       I    between atoms: N_8  and  C_9 
REMARK    3  A    between atoms: C_9  and  C_10 
REMARK    4  A    between atoms: C_12  and  C_13 
ROOT
HETATM    1  N   UNL     1      -7.612   1.715 -33.865  1.00  0.00    -0.323 N 
HETATM    2  C   UNL     1      -6.921   1.377 -32.712  1.00  0.00     0.256 C 
HETATM    3  O   UNL     1      -7.123   1.821 -31.589  1.00  0.00    -0.267 OA
HETATM    4  H   UNL     1      -7.250   1.358 -34.738  1.00  0.00     0.169 HD
ENDROOT
BRANCH   2   5
HETATM    5  C   UNL     1      -5.808   0.400 -32.896  1.00  0.00     0.033 A 
HETATM    6  C   UNL     1      -6.108  -0.845 -33.469  1.00  0.00     0.029 A 
HETATM    7  C   UNL     1      -5.102  -1.798 -33.683  1.00  0.00    -0.023 A 
HETATM    8  C   UNL     1      -3.788  -1.484 -33.310  1.00  0.00     0.012 A 
HETATM    9  C   UNL     1      -3.480  -0.239 -32.754  1.00  0.00     0.002 A 
HETATM   10  C   UNL     1      -4.485   0.707 -32.555  1.00  0.00     0.017 A 
BRANCH   7  11
HETATM   11  C   UNL     1      -5.400  -3.089 -34.283  1.00  0.00    -0.002 A 
HETATM   12  C   UNL     1      -4.577  -4.196 -34.210  1.00  0.00     0.153 A 
HETATM   13  O   UNL     1      -5.134  -5.257 -34.850  1.00  0.00    -0.334 OA
HETATM   14  C   UNL     1      -6.329  -4.840 -35.338  1.00  0.00     0.142 A 
HETATM   15  C   UNL     1      -6.544  -3.521 -35.014  1.00  0.00     0.038 A 
ENDBRANCH   7  11
ENDBRANCH   2   5
BRANCH   1  16
HETATM   16  C   UNL     1      -8.738   2.560 -33.965  1.00  0.00     0.041 A 
HETATM   17  C   UNL     1      -8.687   3.950 -33.880  1.00  0.00     0.074 A 
HETATM   18  C   UNL     1      -9.860   4.702 -33.976  1.00  0.00     0.155 A 
HETATM   19  C   UNL     1     -11.111   4.105 -34.149  1.00  0.00     0.145 A 
HETATM   20  F   UNL     1      -9.765   6.039 -33.890  1.00  0.00    -0.203 F 
HETATM   21  C   UNL     1     -11.149   2.716 -34.235  1.00  0.00     0.155 A 
HETATM   22  C   UNL     1      -9.982   1.950 -34.146  1.00  0.00     0.074 A 
HETATM   23  F   UNL     1     -12.303   2.054 -34.405  1.00  0.00    -0.203 F 
BRANCH  19  24
HETATM   24  O   UNL     1     -12.171   4.967 -34.217  1.00  0.00    -0.350 OA
HETATM   25  C   UNL     1     -12.756   5.186 -35.493  1.00  0.00     0.210 C 
ENDBRANCH  19  24
ENDBRANCH   1  16
TORSDOF 4
ENDMDL
MODEL 7
REMARK VINA RESULT:      -7.3      5.450      8.947
REMARK  4 active torsions:
REMARK  status: ('A' for Active; 'I' for Inactive)
REMARK    1  A    between atoms: O_2  and  C_3 
REMARK    2  A    between atoms: C_7  and  N_8 
REMARK       I    between atoms: N_8  and  C_9 
REMARK    3  A    between atoms: C_9  and  C_10 
REMARK    4  A    between atoms: C_12  and  C_13 
ROOT
HETATM    1  N   UNL     1      -8.520   1.960 -33.365  1.00  0.00    -0.323 N 
HETATM    2  C   UNL     1      -8.066   2.420 -32.139  1.00  0.00     0.256 C 
HETATM    3  O   UNL     1      -8.759   2.821 -31.213  1.00  0.00    -0.267 OA
HETATM    4  H   UNL     1      -7.823   1.779 -34.074  1.00  0.00     0.169 HD
ENDROOT
BRANCH   2   5
HETATM    5  C   UNL     1      -6.583   2.448 -31.974  1.00  0.00     0.033 A 
HETATM    6  C   UNL     1      -5.847   3.347 -32.761  1.00  0.00     0.029 A 
HETATM    7  C   UNL     1      -4.453   3.433 -32.637  1.00  0.00    -0.023 A 
HETATM    8  C   UNL     1      -3.806   2.599 -31.715  1.00  0.00     0.012 A 
HETATM    9  C   UNL     1      -4.536   1.714 -30.917  1.00  0.00     0.002 A 
HETATM   10  C   UNL     1      -5.924   1.643 -31.037  1.00  0.00     0.017 A 
BRANCH   7  11
HETATM   11  C   UNL     1      -3.680   4.366 -33.442  1.00  0.00    -0.002 A 
HETATM   12  C   UNL     1      -4.221   5.402 -34.179  1.00  0.00     0.153 A 
HETATM   13  O   UNL     1      -3.248   6.109 -34.809  1.00  0.00    -0.334 OA
HETATM   14  C   UNL     1      -2.065   5.534 -34.477  1.00  0.00     0.142 A 
HETATM   15  C   UNL     1      -2.272   4.465 -33.637  1.00  0.00     0.038 A 
ENDBRANCH   7  11
ENDBRANCH   2   5
BRANCH   1  16
HETATM   16  C   UNL     1      -9.863   1.773 -33.759  1.00  0.00     0.041 A 
HETATM   17  C   UNL     1     -10.578   2.665 -34.554  1.00  0.00     0.074 A 
HETATM   18  C   UNL     1     -11.911   2.400 -34.880  1.00  0.00     0.155 A 
HETATM   19  C   UNL     1     -12.571   1.256 -34.426  1.00  0.00     0.145 A 
HETATM   20  F   UNL     1     -12.564   3.286 -35.649  1.00  0.00    -0.203 F 
HETATM   21  C   UNL     1     -11.844   0.371 -33.635  1.00  0.00     0.155 A 
HETATM   22  C   UNL     1     -10.509   0.620 -33.304  1.00  0.00     0.074 A 
HETATM   23  F   UNL     1     -12.392  -0.755 -33.156  1.00  0.00    -0.203 F 
BRANCH  19  24
HETATM   24  O   UNL     1     -13.876   1.135 -34.818  1.00  0.00    -0.350 OA
HETATM   25  C   UNL     1     -14.876   1.285 -33.820  1.00  0.00     0.210 C 
ENDBRANCH  19  24
ENDBRANCH   1  16
TORSDOF 4
ENDMDL
MODEL 8
REMARK VINA RESULT:      -7.3     15.751     16.969
REMARK  4 active torsions:
REMARK  status: ('A' for Active; 'I' for Inactive)
REMARK    1  A    between atoms: O_2  and  C_3 
REMARK    2  A    between atoms: C_7  and  N_8 
REMARK       I    between atoms: N_8  and  C_9 
REMARK    3  A    between atoms: C_9  and  C_10 
REMARK    4  A    between atoms: C_12  and  C_13 
ROOT
HETATM    1  N   UNL     1      -5.824 -13.827 -36.261  1.00  0.00    -0.323 N 
HETATM    2  C   UNL     1      -5.072 -13.013 -37.092  1.00  0.00     0.256 C 
HETATM    3  O   UNL     1      -3.994 -12.498 -36.822  1.00  0.00    -0.267 OA
HETATM    4  H   UNL     1      -6.750 -14.078 -36.580  1.00  0.00     0.169 HD
ENDROOT
BRANCH   2   5
HETATM    5  C   UNL     1      -5.674 -12.729 -38.428  1.00  0.00     0.033 A 
HETATM    6  C   UNL     1      -7.044 -12.976 -38.602  1.00  0.00     0.029 A 
HETATM    7  C   UNL     1      -7.671 -12.711 -39.828  1.00  0.00    -0.023 A 
HETATM    8  C   UNL     1      -6.900 -12.198 -40.881  1.00  0.00     0.012 A 
HETATM    9  C   UNL     1      -5.539 -11.934 -40.708  1.00  0.00     0.002 A 
HETATM   10  C   UNL     1      -4.925 -12.190 -39.482  1.00  0.00     0.017 A 
BRANCH   7  11
HETATM   11  C   UNL     1      -9.091 -12.956 -40.018  1.00  0.00    -0.002 A 
HETATM   12  C   UNL     1      -9.678 -14.207 -40.016  1.00  0.00     0.153 A 
HETATM   13  O   UNL     1     -11.021 -14.113 -40.200  1.00  0.00    -0.334 OA
HETATM   14  C   UNL     1     -11.311 -12.793 -40.317  1.00  0.00     0.142 A 
HETATM   15  C   UNL     1     -10.166 -12.040 -40.207  1.00  0.00     0.038 A 
ENDBRANCH   7  11
ENDBRANCH   2   5
BRANCH   1  16
HETATM   16  C   UNL     1      -5.464 -14.301 -34.981  1.00  0.00     0.041 A 
HETATM   17  C   UNL     1      -4.827 -15.517 -34.745  1.00  0.00     0.074 A 
HETATM   18  C   UNL     1      -4.524 -15.909 -33.439  1.00  0.00     0.155 A 
HETATM   19  C   UNL     1      -4.848 -15.117 -32.334  1.00  0.00     0.145 A 
HETATM   20  F   UNL     1      -3.909 -17.088 -33.256  1.00  0.00    -0.203 F 
HETATM   21  C   UNL     1      -5.483 -13.902 -32.583  1.00  0.00     0.155 A 
HETATM   22  C   UNL     1      -5.788 -13.495 -33.886  1.00  0.00     0.074 A 
HETATM   23  F   UNL     1      -5.829 -13.074 -31.588  1.00  0.00    -0.203 F 
BRANCH  19  24
HETATM   24  O   UNL     1      -4.499 -15.632 -31.117  1.00  0.00    -0.350 OA
HETATM   25  C   UNL     1      -5.488 -16.366 -30.408  1.00  0.00     0.210 C 
ENDBRANCH  19  24
ENDBRANCH   1  16
TORSDOF 4
ENDMDL
MODEL 9
REMARK VINA RESULT:      -7.2      5.251      8.192
REMARK  4 active torsions:
REMARK  status: ('A' for Active; 'I' for Inactive)
REMARK    1  A    between atoms: O_2  and  C_3 
REMARK    2  A    between atoms: C_7  and  N_8 
REMARK       I    between atoms: N_8  and  C_9 
REMARK    3  A    between atoms: C_9  and  C_10 
REMARK    4  A    between atoms: C_12  and  C_13 
ROOT
HETATM    1  N   UNL     1      -8.939   1.978 -33.439  1.00  0.00    -0.323 N 
HETATM    2  C   UNL     1      -8.478   2.441 -32.217  1.00  0.00     0.256 C 
HETATM    3  O   UNL     1      -9.166   2.846 -31.288  1.00  0.00    -0.267 OA
HETATM    4  H   UNL     1      -8.246   1.794 -34.151  1.00  0.00     0.169 HD
ENDROOT
BRANCH   2   5
HETATM    5  C   UNL     1      -6.994   2.468 -32.060  1.00  0.00     0.033 A 
HETATM    6  C   UNL     1      -6.302   1.248 -32.098  1.00  0.00     0.029 A 
HETATM    7  C   UNL     1      -4.906   1.210 -31.975  1.00  0.00    -0.023 A 
HETATM    8  C   UNL     1      -4.213   2.417 -31.809  1.00  0.00     0.012 A 
HETATM    9  C   UNL     1      -4.894   3.637 -31.787  1.00  0.00     0.002 A 
HETATM   10  C   UNL     1      -6.282   3.666 -31.922  1.00  0.00     0.017 A 
BRANCH   7  11
HETATM   11  C   UNL     1      -4.178  -0.048 -32.020  1.00  0.00    -0.002 A 
HETATM   12  C   UNL     1      -4.617  -1.185 -32.670  1.00  0.00     0.153 A 
HETATM   13  O   UNL     1      -3.713  -2.192 -32.550  1.00  0.00    -0.334 OA
HETATM   14  C   UNL     1      -2.678  -1.707 -31.820  1.00  0.00     0.142 A 
HETATM   15  C   UNL     1      -2.909  -0.396 -31.474  1.00  0.00     0.038 A 
ENDBRANCH   7  11
ENDBRANCH   2   5
BRANCH   1  16
HETATM   16  C   UNL     1     -10.284   1.791 -33.826  1.00  0.00     0.041 A 
HETATM   17  C   UNL     1     -11.018   2.706 -34.577  1.00  0.00     0.074 A 
HETATM   18  C   UNL     1     -12.351   2.439 -34.898  1.00  0.00     0.155 A 
HETATM   19  C   UNL     1     -12.994   1.271 -34.482  1.00  0.00     0.145 A 
HETATM   20  F   UNL     1     -13.023   3.347 -35.625  1.00  0.00    -0.203 F 
HETATM   21  C   UNL     1     -12.249   0.363 -33.734  1.00  0.00     0.155 A 
HETATM   22  C   UNL     1     -10.912   0.614 -33.409  1.00  0.00     0.074 A 
HETATM   23  F   UNL     1     -12.779  -0.787 -33.294  1.00  0.00    -0.203 F 
BRANCH  19  24
HETATM   24  O   UNL     1     -14.302   1.150 -34.864  1.00  0.00    -0.350 OA
HETATM   25  C   UNL     1     -15.287   1.156 -33.840  1.00  0.00     0.210 C 
ENDBRANCH  19  24
ENDBRANCH   1  16
TORSDOF 4
ENDMDL
MODEL 10
REMARK VINA RESULT:      -7.2      4.790      8.101
REMARK  4 active torsions:
REMARK  status: ('A' for Active; 'I' for Inactive)
REMARK    1  A    between atoms: O_2  and  C_3 
REMARK    2  A    between atoms: C_7  and  N_8 
REMARK       I    between atoms: N_8  and  C_9 
REMARK    3  A    between atoms: C_9  and  C_10 
REMARK    4  A    between atoms: C_12  and  C_13 
ROOT
HETATM    1  N   UNL     1      -7.098   0.229 -32.932  1.00  0.00    -0.323 N 
HETATM    2  C   UNL     1      -7.433   0.594 -31.638  1.00  0.00     0.256 C 
HETATM    3  O   UNL     1      -7.112   0.007 -30.612  1.00  0.00    -0.267 OA
HETATM    4  H   UNL     1      -7.538   0.742 -33.682  1.00  0.00     0.169 HD
ENDROOT
BRANCH   2   5
HETATM    5  C   UNL     1      -8.296   1.806 -31.517  1.00  0.00     0.033 A 
HETATM    6  C   UNL     1      -9.401   1.920 -32.374  1.00  0.00     0.029 A 
HETATM    7  C   UNL     1     -10.258   3.027 -32.296  1.00  0.00    -0.023 A 
HETATM    8  C   UNL     1      -9.988   4.021 -31.346  1.00  0.00     0.012 A 
HETATM    9  C   UNL     1      -8.899   3.905 -30.479  1.00  0.00     0.002 A 
HETATM   10  C   UNL     1      -8.057   2.796 -30.555  1.00  0.00     0.017 A 
BRANCH   7  11
HETATM   11  C   UNL     1     -11.411   3.152 -33.174  1.00  0.00    -0.002 A 
HETATM   12  C   UNL     1     -12.721   3.234 -32.743  1.00  0.00     0.153 A 
HETATM   13  O   UNL     1     -13.571   3.362 -33.795  1.00  0.00    -0.334 OA
HETATM   14  C   UNL     1     -12.810   3.368 -34.917  1.00  0.00     0.142 A 
HETATM   15  C   UNL     1     -11.479   3.248 -34.594  1.00  0.00     0.038 A 
ENDBRANCH   7  11
ENDBRANCH   2   5
BRANCH   1  16
HETATM   16  C   UNL     1      -6.250  -0.829 -33.325  1.00  0.00     0.041 A 
HETATM   17  C   UNL     1      -6.591  -1.800 -34.263  1.00  0.00     0.074 A 
HETATM   18  C   UNL     1      -5.689  -2.820 -34.577  1.00  0.00     0.155 A 
HETATM   19  C   UNL     1      -4.435  -2.913 -33.968  1.00  0.00     0.145 A 
HETATM   20  F   UNL     1      -6.057  -3.735 -35.488  1.00  0.00    -0.203 F 
HETATM   21  C   UNL     1      -4.104  -1.935 -33.033  1.00  0.00     0.155 A 
HETATM   22  C   UNL     1      -4.995  -0.905 -32.713  1.00  0.00     0.074 A 
HETATM   23  F   UNL     1      -2.923  -1.939 -32.400  1.00  0.00    -0.203 F 
BRANCH  19  24
HETATM   24  O   UNL     1      -3.662  -3.968 -34.367  1.00  0.00    -0.350 OA
HETATM   25  C   UNL     1      -3.601  -5.098 -33.507  1.00  0.00     0.210 C 
ENDBRANCH  19  24
ENDBRANCH   1  16
TORSDOF 4
ENDMDL
