MODEL 1
REMARK VINA RESULT:      -9.4      0.000      0.000
REMARK  6 active torsions:
REMARK  status: ('A' for Active; 'I' for Inactive)
REMARK    1  A    between atoms: C_7  and  C_8 
REMARK    2  A    between atoms: C_8  and  O_9 
REMARK    3  A    between atoms: N_12  and  C_13 
REMARK    4  A    between atoms: C_13  and  C_14 
REMARK    5  A    between atoms: C_14  and  C_15 
REMARK    6  A    between atoms: C_15  and  C_16 
ROOT
HETATM    1  C   UNL     1      -5.817   2.699 -30.342  1.00  0.00     0.199 A 
HETATM    2  C   UNL     1      -5.221   1.261 -30.289  1.00  0.00     0.269 A 
HETATM    3  O   UNL     1      -5.572   0.362 -29.536  1.00  0.00    -0.269 OA
HETATM    4  N   UNL     1      -4.129   1.228 -31.175  1.00  0.00    -0.314 N 
HETATM    5  C   UNL     1      -3.971   2.465 -31.820  1.00  0.00     0.047 A 
HETATM    6  C   UNL     1      -4.951   3.365 -31.379  1.00  0.00     0.017 A 
HETATM    7  C   UNL     1      -3.015   2.841 -32.748  1.00  0.00     0.030 A 
HETATM    8  C   UNL     1      -3.047   4.151 -33.234  1.00  0.00     0.002 A 
HETATM    9  C   UNL     1      -4.019   5.060 -32.787  1.00  0.00     0.001 A 
HETATM   10  C   UNL     1      -4.976   4.672 -31.849  1.00  0.00     0.013 A 
ENDROOT
BRANCH   1  11
HETATM   11  C   UNL     1      -7.253   2.792 -30.807  1.00  0.00     0.025 A 
HETATM   12  C   UNL     1      -8.171   3.788 -30.466  1.00  0.00     0.016 A 
HETATM   13  C   UNL     1      -8.039   4.996 -29.602  1.00  0.00     0.069 C 
HETATM   14  N   UNL     1      -9.356   3.512 -31.093  1.00  0.00    -0.359 N 
HETATM   15  H   UNL     1     -10.196   4.070 -31.021  1.00  0.00     0.166 HD
HETATM   16  C   UNL     1      -9.249   2.383 -31.862  1.00  0.00     0.043 A 
HETATM   17  C   UNL     1      -7.949   1.901 -31.706  1.00  0.00     0.003 A 
HETATM   18  C   UNL     1     -10.205   1.767 -32.678  1.00  0.00     0.030 A 
HETATM   19  C   UNL     1      -7.598   0.733 -32.419  1.00  0.00     0.014 A 
HETATM   20  C   UNL     1      -8.540   0.102 -33.242  1.00  0.00     0.001 A 
HETATM   21  C   UNL     1      -9.826   0.615 -33.369  1.00  0.00     0.002 A 
ENDBRANCH   1  11
BRANCH   1  22
HETATM   22  O   UNL     1      -5.600   3.316 -29.072  1.00  0.00    -0.371 OA
HETATM   23  H   UNL     1      -4.666   3.592 -29.101  1.00  0.00     0.212 HD
ENDBRANCH   1  22
BRANCH   4  24
HETATM   24  C   UNL     1      -3.169   0.148 -31.198  1.00  0.00     0.133 C 
BRANCH  24  25
HETATM   25  C   UNL     1      -3.681  -1.138 -31.843  1.00  0.00     0.025 C 
BRANCH  25  26
HETATM   26  C   UNL     1      -4.195  -0.931 -33.270  1.00  0.00     0.040 C 
BRANCH  26  27
HETATM   27  C   UNL     1      -4.802  -2.193 -33.839  1.00  0.00    -0.058 A 
HETATM   28  C   UNL     1      -6.091  -2.187 -34.389  1.00  0.00     0.007 A 
HETATM   29  C   UNL     1      -6.657  -3.364 -34.882  1.00  0.00     0.001 A 
HETATM   30  C   UNL     1      -5.938  -4.558 -34.839  1.00  0.00     0.000 A 
HETATM   31  C   UNL     1      -4.649  -4.573 -34.307  1.00  0.00     0.001 A 
HETATM   32  C   UNL     1      -4.084  -3.398 -33.810  1.00  0.00     0.007 A 
ENDBRANCH  26  27
ENDBRANCH  25  26
ENDBRANCH  24  25
ENDBRANCH   4  24
TORSDOF 6
ENDMDL
MODEL 2
REMARK VINA RESULT:      -8.9      2.080      5.588
REMARK  6 active torsions:
REMARK  status: ('A' for Active; 'I' for Inactive)
REMARK    1  A    between atoms: C_7  and  C_8 
REMARK    2  A    between atoms: C_8  and  O_9 
REMARK    3  A    between atoms: N_12  and  C_13 
REMARK    4  A    between atoms: C_13  and  C_14 
REMARK    5  A    between atoms: C_14  and  C_15 
REMARK    6  A    between atoms: C_15  and  C_16 
ROOT
HETATM    1  C   UNL     1      -4.914   4.003 -31.189  1.00  0.00     0.199 A 
HETATM    2  C   UNL     1      -6.472   3.973 -31.185  1.00  0.00     0.269 A 
HETATM    3  O   UNL     1      -7.212   4.942 -31.073  1.00  0.00    -0.269 OA
HETATM    4  N   UNL     1      -6.865   2.622 -31.211  1.00  0.00    -0.314 N 
HETATM    5  C   UNL     1      -5.745   1.778 -31.266  1.00  0.00     0.047 A 
HETATM    6  C   UNL     1      -4.568   2.539 -31.273  1.00  0.00     0.017 A 
HETATM    7  C   UNL     1      -5.706   0.394 -31.292  1.00  0.00     0.030 A 
HETATM    8  C   UNL     1      -4.456  -0.230 -31.320  1.00  0.00     0.002 A 
HETATM    9  C   UNL     1      -3.273   0.528 -31.314  1.00  0.00     0.001 A 
HETATM   10  C   UNL     1      -3.325   1.921 -31.284  1.00  0.00     0.013 A 
ENDROOT
BRANCH   1  11
HETATM   11  C   UNL     1      -4.279   4.699 -32.371  1.00  0.00     0.025 A 
HETATM   12  C   UNL     1      -4.731   4.664 -33.692  1.00  0.00     0.016 A 
HETATM   13  C   UNL     1      -5.902   3.985 -34.315  1.00  0.00     0.069 C 
HETATM   14  N   UNL     1      -3.883   5.421 -34.455  1.00  0.00    -0.359 N 
HETATM   15  H   UNL     1      -3.971   5.570 -35.451  1.00  0.00     0.166 HD
HETATM   16  C   UNL     1      -2.900   5.982 -33.682  1.00  0.00     0.043 A 
HETATM   17  C   UNL     1      -3.111   5.550 -32.372  1.00  0.00     0.003 A 
HETATM   18  C   UNL     1      -1.853   6.835 -34.050  1.00  0.00     0.030 A 
HETATM   19  C   UNL     1      -2.215   6.011 -31.382  1.00  0.00     0.014 A 
HETATM   20  C   UNL     1      -1.163   6.867 -31.730  1.00  0.00     0.001 A 
HETATM   21  C   UNL     1      -0.986   7.273 -33.048  1.00  0.00     0.002 A 
ENDBRANCH   1  11
BRANCH   1  22
HETATM   22  O   UNL     1      -4.479   4.526 -29.932  1.00  0.00    -0.371 OA
HETATM   23  H   UNL     1      -3.870   5.246 -30.175  1.00  0.00     0.212 HD
ENDBRANCH   1  22
BRANCH   4  24
HETATM   24  C   UNL     1      -8.220   2.194 -30.951  1.00  0.00     0.133 C 
BRANCH  24  25
HETATM   25  C   UNL     1      -9.178   2.380 -32.125  1.00  0.00     0.025 C 
BRANCH  25  26
HETATM   26  C   UNL     1      -9.682   1.056 -32.704  1.00  0.00     0.040 C 
BRANCH  26  27
HETATM   27  C   UNL     1      -8.625   0.367 -33.536  1.00  0.00    -0.058 A 
HETATM   28  C   UNL     1      -8.225  -0.946 -33.251  1.00  0.00     0.007 A 
HETATM   29  C   UNL     1      -7.225  -1.563 -34.004  1.00  0.00     0.001 A 
HETATM   30  C   UNL     1      -6.619  -0.878 -35.056  1.00  0.00     0.000 A 
HETATM   31  C   UNL     1      -7.017   0.423 -35.359  1.00  0.00     0.001 A 
HETATM   32  C   UNL     1      -8.014   1.042 -34.604  1.00  0.00     0.007 A 
ENDBRANCH  26  27
ENDBRANCH  25  26
ENDBRANCH  24  25
ENDBRANCH   4  24
TORSDOF 6
ENDMDL
MODEL 3
REMARK VINA RESULT:      -8.8      1.432      2.362
REMARK  6 active torsions:
REMARK  status: ('A' for Active; 'I' for Inactive)
REMARK    1  A    between atoms: C_7  and  C_8 
REMARK    2  A    between atoms: C_8  and  O_9 
REMARK    3  A    between atoms: N_12  and  C_13 
REMARK    4  A    between atoms: C_13  and  C_14 
REMARK    5  A    between atoms: C_14  and  C_15 
REMARK    6  A    between atoms: C_15  and  C_16 
ROOT
HETATM    1  C   UNL     1      -6.672   2.213 -30.818  1.00  0.00     0.199 A 
HETATM    2  C   UNL     1      -6.097   0.770 -30.946  1.00  0.00     0.269 A 
HETATM    3  O   UNL     1      -6.711  -0.271 -30.748  1.00  0.00    -0.269 OA
HETATM    4  N   UNL     1      -4.720   0.889 -31.206  1.00  0.00    -0.314 N 
HETATM    5  C   UNL     1      -4.344   2.239 -31.297  1.00  0.00     0.047 A 
HETATM    6  C   UNL     1      -5.460   3.063 -31.094  1.00  0.00     0.017 A 
HETATM    7  C   UNL     1      -3.089   2.773 -31.528  1.00  0.00     0.030 A 
HETATM    8  C   UNL     1      -2.957   4.164 -31.549  1.00  0.00     0.002 A 
HETATM    9  C   UNL     1      -4.068   4.995 -31.333  1.00  0.00     0.001 A 
HETATM   10  C   UNL     1      -5.328   4.446 -31.098  1.00  0.00     0.013 A 
ENDROOT
BRANCH   1  11
HETATM   11  C   UNL     1      -7.736   2.581 -31.827  1.00  0.00     0.025 A 
HETATM   12  C   UNL     1      -7.653   2.425 -33.212  1.00  0.00     0.016 A 
HETATM   13  C   UNL     1      -6.570   1.879 -34.079  1.00  0.00     0.069 C 
HETATM   14  N   UNL     1      -8.821   2.876 -33.766  1.00  0.00    -0.359 N 
HETATM   15  H   UNL     1      -9.033   2.882 -34.754  1.00  0.00     0.166 HD
HETATM   16  C   UNL     1      -9.690   3.298 -32.793  1.00  0.00     0.043 A 
HETATM   17  C   UNL     1      -9.046   3.134 -31.567  1.00  0.00     0.003 A 
HETATM   18  C   UNL     1     -10.988   3.806 -32.918  1.00  0.00     0.030 A 
HETATM   19  C   UNL     1      -9.758   3.501 -30.403  1.00  0.00     0.014 A 
HETATM   20  C   UNL     1     -11.059   4.009 -30.507  1.00  0.00     0.001 A 
HETATM   21  C   UNL     1     -11.665   4.158 -31.749  1.00  0.00     0.002 A 
ENDBRANCH   1  11
BRANCH   1  22
HETATM   22  O   UNL     1      -7.092   2.404 -29.466  1.00  0.00    -0.371 OA
HETATM   23  H   UNL     1      -7.080   3.371 -29.350  1.00  0.00     0.212 HD
ENDBRANCH   1  22
BRANCH   4  24
HETATM   24  C   UNL     1      -3.806  -0.227 -31.124  1.00  0.00     0.133 C 
BRANCH  24  25
HETATM   25  C   UNL     1      -3.317  -0.744 -32.475  1.00  0.00     0.025 C 
BRANCH  25  26
HETATM   26  C   UNL     1      -4.431  -0.836 -33.521  1.00  0.00     0.040 C 
BRANCH  26  27
HETATM   27  C   UNL     1      -4.738  -2.269 -33.891  1.00  0.00    -0.058 A 
HETATM   28  C   UNL     1      -3.869  -3.308 -33.530  1.00  0.00     0.007 A 
HETATM   29  C   UNL     1      -4.143  -4.625 -33.905  1.00  0.00     0.001 A 
HETATM   30  C   UNL     1      -5.293  -4.919 -34.636  1.00  0.00     0.000 A 
HETATM   31  C   UNL     1      -6.172  -3.896 -34.989  1.00  0.00     0.001 A 
HETATM   32  C   UNL     1      -5.897  -2.579 -34.618  1.00  0.00     0.007 A 
ENDBRANCH  26  27
ENDBRANCH  25  26
ENDBRANCH  24  25
ENDBRANCH   4  24
TORSDOF 6
ENDMDL
MODEL 4
REMARK VINA RESULT:      -8.8      2.275      3.703
REMARK  6 active torsions:
REMARK  status: ('A' for Active; 'I' for Inactive)
REMARK    1  A    between atoms: C_7  and  C_8 
REMARK    2  A    between atoms: C_8  and  O_9 
REMARK    3  A    between atoms: N_12  and  C_13 
REMARK    4  A    between atoms: C_13  and  C_14 
REMARK    5  A    between atoms: C_14  and  C_15 
REMARK    6  A    between atoms: C_15  and  C_16 
ROOT
HETATM    1  C   UNL     1      -8.950   1.234 -32.421  1.00  0.00     0.199 A 
HETATM    2  C   UNL     1      -7.692   0.718 -33.180  1.00  0.00     0.269 A 
HETATM    3  O   UNL     1      -7.674  -0.164 -34.030  1.00  0.00    -0.269 OA
HETATM    4  N   UNL     1      -6.572   1.361 -32.623  1.00  0.00    -0.314 N 
HETATM    5  C   UNL     1      -6.962   2.259 -31.616  1.00  0.00     0.047 A 
HETATM    6  C   UNL     1      -8.356   2.238 -31.467  1.00  0.00     0.017 A 
HETATM    7  C   UNL     1      -6.167   3.069 -30.824  1.00  0.00     0.030 A 
HETATM    8  C   UNL     1      -6.790   3.867 -29.861  1.00  0.00     0.002 A 
HETATM    9  C   UNL     1      -8.184   3.841 -29.699  1.00  0.00     0.001 A 
HETATM   10  C   UNL     1      -8.976   3.018 -30.500  1.00  0.00     0.013 A 
ENDROOT
BRANCH   1  11
HETATM   11  C   UNL     1      -9.974   1.952 -33.270  1.00  0.00     0.025 A 
HETATM   12  C   UNL     1      -9.808   3.187 -33.900  1.00  0.00     0.016 A 
HETATM   13  C   UNL     1      -8.650   4.124 -33.941  1.00  0.00     0.069 C 
HETATM   14  N   UNL     1     -10.964   3.486 -34.571  1.00  0.00    -0.359 N 
HETATM   15  H   UNL     1     -11.122   4.324 -35.114  1.00  0.00     0.166 HD
HETATM   16  C   UNL     1     -11.882   2.478 -34.432  1.00  0.00     0.043 A 
HETATM   17  C   UNL     1     -11.302   1.502 -33.621  1.00  0.00     0.003 A 
HETATM   18  C   UNL     1     -13.171   2.367 -34.966  1.00  0.00     0.030 A 
HETATM   19  C   UNL     1     -12.069   0.349 -33.340  1.00  0.00     0.014 A 
HETATM   20  C   UNL     1     -13.360   0.218 -33.868  1.00  0.00     0.001 A 
HETATM   21  C   UNL     1     -13.901   1.215 -34.671  1.00  0.00     0.002 A 
ENDBRANCH   1  11
BRANCH   1  22
HETATM   22  O   UNL     1      -9.501   0.143 -31.683  1.00  0.00    -0.371 OA
HETATM   23  H   UNL     1     -10.218   0.548 -31.161  1.00  0.00     0.212 HD
ENDBRANCH   1  22
BRANCH   4  24
HETATM   24  C   UNL     1      -5.214   0.943 -32.886  1.00  0.00     0.133 C 
BRANCH  24  25
HETATM   25  C   UNL     1      -4.919  -0.510 -32.521  1.00  0.00     0.025 C 
BRANCH  25  26
HETATM   26  C   UNL     1      -3.985  -1.201 -33.518  1.00  0.00     0.040 C 
BRANCH  26  27
HETATM   27  C   UNL     1      -4.509  -2.556 -33.934  1.00  0.00    -0.058 A 
HETATM   28  C   UNL     1      -3.835  -3.732 -33.573  1.00  0.00     0.007 A 
HETATM   29  C   UNL     1      -4.308  -4.977 -33.990  1.00  0.00     0.001 A 
HETATM   30  C   UNL     1      -5.465  -5.063 -34.764  1.00  0.00     0.000 A 
HETATM   31  C   UNL     1      -6.151  -3.903 -35.117  1.00  0.00     0.001 A 
HETATM   32  C   UNL     1      -5.677  -2.657 -34.705  1.00  0.00     0.007 A 
ENDBRANCH  26  27
ENDBRANCH  25  26
ENDBRANCH  24  25
ENDBRANCH   4  24
TORSDOF 6
ENDMDL
MODEL 5
REMARK VINA RESULT:      -8.7      2.152      6.894
REMARK  6 active torsions:
REMARK  status: ('A' for Active; 'I' for Inactive)
REMARK    1  A    between atoms: C_7  and  C_8 
REMARK    2  A    between atoms: C_8  and  O_9 
REMARK    3  A    between atoms: N_12  and  C_13 
REMARK    4  A    between atoms: C_13  and  C_14 
REMARK    5  A    between atoms: C_14  and  C_15 
REMARK    6  A    between atoms: C_15  and  C_16 
ROOT
HETATM    1  C   UNL     1      -5.196   0.627 -32.028  1.00  0.00     0.199 A 
HETATM    2  C   UNL     1      -4.376   1.875 -32.475  1.00  0.00     0.269 A 
HETATM    3  O   UNL     1      -3.162   1.922 -32.632  1.00  0.00    -0.269 OA
HETATM    4  N   UNL     1      -5.268   2.960 -32.543  1.00  0.00    -0.314 N 
HETATM    5  C   UNL     1      -6.575   2.553 -32.227  1.00  0.00     0.047 A 
HETATM    6  C   UNL     1      -6.593   1.183 -31.932  1.00  0.00     0.017 A 
HETATM    7  C   UNL     1      -7.728   3.316 -32.169  1.00  0.00     0.030 A 
HETATM    8  C   UNL     1      -8.919   2.685 -31.801  1.00  0.00     0.002 A 
HETATM    9  C   UNL     1      -8.941   1.315 -31.492  1.00  0.00     0.001 A 
HETATM   10  C   UNL     1      -7.772   0.556 -31.551  1.00  0.00     0.013 A 
ENDROOT
BRANCH   1  11
HETATM   11  C   UNL     1      -5.220  -0.522 -33.010  1.00  0.00     0.025 A 
HETATM   12  C   UNL     1      -5.915  -0.561 -34.221  1.00  0.00     0.016 A 
HETATM   13  C   UNL     1      -6.786   0.446 -34.890  1.00  0.00     0.069 C 
HETATM   14  N   UNL     1      -5.676  -1.772 -34.813  1.00  0.00    -0.359 N 
HETATM   15  H   UNL     1      -6.056  -2.071 -35.701  1.00  0.00     0.166 HD
HETATM   16  C   UNL     1      -4.824  -2.528 -34.051  1.00  0.00     0.043 A 
HETATM   17  C   UNL     1      -4.519  -1.782 -32.913  1.00  0.00     0.003 A 
HETATM   18  C   UNL     1      -4.307  -3.806 -34.294  1.00  0.00     0.030 A 
HETATM   19  C   UNL     1      -3.639  -2.361 -31.971  1.00  0.00     0.014 A 
HETATM   20  C   UNL     1      -3.110  -3.638 -32.197  1.00  0.00     0.001 A 
HETATM   21  C   UNL     1      -3.441  -4.349 -33.345  1.00  0.00     0.002 A 
ENDBRANCH   1  11
BRANCH   1  22
HETATM   22  O   UNL     1      -4.744   0.243 -30.729  1.00  0.00    -0.371 OA
HETATM   23  H   UNL     1      -4.543  -0.706 -30.820  1.00  0.00     0.212 HD
ENDBRANCH   1  22
BRANCH   4  24
HETATM   24  C   UNL     1      -4.829   4.331 -32.665  1.00  0.00     0.133 C 
BRANCH  24  25
HETATM   25  C   UNL     1      -4.752   4.845 -34.101  1.00  0.00     0.025 C 
BRANCH  25  26
HETATM   26  C   UNL     1      -3.320   4.903 -34.640  1.00  0.00     0.040 C 
BRANCH  26  27
HETATM   27  C   UNL     1      -2.393   5.635 -33.697  1.00  0.00    -0.058 A 
HETATM   28  C   UNL     1      -2.391   7.036 -33.631  1.00  0.00     0.007 A 
HETATM   29  C   UNL     1      -1.509   7.705 -32.781  1.00  0.00     0.001 A 
HETATM   30  C   UNL     1      -0.624   6.982 -31.982  1.00  0.00     0.000 A 
HETATM   31  C   UNL     1      -0.626   5.589 -32.029  1.00  0.00     0.001 A 
HETATM   32  C   UNL     1      -1.505   4.919 -32.881  1.00  0.00     0.007 A 
ENDBRANCH  26  27
ENDBRANCH  25  26
ENDBRANCH  24  25
ENDBRANCH   4  24
TORSDOF 6
ENDMDL
MODEL 6
REMARK VINA RESULT:      -8.6      2.242      6.208
REMARK  6 active torsions:
REMARK  status: ('A' for Active; 'I' for Inactive)
REMARK    1  A    between atoms: C_7  and  C_8 
REMARK    2  A    between atoms: C_8  and  O_9 
REMARK    3  A    between atoms: N_12  and  C_13 
REMARK    4  A    between atoms: C_13  and  C_14 
REMARK    5  A    between atoms: C_14  and  C_15 
REMARK    6  A    between atoms: C_15  and  C_16 
ROOT
HETATM    1  C   UNL     1      -5.089   2.657 -31.689  1.00  0.00     0.199 A 
HETATM    2  C   UNL     1      -6.613   2.574 -31.376  1.00  0.00     0.269 A 
HETATM    3  O   UNL     1      -7.293   3.454 -30.862  1.00  0.00    -0.269 OA
HETATM    4  N   UNL     1      -7.033   1.266 -31.678  1.00  0.00    -0.314 N 
HETATM    5  C   UNL     1      -5.967   0.504 -32.182  1.00  0.00     0.047 A 
HETATM    6  C   UNL     1      -4.801   1.279 -32.226  1.00  0.00     0.017 A 
HETATM    7  C   UNL     1      -5.965  -0.821 -32.581  1.00  0.00     0.030 A 
HETATM    8  C   UNL     1      -4.762  -1.374 -33.028  1.00  0.00     0.002 A 
HETATM    9  C   UNL     1      -3.587  -0.606 -33.063  1.00  0.00     0.001 A 
HETATM   10  C   UNL     1      -3.600   0.728 -32.655  1.00  0.00     0.013 A 
ENDROOT
BRANCH   1  11
HETATM   11  C   UNL     1      -4.695   3.660 -32.748  1.00  0.00     0.025 A 
HETATM   12  C   UNL     1      -5.512   4.148 -33.771  1.00  0.00     0.016 A 
HETATM   13  C   UNL     1      -6.932   3.863 -34.117  1.00  0.00     0.069 C 
HETATM   14  N   UNL     1      -4.782   5.037 -34.514  1.00  0.00    -0.359 N 
HETATM   15  H   UNL     1      -5.126   5.542 -35.320  1.00  0.00     0.166 HD
HETATM   16  C   UNL     1      -3.519   5.178 -34.004  1.00  0.00     0.043 A 
HETATM   17  C   UNL     1      -3.423   4.330 -32.901  1.00  0.00     0.003 A 
HETATM   18  C   UNL     1      -2.467   5.994 -34.439  1.00  0.00     0.030 A 
HETATM   19  C   UNL     1      -2.197   4.310 -32.198  1.00  0.00     0.014 A 
HETATM   20  C   UNL     1      -1.135   5.121 -32.617  1.00  0.00     0.001 A 
HETATM   21  C   UNL     1      -1.270   5.951 -33.723  1.00  0.00     0.002 A 
ENDBRANCH   1  11
BRANCH   1  22
HETATM   22  O   UNL     1      -4.394   2.843 -30.455  1.00  0.00    -0.371 OA
HETATM   23  H   UNL     1      -4.422   3.807 -30.311  1.00  0.00     0.212 HD
ENDBRANCH   1  22
BRANCH   4  24
HETATM   24  C   UNL     1      -8.315   0.739 -31.270  1.00  0.00     0.133 C 
BRANCH  24  25
HETATM   25  C   UNL     1      -9.186   0.237 -32.419  1.00  0.00     0.025 C 
BRANCH  25  26
HETATM   26  C   UNL     1      -9.587   1.345 -33.396  1.00  0.00     0.040 C 
BRANCH  26  27
HETATM   27  C   UNL     1     -11.048   1.260 -33.775  1.00  0.00    -0.058 A 
HETATM   28  C   UNL     1     -11.824   0.152 -33.406  1.00  0.00     0.007 A 
HETATM   29  C   UNL     1     -13.164   0.066 -33.788  1.00  0.00     0.001 A 
HETATM   30  C   UNL     1     -13.746   1.089 -34.534  1.00  0.00     0.000 A 
HETATM   31  C   UNL     1     -12.988   2.202 -34.895  1.00  0.00     0.001 A 
HETATM   32  C   UNL     1     -11.647   2.287 -34.517  1.00  0.00     0.007 A 
ENDBRANCH  26  27
ENDBRANCH  25  26
ENDBRANCH  24  25
ENDBRANCH   4  24
TORSDOF 6
ENDMDL
MODEL 7
REMARK VINA RESULT:      -8.6      2.310      3.464
REMARK  6 active torsions:
REMARK  status: ('A' for Active; 'I' for Inactive)
REMARK    1  A    between atoms: C_7  and  C_8 
REMARK    2  A    between atoms: C_8  and  O_9 
REMARK    3  A    between atoms: N_12  and  C_13 
REMARK    4  A    between atoms: C_13  and  C_14 
REMARK    5  A    between atoms: C_14  and  C_15 
REMARK    6  A    between atoms: C_15  and  C_16 
ROOT
HETATM    1  C   UNL     1      -9.016   2.235 -31.600  1.00  0.00     0.199 A 
HETATM    2  C   UNL     1      -8.411   0.799 -31.592  1.00  0.00     0.269 A 
HETATM    3  O   UNL     1      -9.043  -0.250 -31.582  1.00  0.00    -0.269 OA
HETATM    4  N   UNL     1      -7.016   0.932 -31.472  1.00  0.00    -0.314 N 
HETATM    5  C   UNL     1      -6.645   2.286 -31.438  1.00  0.00     0.047 A 
HETATM    6  C   UNL     1      -7.784   3.098 -31.527  1.00  0.00     0.017 A 
HETATM    7  C   UNL     1      -5.380   2.833 -31.315  1.00  0.00     0.030 A 
HETATM    8  C   UNL     1      -5.263   4.225 -31.278  1.00  0.00     0.002 A 
HETATM    9  C   UNL     1      -6.402   5.044 -31.355  1.00  0.00     0.001 A 
HETATM   10  C   UNL     1      -7.672   4.482 -31.474  1.00  0.00     0.013 A 
ENDROOT
BRANCH   1  11
HETATM   11  C   UNL     1      -9.775   2.614 -32.851  1.00  0.00     0.025 A 
HETATM   12  C   UNL     1      -9.499   2.181 -34.150  1.00  0.00     0.016 A 
HETATM   13  C   UNL     1      -8.449   1.268 -34.682  1.00  0.00     0.069 C 
HETATM   14  N   UNL     1     -10.416   2.748 -34.994  1.00  0.00    -0.359 N 
HETATM   15  H   UNL     1     -10.451   2.608 -35.995  1.00  0.00     0.166 HD
HETATM   16  C   UNL     1     -11.309   3.520 -34.297  1.00  0.00     0.043 A 
HETATM   17  C   UNL     1     -10.939   3.465 -32.954  1.00  0.00     0.003 A 
HETATM   18  C   UNL     1     -12.408   4.251 -34.763  1.00  0.00     0.030 A 
HETATM   19  C   UNL     1     -11.729   4.187 -32.031  1.00  0.00     0.014 A 
HETATM   20  C   UNL     1     -12.834   4.923 -32.476  1.00  0.00     0.001 A 
HETATM   21  C   UNL     1     -13.167   4.953 -33.826  1.00  0.00     0.002 A 
ENDBRANCH   1  11
BRANCH   1  22
HETATM   22  O   UNL     1      -9.785   2.398 -30.407  1.00  0.00    -0.371 OA
HETATM   23  H   UNL     1     -10.383   3.139 -30.612  1.00  0.00     0.212 HD
ENDBRANCH   1  22
BRANCH   4  24
HETATM   24  C   UNL     1      -6.144  -0.179 -31.165  1.00  0.00     0.133 C 
BRANCH  24  25
HETATM   25  C   UNL     1      -5.091  -0.468 -32.233  1.00  0.00     0.025 C 
BRANCH  25  26
HETATM   26  C   UNL     1      -5.690  -0.673 -33.626  1.00  0.00     0.040 C 
BRANCH  26  27
HETATM   27  C   UNL     1      -5.647  -2.124 -34.049  1.00  0.00    -0.058 A 
HETATM   28  C   UNL     1      -6.788  -2.760 -34.559  1.00  0.00     0.007 A 
HETATM   29  C   UNL     1      -6.748  -4.108 -34.916  1.00  0.00     0.001 A 
HETATM   30  C   UNL     1      -5.567  -4.835 -34.776  1.00  0.00     0.000 A 
HETATM   31  C   UNL     1      -4.422  -4.211 -34.283  1.00  0.00     0.001 A 
HETATM   32  C   UNL     1      -4.462  -2.863 -33.922  1.00  0.00     0.007 A 
ENDBRANCH  26  27
ENDBRANCH  25  26
ENDBRANCH  24  25
ENDBRANCH   4  24
TORSDOF 6
ENDMDL
MODEL 8
REMARK VINA RESULT:      -8.5      2.358      3.201
REMARK  6 active torsions:
REMARK  status: ('A' for Active; 'I' for Inactive)
REMARK    1  A    between atoms: C_7  and  C_8 
REMARK    2  A    between atoms: C_8  and  O_9 
REMARK    3  A    between atoms: N_12  and  C_13 
REMARK    4  A    between atoms: C_13  and  C_14 
REMARK    5  A    between atoms: C_14  and  C_15 
REMARK    6  A    between atoms: C_15  and  C_16 
ROOT
HETATM    1  C   UNL     1      -8.856   2.952 -31.587  1.00  0.00     0.199 A 
HETATM    2  C   UNL     1      -8.598   1.426 -31.768  1.00  0.00     0.269 A 
HETATM    3  O   UNL     1      -9.173   0.522 -31.175  1.00  0.00    -0.269 OA
HETATM    4  N   UNL     1      -7.503   1.287 -32.640  1.00  0.00    -0.314 N 
HETATM    5  C   UNL     1      -7.046   2.542 -33.072  1.00  0.00     0.047 A 
HETATM    6  C   UNL     1      -7.819   3.559 -32.495  1.00  0.00     0.017 A 
HETATM    7  C   UNL     1      -5.991   2.834 -33.919  1.00  0.00     0.030 A 
HETATM    8  C   UNL     1      -5.709   4.177 -34.183  1.00  0.00     0.002 A 
HETATM    9  C   UNL     1      -6.472   5.200 -33.599  1.00  0.00     0.001 A 
HETATM   10  C   UNL     1      -7.531   4.895 -32.744  1.00  0.00     0.013 A 
ENDROOT
BRANCH   1  11
HETATM   11  C   UNL     1     -10.213   3.440 -32.040  1.00  0.00     0.025 A 
HETATM   12  C   UNL     1     -10.898   4.554 -31.548  1.00  0.00     0.016 A 
HETATM   13  C   UNL     1     -10.536   5.551 -30.502  1.00  0.00     0.069 C 
HETATM   14  N   UNL     1     -12.088   4.656 -32.219  1.00  0.00    -0.359 N 
HETATM   15  H   UNL     1     -12.784   5.373 -32.064  1.00  0.00     0.166 HD
HETATM   16  C   UNL     1     -12.204   3.666 -33.159  1.00  0.00     0.043 A 
HETATM   17  C   UNL     1     -11.053   2.882 -33.075  1.00  0.00     0.003 A 
HETATM   18  C   UNL     1     -13.238   3.418 -34.069  1.00  0.00     0.030 A 
HETATM   19  C   UNL     1     -10.942   1.789 -33.964  1.00  0.00     0.014 A 
HETATM   20  C   UNL     1     -11.966   1.526 -34.883  1.00  0.00     0.001 A 
HETATM   21  C   UNL     1     -13.098   2.331 -34.934  1.00  0.00     0.002 A 
ENDBRANCH   1  11
BRANCH   1  22
HETATM   22  O   UNL     1      -8.562   3.293 -30.231  1.00  0.00    -0.371 OA
HETATM   23  H   UNL     1      -7.846   3.950 -30.303  1.00  0.00     0.212 HD
ENDBRANCH   1  22
BRANCH   4  24
HETATM   24  C   UNL     1      -6.808   0.035 -32.834  1.00  0.00     0.133 C 
BRANCH  24  25
HETATM   25  C   UNL     1      -7.474  -0.909 -33.832  1.00  0.00     0.025 C 
BRANCH  25  26
HETATM   26  C   UNL     1      -6.549  -1.317 -34.981  1.00  0.00     0.040 C 
BRANCH  26  27
HETATM   27  C   UNL     1      -5.830  -2.615 -34.691  1.00  0.00    -0.058 A 
HETATM   28  C   UNL     1      -4.584  -2.621 -34.050  1.00  0.00     0.007 A 
HETATM   29  C   UNL     1      -3.912  -3.822 -33.815  1.00  0.00     0.001 A 
HETATM   30  C   UNL     1      -4.482  -5.031 -34.211  1.00  0.00     0.000 A 
HETATM   31  C   UNL     1      -5.727  -5.039 -34.837  1.00  0.00     0.001 A 
HETATM   32  C   UNL     1      -6.398  -3.839 -35.076  1.00  0.00     0.007 A 
ENDBRANCH  26  27
ENDBRANCH  25  26
ENDBRANCH  24  25
ENDBRANCH   4  24
TORSDOF 6
ENDMDL
MODEL 9
REMARK VINA RESULT:      -8.4      2.349      6.757
REMARK  6 active torsions:
REMARK  status: ('A' for Active; 'I' for Inactive)
REMARK    1  A    between atoms: C_7  and  C_8 
REMARK    2  A    between atoms: C_8  and  O_9 
REMARK    3  A    between atoms: N_12  and  C_13 
REMARK    4  A    between atoms: C_13  and  C_14 
REMARK    5  A    between atoms: C_14  and  C_15 
REMARK    6  A    between atoms: C_15  and  C_16 
ROOT
HETATM    1  C   UNL     1      -6.102   0.722 -31.580  1.00  0.00     0.199 A 
HETATM    2  C   UNL     1      -7.547   1.306 -31.576  1.00  0.00     0.269 A 
HETATM    3  O   UNL     1      -7.984   2.143 -30.796  1.00  0.00    -0.269 OA
HETATM    4  N   UNL     1      -8.284   0.607 -32.548  1.00  0.00    -0.314 N 
HETATM    5  C   UNL     1      -7.477  -0.336 -33.205  1.00  0.00     0.047 A 
HETATM    6  C   UNL     1      -6.176  -0.299 -32.686  1.00  0.00     0.017 A 
HETATM    7  C   UNL     1      -7.826  -1.225 -34.207  1.00  0.00     0.030 A 
HETATM    8  C   UNL     1      -6.844  -2.094 -34.689  1.00  0.00     0.002 A 
HETATM    9  C   UNL     1      -5.542  -2.070 -34.165  1.00  0.00     0.001 A 
HETATM   10  C   UNL     1      -5.202  -1.173 -33.153  1.00  0.00     0.013 A 
ENDROOT
BRANCH   1  11
HETATM   11  C   UNL     1      -5.004   1.702 -31.927  1.00  0.00     0.025 A 
HETATM   12  C   UNL     1      -3.652   1.579 -31.601  1.00  0.00     0.016 A 
HETATM   13  C   UNL     1      -2.908   0.517 -30.866  1.00  0.00     0.069 C 
HETATM   14  N   UNL     1      -2.990   2.671 -32.096  1.00  0.00    -0.359 N 
HETATM   15  H   UNL     1      -1.998   2.842 -32.004  1.00  0.00     0.166 HD
HETATM   16  C   UNL     1      -3.852   3.501 -32.765  1.00  0.00     0.043 A 
HETATM   17  C   UNL     1      -5.122   2.931 -32.678  1.00  0.00     0.003 A 
HETATM   18  C   UNL     1      -3.592   4.702 -33.436  1.00  0.00     0.030 A 
HETATM   19  C   UNL     1      -6.187   3.614 -33.309  1.00  0.00     0.014 A 
HETATM   20  C   UNL     1      -5.947   4.815 -33.987  1.00  0.00     0.001 A 
HETATM   21  C   UNL     1      -4.665   5.350 -34.048  1.00  0.00     0.002 A 
ENDBRANCH   1  11
BRANCH   1  22
HETATM   22  O   UNL     1      -5.888   0.061 -30.333  1.00  0.00    -0.371 OA
HETATM   23  H   UNL     1      -5.449  -0.774 -30.580  1.00  0.00     0.212 HD
ENDBRANCH   1  22
BRANCH   4  24
HETATM   24  C   UNL     1      -9.724   0.686 -32.649  1.00  0.00     0.133 C 
BRANCH  24  25
HETATM   25  C   UNL     1     -10.235   1.876 -33.458  1.00  0.00     0.025 C 
BRANCH  25  26
HETATM   26  C   UNL     1     -11.256   1.479 -34.528  1.00  0.00     0.040 C 
BRANCH  26  27
HETATM   27  C   UNL     1     -12.674   1.575 -34.014  1.00  0.00    -0.058 A 
HETATM   28  C   UNL     1     -13.024   2.513 -33.033  1.00  0.00     0.007 A 
HETATM   29  C   UNL     1     -14.329   2.572 -32.541  1.00  0.00     0.001 A 
HETATM   30  C   UNL     1     -15.301   1.701 -33.029  1.00  0.00     0.000 A 
HETATM   31  C   UNL     1     -14.969   0.772 -34.014  1.00  0.00     0.001 A 
HETATM   32  C   UNL     1     -13.664   0.710 -34.504  1.00  0.00     0.007 A 
ENDBRANCH  26  27
ENDBRANCH  25  26
ENDBRANCH  24  25
ENDBRANCH   4  24
TORSDOF 6
ENDMDL
MODEL 10
REMARK VINA RESULT:      -8.3      3.027      6.892
REMARK  6 active torsions:
REMARK  status: ('A' for Active; 'I' for Inactive)
REMARK    1  A    between atoms: C_7  and  C_8 
REMARK    2  A    between atoms: C_8  and  O_9 
REMARK    3  A    between atoms: N_12  and  C_13 
REMARK    4  A    between atoms: C_13  and  C_14 
REMARK    5  A    between atoms: C_14  and  C_15 
REMARK    6  A    between atoms: C_15  and  C_16 
ROOT
HETATM    1  C   UNL     1      -3.709   2.781 -31.795  1.00  0.00     0.199 A 
HETATM    2  C   UNL     1      -3.237   3.856 -32.820  1.00  0.00     0.269 A 
HETATM    3  O   UNL     1      -2.291   3.752 -33.590  1.00  0.00    -0.269 OA
HETATM    4  N   UNL     1      -4.019   5.007 -32.610  1.00  0.00    -0.314 N 
HETATM    5  C   UNL     1      -4.964   4.790 -31.595  1.00  0.00     0.047 A 
HETATM    6  C   UNL     1      -4.837   3.488 -31.091  1.00  0.00     0.017 A 
HETATM    7  C   UNL     1      -5.903   5.670 -31.085  1.00  0.00     0.030 A 
HETATM    8  C   UNL     1      -6.725   5.229 -30.045  1.00  0.00     0.002 A 
HETATM    9  C   UNL     1      -6.595   3.930 -29.528  1.00  0.00     0.001 A 
HETATM   10  C   UNL     1      -5.643   3.052 -30.046  1.00  0.00     0.013 A 
ENDROOT
BRANCH   1  11
HETATM   11  C   UNL     1      -4.262   1.509 -32.395  1.00  0.00     0.025 A 
HETATM   12  C   UNL     1      -3.783   0.215 -32.176  1.00  0.00     0.016 A 
HETATM   13  C   UNL     1      -2.660  -0.292 -31.338  1.00  0.00     0.069 C 
HETATM   14  N   UNL     1      -4.556  -0.656 -32.897  1.00  0.00    -0.359 N 
HETATM   15  H   UNL     1      -4.431  -1.659 -32.925  1.00  0.00     0.166 HD
HETATM   16  C   UNL     1      -5.549   0.012 -33.564  1.00  0.00     0.043 A 
HETATM   17  C   UNL     1      -5.396   1.368 -33.279  1.00  0.00     0.003 A 
HETATM   18  C   UNL     1      -6.563  -0.491 -34.389  1.00  0.00     0.030 A 
HETATM   19  C   UNL     1      -6.324   2.264 -33.857  1.00  0.00     0.014 A 
HETATM   20  C   UNL     1      -7.346   1.780 -34.683  1.00  0.00     0.001 A 
HETATM   21  C   UNL     1      -7.462   0.420 -34.944  1.00  0.00     0.002 A 
ENDBRANCH   1  11
BRANCH   1  22
HETATM   22  O   UNL     1      -2.642   2.549 -30.875  1.00  0.00    -0.371 OA
HETATM   23  H   UNL     1      -2.131   1.827 -31.284  1.00  0.00     0.212 HD
ENDBRANCH   1  22
BRANCH   4  24
HETATM   24  C   UNL     1      -3.696   6.291 -33.189  1.00  0.00     0.133 C 
BRANCH  24  25
HETATM   25  C   UNL     1      -2.839   7.187 -32.297  1.00  0.00     0.025 C 
BRANCH  25  26
HETATM   26  C   UNL     1      -1.337   6.977 -32.503  1.00  0.00     0.040 C 
BRANCH  26  27
HETATM   27  C   UNL     1      -0.648   6.549 -31.227  1.00  0.00    -0.058 A 
HETATM   28  C   UNL     1      -0.628   7.387 -30.104  1.00  0.00     0.007 A 
HETATM   29  C   UNL     1       0.038   6.998 -28.940  1.00  0.00     0.001 A 
HETATM   30  C   UNL     1       0.684   5.764 -28.883  1.00  0.00     0.000 A 
HETATM   31  C   UNL     1       0.660   4.916 -29.990  1.00  0.00     0.001 A 
HETATM   32  C   UNL     1      -0.003   5.306 -31.154  1.00  0.00     0.007 A 
ENDBRANCH  26  27
ENDBRANCH  25  26
ENDBRANCH  24  25
ENDBRANCH   4  24
TORSDOF 6
ENDMDL
