MODEL 1
REMARK VINA RESULT:      -6.7      0.000      0.000
REMARK  2 active torsions:
REMARK  status: ('A' for Active; 'I' for Inactive)
REMARK    1  A    between atoms: N_6  and  C_7 
REMARK    2  A    between atoms: C_12  and  N_13 
ROOT
HETATM    1  C   UNL     1      -5.862  -0.750 -33.458  1.00  0.00     0.070 A 
HETATM    2  C   UNL     1      -4.822  -1.336 -32.697  1.00  0.00     0.162 A 
HETATM    3  F   UNL     1      -4.276  -0.632 -31.689  1.00  0.00    -0.202 F 
HETATM    4  C   UNL     1      -4.300  -2.608 -32.973  1.00  0.00     0.084 A 
HETATM    5 BR   UNL     1      -2.925  -3.284 -31.852  1.00  0.00    -0.045 Br
HETATM    6  C   UNL     1      -4.832  -3.316 -34.043  1.00  0.00     0.123 A 
HETATM    7  C   UNL     1      -5.869  -2.792 -34.818  1.00  0.00     0.040 A 
HETATM    8  C   UNL     1      -6.375  -1.523 -34.518  1.00  0.00     0.035 A 
ENDROOT
BRANCH   1   9
HETATM    9  N   UNL     1      -6.429   0.501 -33.187  1.00  0.00    -0.375 N 
HETATM   10  C   UNL     1      -7.173   0.680 -31.922  1.00  0.00     0.150 C 
HETATM   11  C   UNL     1      -8.695   0.530 -32.151  1.00  0.00     0.254 C 
HETATM   12  N   UNL     1      -9.171   1.475 -33.254  1.00  0.00    -0.072 N 
HETATM   13  C   UNL     1     -10.651   1.382 -33.473  1.00  0.00     0.269 C 
HETATM   14  H   UNL     1      -8.964   2.434 -32.945  1.00  0.00     0.279 HD
HETATM   15  C   UNL     1      -8.386   1.245 -34.550  1.00  0.00     0.254 C 
HETATM   16  C   UNL     1      -6.872   1.387 -34.285  1.00  0.00     0.150 C 
ENDBRANCH   1   9
BRANCH   6  17
HETATM   17  N   UNL     1      -4.324  -4.620 -34.401  1.00  0.00    -0.114 N 
HETATM   18  O   UNL     1      -5.162  -5.504 -34.618  1.00  0.00    -0.532 OA
HETATM   19  O   UNL     1      -3.095  -4.755 -34.408  1.00  0.00    -0.532 OA
ENDBRANCH   6  17
TORSDOF 2
ENDMDL
MODEL 2
REMARK VINA RESULT:      -6.7      2.001      2.468
REMARK  2 active torsions:
REMARK  status: ('A' for Active; 'I' for Inactive)
REMARK    1  A    between atoms: N_6  and  C_7 
REMARK    2  A    between atoms: C_12  and  N_13 
ROOT
HETATM    1  C   UNL     1      -5.814  -0.339 -34.063  1.00  0.00     0.070 A 
HETATM    2  C   UNL     1      -6.235  -1.595 -34.566  1.00  0.00     0.162 A 
HETATM    3  F   UNL     1      -7.393  -1.669 -35.246  1.00  0.00    -0.202 F 
HETATM    4  C   UNL     1      -5.517  -2.780 -34.350  1.00  0.00     0.084 A 
HETATM    5 BR   UNL     1      -6.181  -4.389 -35.108  1.00  0.00    -0.045 Br
HETATM    6  C   UNL     1      -4.345  -2.711 -33.608  1.00  0.00     0.123 A 
HETATM    7  C   UNL     1      -3.876  -1.497 -33.101  1.00  0.00     0.040 A 
HETATM    8  C   UNL     1      -4.608  -0.328 -33.335  1.00  0.00     0.035 A 
ENDROOT
BRANCH   1   9
HETATM    9  N   UNL     1      -6.488   0.867 -34.290  1.00  0.00    -0.375 N 
HETATM   10  C   UNL     1      -6.055   2.068 -33.543  1.00  0.00     0.150 C 
HETATM   11  C   UNL     1      -6.957   2.305 -32.310  1.00  0.00     0.254 C 
HETATM   12  N   UNL     1      -8.428   2.363 -32.720  1.00  0.00    -0.072 N 
HETATM   13  C   UNL     1      -9.327   2.632 -31.551  1.00  0.00     0.269 C 
HETATM   14  H   UNL     1      -8.532   3.149 -33.376  1.00  0.00     0.279 HD
HETATM   15  C   UNL     1      -8.838   1.094 -33.476  1.00  0.00     0.254 C 
HETATM   16  C   UNL     1      -7.910   0.878 -34.690  1.00  0.00     0.150 C 
ENDBRANCH   1   9
BRANCH   6  17
HETATM   17  N   UNL     1      -3.570  -3.896 -33.324  1.00  0.00    -0.114 N 
HETATM   18  O   UNL     1      -3.258  -4.088 -32.143  1.00  0.00    -0.532 OA
HETATM   19  O   UNL     1      -3.241  -4.591 -34.293  1.00  0.00    -0.532 OA
ENDBRANCH   6  17
TORSDOF 2
ENDMDL
MODEL 3
REMARK VINA RESULT:      -6.7      5.461      7.177
REMARK  2 active torsions:
REMARK  status: ('A' for Active; 'I' for Inactive)
REMARK    1  A    between atoms: N_6  and  C_7 
REMARK    2  A    between atoms: C_12  and  N_13 
ROOT
HETATM    1  C   UNL     1      -9.218   0.883 -33.198  1.00  0.00     0.070 A 
HETATM    2  C   UNL     1     -10.533   0.355 -33.203  1.00  0.00     0.162 A 
HETATM    3  F   UNL     1     -10.760  -0.832 -32.615  1.00  0.00    -0.202 F 
HETATM    4  C   UNL     1     -11.607   0.997 -33.836  1.00  0.00     0.084 A 
HETATM    5 BR   UNL     1     -13.324   0.192 -33.740  1.00  0.00    -0.045 Br
HETATM    6  C   UNL     1     -11.363   2.201 -34.484  1.00  0.00     0.123 A 
HETATM    7  C   UNL     1     -10.089   2.774 -34.497  1.00  0.00     0.040 A 
HETATM    8  C   UNL     1      -9.035   2.116 -33.853  1.00  0.00     0.035 A 
ENDROOT
BRANCH   1   9
HETATM    9  N   UNL     1      -8.132   0.287 -32.546  1.00  0.00    -0.375 N 
HETATM   10  C   UNL     1      -7.688   0.852 -31.253  1.00  0.00     0.150 C 
HETATM   11  C   UNL     1      -6.484   1.801 -31.451  1.00  0.00     0.254 C 
HETATM   12  N   UNL     1      -5.357   1.095 -32.204  1.00  0.00    -0.072 N 
HETATM   13  C   UNL     1      -4.158   1.979 -32.377  1.00  0.00     0.269 C 
HETATM   14  H   UNL     1      -5.067   0.289 -31.636  1.00  0.00     0.279 HD
HETATM   15  C   UNL     1      -5.856   0.540 -33.543  1.00  0.00     0.254 C 
HETATM   16  C   UNL     1      -7.066  -0.390 -33.313  1.00  0.00     0.150 C 
ENDBRANCH   1   9
BRANCH   6  17
HETATM   17  N   UNL     1     -12.417   2.902 -35.179  1.00  0.00    -0.114 N 
HETATM   18  O   UNL     1     -12.580   2.620 -36.373  1.00  0.00    -0.532 OA
HETATM   19  O   UNL     1     -13.031   3.762 -34.537  1.00  0.00    -0.532 OA
ENDBRANCH   6  17
TORSDOF 2
ENDMDL
MODEL 4
REMARK VINA RESULT:      -6.7      2.377      3.135
REMARK  2 active torsions:
REMARK  status: ('A' for Active; 'I' for Inactive)
REMARK    1  A    between atoms: N_6  and  C_7 
REMARK    2  A    between atoms: C_12  and  N_13 
ROOT
HETATM    1  C   UNL     1      -7.127  -0.412 -32.994  1.00  0.00     0.070 A 
HETATM    2  C   UNL     1      -6.468  -1.374 -33.798  1.00  0.00     0.162 A 
HETATM    3  F   UNL     1      -7.109  -1.877 -34.868  1.00  0.00    -0.202 F 
HETATM    4  C   UNL     1      -5.187  -1.862 -33.506  1.00  0.00     0.084 A 
HETATM    5 BR   UNL     1      -4.410  -3.128 -34.687  1.00  0.00    -0.045 Br
HETATM    6  C   UNL     1      -4.543  -1.376 -32.374  1.00  0.00     0.123 A 
HETATM    7  C   UNL     1      -5.140  -0.416 -31.554  1.00  0.00     0.040 A 
HETATM    8  C   UNL     1      -6.417   0.058 -31.871  1.00  0.00     0.035 A 
ENDROOT
BRANCH   1   9
HETATM    9  N   UNL     1      -8.390   0.122 -33.277  1.00  0.00    -0.375 N 
HETATM   10  C   UNL     1      -8.521   1.057 -34.415  1.00  0.00     0.150 C 
HETATM   11  C   UNL     1      -8.495   2.524 -33.929  1.00  0.00     0.254 C 
HETATM   12  N   UNL     1      -9.554   2.754 -32.851  1.00  0.00    -0.072 N 
HETATM   13  C   UNL     1      -9.582   4.180 -32.386  1.00  0.00     0.269 C 
HETATM   14  H   UNL     1     -10.470   2.550 -33.272  1.00  0.00     0.279 HD
HETATM   15  C   UNL     1      -9.371   1.777 -31.685  1.00  0.00     0.254 C 
HETATM   16  C   UNL     1      -9.386   0.323 -32.205  1.00  0.00     0.150 C 
ENDBRANCH   1   9
BRANCH   6  17
HETATM   17  N   UNL     1      -3.234  -1.855 -31.998  1.00  0.00    -0.114 N 
HETATM   18  O   UNL     1      -3.143  -3.053 -31.700  1.00  0.00    -0.532 OA
HETATM   19  O   UNL     1      -2.326  -1.016 -31.954  1.00  0.00    -0.532 OA
ENDBRANCH   6  17
TORSDOF 2
ENDMDL
MODEL 5
REMARK VINA RESULT:      -6.6      2.429      2.651
REMARK  2 active torsions:
REMARK  status: ('A' for Active; 'I' for Inactive)
REMARK    1  A    between atoms: N_6  and  C_7 
REMARK    2  A    between atoms: C_12  and  N_13 
ROOT
HETATM    1  C   UNL     1      -4.852  -0.666 -32.941  1.00  0.00     0.070 A 
HETATM    2  C   UNL     1      -4.127  -1.883 -32.954  1.00  0.00     0.162 A 
HETATM    3  F   UNL     1      -2.966  -1.956 -32.279  1.00  0.00    -0.202 F 
HETATM    4  C   UNL     1      -4.543  -3.009 -33.678  1.00  0.00     0.084 A 
HETATM    5 BR   UNL     1      -3.489  -4.585 -33.583  1.00  0.00    -0.045 Br
HETATM    6  C   UNL     1      -5.719  -2.918 -34.413  1.00  0.00     0.123 A 
HETATM    7  C   UNL     1      -6.481  -1.748 -34.423  1.00  0.00     0.040 A 
HETATM    8  C   UNL     1      -6.046  -0.640 -33.688  1.00  0.00     0.035 A 
ENDROOT
BRANCH   1   9
HETATM    9  N   UNL     1      -4.484   0.464 -32.201  1.00  0.00    -0.375 N 
HETATM   10  C   UNL     1      -4.438   0.357 -30.726  1.00  0.00     0.150 C 
HETATM   11  C   UNL     1      -5.736   0.908 -30.093  1.00  0.00     0.254 C 
HETATM   12  N   UNL     1      -6.009   2.334 -30.574  1.00  0.00    -0.072 N 
HETATM   13  C   UNL     1      -7.242   2.912 -29.946  1.00  0.00     0.269 C 
HETATM   14  H   UNL     1      -5.212   2.914 -30.280  1.00  0.00     0.279 HD
HETATM   15  C   UNL     1      -6.064   2.395 -32.105  1.00  0.00     0.254 C 
HETATM   16  C   UNL     1      -4.762   1.825 -32.705  1.00  0.00     0.150 C 
ENDBRANCH   1   9
BRANCH   6  17
HETATM   17  N   UNL     1      -6.192  -4.030 -35.204  1.00  0.00    -0.114 N 
HETATM   18  O   UNL     1      -6.924  -4.848 -34.633  1.00  0.00    -0.532 OA
HETATM   19  O   UNL     1      -5.782  -4.099 -36.368  1.00  0.00    -0.532 OA
ENDBRANCH   6  17
TORSDOF 2
ENDMDL
MODEL 6
REMARK VINA RESULT:      -6.5      2.736      3.680
REMARK  2 active torsions:
REMARK  status: ('A' for Active; 'I' for Inactive)
REMARK    1  A    between atoms: N_6  and  C_7 
REMARK    2  A    between atoms: C_12  and  N_13 
ROOT
HETATM    1  C   UNL     1      -6.543   1.546 -33.935  1.00  0.00     0.070 A 
HETATM    2  C   UNL     1      -5.572   0.734 -33.299  1.00  0.00     0.162 A 
HETATM    3  F   UNL     1      -4.711   1.302 -32.437  1.00  0.00    -0.202 F 
HETATM    4  C   UNL     1      -5.437  -0.637 -33.561  1.00  0.00     0.084 A 
HETATM    5 BR   UNL     1      -4.112  -1.612 -32.615  1.00  0.00    -0.045 Br
HETATM    6  C   UNL     1      -6.297  -1.216 -34.487  1.00  0.00     0.123 A 
HETATM    7  C   UNL     1      -7.282  -0.465 -35.132  1.00  0.00     0.040 A 
HETATM    8  C   UNL     1      -7.399   0.900 -34.849  1.00  0.00     0.035 A 
ENDROOT
BRANCH   1   9
HETATM    9  N   UNL     1      -6.727   2.908 -33.671  1.00  0.00    -0.375 N 
HETATM   10  C   UNL     1      -5.764   3.874 -34.241  1.00  0.00     0.150 C 
HETATM   11  C   UNL     1      -4.692   4.266 -33.198  1.00  0.00     0.254 C 
HETATM   12  N   UNL     1      -5.349   4.776 -31.915  1.00  0.00    -0.072 N 
HETATM   13  C   UNL     1      -4.335   5.202 -30.896  1.00  0.00     0.269 C 
HETATM   14  H   UNL     1      -5.904   5.605 -32.164  1.00  0.00     0.279 HD
HETATM   15  C   UNL     1      -6.326   3.738 -31.349  1.00  0.00     0.254 C 
HETATM   16  C   UNL     1      -7.371   3.357 -32.419  1.00  0.00     0.150 C 
ENDBRANCH   1   9
BRANCH   6  17
HETATM   17  N   UNL     1      -6.196  -2.616 -34.825  1.00  0.00    -0.114 N 
HETATM   18  O   UNL     1      -7.063  -3.366 -34.358  1.00  0.00    -0.532 OA
HETATM   19  O   UNL     1      -5.223  -2.955 -35.508  1.00  0.00    -0.532 OA
ENDBRANCH   6  17
TORSDOF 2
ENDMDL
MODEL 7
REMARK VINA RESULT:      -6.5      4.223      5.907
REMARK  2 active torsions:
REMARK  status: ('A' for Active; 'I' for Inactive)
REMARK    1  A    between atoms: N_6  and  C_7 
REMARK    2  A    between atoms: C_12  and  N_13 
ROOT
HETATM    1  C   UNL     1     -10.739   1.817 -33.902  1.00  0.00     0.070 A 
HETATM    2  C   UNL     1      -9.456   2.405 -34.012  1.00  0.00     0.162 A 
HETATM    3  F   UNL     1      -9.333   3.588 -34.640  1.00  0.00    -0.202 F 
HETATM    4  C   UNL     1      -8.292   1.788 -33.531  1.00  0.00     0.084 A 
HETATM    5 BR   UNL     1      -6.640   2.704 -33.718  1.00  0.00    -0.045 Br
HETATM    6  C   UNL     1      -8.413   0.544 -32.923  1.00  0.00     0.123 A 
HETATM    7  C   UNL     1      -9.656  -0.075 -32.775  1.00  0.00     0.040 A 
HETATM    8  C   UNL     1     -10.802   0.565 -33.259  1.00  0.00     0.035 A 
ENDROOT
BRANCH   1   9
HETATM    9  N   UNL     1     -11.924   2.421 -34.338  1.00  0.00    -0.375 N 
HETATM   10  C   UNL     1     -12.413   3.617 -33.618  1.00  0.00     0.150 C 
HETATM   11  C   UNL     1     -13.503   3.235 -32.591  1.00  0.00     0.254 C 
HETATM   12  N   UNL     1     -14.629   2.451 -33.266  1.00  0.00    -0.072 N 
HETATM   13  C   UNL     1     -15.724   2.100 -32.302  1.00  0.00     0.269 C 
HETATM   14  H   UNL     1     -15.037   3.060 -33.987  1.00  0.00     0.279 HD
HETATM   15  C   UNL     1     -14.082   1.213 -33.984  1.00  0.00     0.254 C 
HETATM   16  C   UNL     1     -12.986   1.626 -34.990  1.00  0.00     0.150 C 
ENDBRANCH   1   9
BRANCH   6  17
HETATM   17  N   UNL     1      -7.252  -0.160 -32.431  1.00  0.00    -0.114 N 
HETATM   18  O   UNL     1      -6.697  -0.937 -33.217  1.00  0.00    -0.532 OA
HETATM   19  O   UNL     1      -6.945   0.032 -31.248  1.00  0.00    -0.532 OA
ENDBRANCH   6  17
TORSDOF 2
ENDMDL
MODEL 8
REMARK VINA RESULT:      -6.4      3.522      4.171
REMARK  2 active torsions:
REMARK  status: ('A' for Active; 'I' for Inactive)
REMARK    1  A    between atoms: N_6  and  C_7 
REMARK    2  A    between atoms: C_12  and  N_13 
ROOT
HETATM    1  C   UNL     1      -4.594   0.960 -32.404  1.00  0.00     0.070 A 
HETATM    2  C   UNL     1      -5.659   1.046 -33.334  1.00  0.00     0.162 A 
HETATM    3  F   UNL     1      -6.277   2.227 -33.509  1.00  0.00    -0.202 F 
HETATM    4  C   UNL     1      -6.131  -0.061 -34.054  1.00  0.00     0.084 A 
HETATM    5 BR   UNL     1      -7.548   0.203 -35.290  1.00  0.00    -0.045 Br
HETATM    6  C   UNL     1      -5.523  -1.291 -33.839  1.00  0.00     0.123 A 
HETATM    7  C   UNL     1      -4.459  -1.430 -32.945  1.00  0.00     0.040 A 
HETATM    8  C   UNL     1      -4.003  -0.309 -32.243  1.00  0.00     0.035 A 
ENDROOT
BRANCH   1   9
HETATM    9  N   UNL     1      -4.075   2.051 -31.696  1.00  0.00    -0.375 N 
HETATM   10  C   UNL     1      -4.863   2.601 -30.572  1.00  0.00     0.150 C 
HETATM   11  C   UNL     1      -5.673   3.839 -31.020  1.00  0.00     0.254 C 
HETATM   12  N   UNL     1      -4.757   4.880 -31.664  1.00  0.00    -0.072 N 
HETATM   13  C   UNL     1      -5.508   6.111 -32.074  1.00  0.00     0.269 C 
HETATM   14  H   UNL     1      -4.067   5.161 -30.955  1.00  0.00     0.279 HD
HETATM   15  C   UNL     1      -3.974   4.272 -32.834  1.00  0.00     0.254 C 
HETATM   16  C   UNL     1      -3.189   3.032 -32.357  1.00  0.00     0.150 C 
ENDBRANCH   1   9
BRANCH   6  17
HETATM   17  N   UNL     1      -5.977  -2.478 -34.526  1.00  0.00    -0.114 N 
HETATM   18  O   UNL     1      -7.066  -2.946 -34.170  1.00  0.00    -0.532 OA
HETATM   19  O   UNL     1      -5.215  -2.956 -35.374  1.00  0.00    -0.532 OA
ENDBRANCH   6  17
TORSDOF 2
ENDMDL
MODEL 9
REMARK VINA RESULT:      -6.4      5.419      7.434
REMARK  2 active torsions:
REMARK  status: ('A' for Active; 'I' for Inactive)
REMARK    1  A    between atoms: N_6  and  C_7 
REMARK    2  A    between atoms: C_12  and  N_13 
ROOT
HETATM    1  C   UNL     1      -9.240   1.595 -33.739  1.00  0.00     0.070 A 
HETATM    2  C   UNL     1      -9.977   2.717 -34.190  1.00  0.00     0.162 A 
HETATM    3  F   UNL     1      -9.313   3.833 -34.541  1.00  0.00    -0.202 F 
HETATM    4  C   UNL     1     -11.378   2.735 -34.247  1.00  0.00     0.084 A 
HETATM    5 BR   UNL     1     -12.236   4.297 -34.900  1.00  0.00    -0.045 Br
HETATM    6  C   UNL     1     -12.065   1.598 -33.839  1.00  0.00     0.123 A 
HETATM    7  C   UNL     1     -11.388   0.458 -33.400  1.00  0.00     0.040 A 
HETATM    8  C   UNL     1      -9.990   0.465 -33.358  1.00  0.00     0.035 A 
ENDROOT
BRANCH   1   9
HETATM    9  N   UNL     1      -7.842   1.532 -33.704  1.00  0.00    -0.375 N 
HETATM   10  C   UNL     1      -7.115   1.289 -34.969  1.00  0.00     0.150 C 
HETATM   11  C   UNL     1      -6.740  -0.204 -35.112  1.00  0.00     0.254 C 
HETATM   12  N   UNL     1      -5.967  -0.687 -33.884  1.00  0.00    -0.072 N 
HETATM   13  C   UNL     1      -5.555  -2.123 -34.011  1.00  0.00     0.269 C 
HETATM   14  H   UNL     1      -5.109  -0.124 -33.822  1.00  0.00     0.279 HD
HETATM   15  C   UNL     1      -6.763  -0.432 -32.599  1.00  0.00     0.254 C 
HETATM   16  C   UNL     1      -7.134   1.063 -32.494  1.00  0.00     0.150 C 
ENDBRANCH   1   9
BRANCH   6  17
HETATM   17  N   UNL     1     -13.508   1.557 -33.845  1.00  0.00    -0.114 N 
HETATM   18  O   UNL     1     -14.052   1.235 -34.909  1.00  0.00    -0.532 OA
HETATM   19  O   UNL     1     -14.079   1.898 -32.803  1.00  0.00    -0.532 OA
ENDBRANCH   6  17
TORSDOF 2
ENDMDL
MODEL 10
REMARK VINA RESULT:      -6.4      5.903      7.287
REMARK  2 active torsions:
REMARK  status: ('A' for Active; 'I' for Inactive)
REMARK    1  A    between atoms: N_6  and  C_7 
REMARK    2  A    between atoms: C_12  and  N_13 
ROOT
HETATM    1  C   UNL     1      -4.751   3.969 -33.187  1.00  0.00     0.070 A 
HETATM    2  C   UNL     1      -3.622   4.143 -32.349  1.00  0.00     0.162 A 
HETATM    3  F   UNL     1      -3.587   3.509 -31.163  1.00  0.00    -0.202 F 
HETATM    4  C   UNL     1      -2.552   4.987 -32.680  1.00  0.00     0.084 A 
HETATM    5 BR   UNL     1      -1.088   5.105 -31.477  1.00  0.00    -0.045 Br
HETATM    6  C   UNL     1      -2.610   5.678 -33.884  1.00  0.00     0.123 A 
HETATM    7  C   UNL     1      -3.692   5.532 -34.755  1.00  0.00     0.040 A 
HETATM    8  C   UNL     1      -4.745   4.680 -34.403  1.00  0.00     0.035 A 
ENDROOT
BRANCH   1   9
HETATM    9  N   UNL     1      -5.818   3.108 -32.903  1.00  0.00    -0.375 N 
HETATM   10  C   UNL     1      -6.739   3.466 -31.803  1.00  0.00     0.150 C 
HETATM   11  C   UNL     1      -6.365   2.717 -30.504  1.00  0.00     0.254 C 
HETATM   12  N   UNL     1      -6.296   1.210 -30.749  1.00  0.00    -0.072 N 
HETATM   13  C   UNL     1      -5.973   0.451 -29.497  1.00  0.00     0.269 C 
HETATM   14  H   UNL     1      -7.229   0.908 -31.061  1.00  0.00     0.279 HD
HETATM   15  C   UNL     1      -5.319   0.883 -31.884  1.00  0.00     0.254 C 
HETATM   16  C   UNL     1      -5.711   1.657 -33.161  1.00  0.00     0.150 C 
ENDBRANCH   1   9
BRANCH   6  17
HETATM   17  N   UNL     1      -1.556   6.585 -34.275  1.00  0.00    -0.114 N 
HETATM   18  O   UNL     1      -1.702   7.775 -33.969  1.00  0.00    -0.532 OA
HETATM   19  O   UNL     1      -0.623   6.104 -34.928  1.00  0.00    -0.532 OA
ENDBRANCH   6  17
TORSDOF 2
ENDMDL
