MODEL 1
REMARK VINA RESULT:      -9.7      0.000      0.000
REMARK  8 active torsions:
REMARK  status: ('A' for Active; 'I' for Inactive)
REMARK    1  A    between atoms: C_7  and  C_8 
REMARK       I    between atoms: C_8  and  N_9 
REMARK    2  A    between atoms: N_9  and  N_10 
REMARK    3  A    between atoms: N_10  and  C_11 
REMARK    4  A    between atoms: C_11  and  N_12 
REMARK    5  A    between atoms: N_12  and  C_13 
REMARK    6  A    between atoms: N_15  and  C_16 
REMARK    7  A    between atoms: C_16  and  C_17 
REMARK    8  A    between atoms: C_29  and  C_30 
ROOT
HETATM    1  C   UNL     1      -6.826   4.982 -32.143  1.00  0.00     0.290 C 
HETATM    2  N   UNL     1      -7.092   3.694 -32.565  1.00  0.00    -0.262 N 
HETATM    3  O   UNL     1      -7.682   5.812 -31.847  1.00  0.00    -0.264 OA
HETATM    4  H   UNL     1      -6.308   3.055 -32.698  1.00  0.00     0.190 HD
ENDROOT
BRANCH   2   5
HETATM    5  N   UNL     1      -8.385   3.176 -32.564  1.00  0.00    -0.273 N 
HETATM    6  H   UNL     1      -8.832   2.994 -33.470  1.00  0.00     0.189 HD
BRANCH   5   7
HETATM    7  C   UNL     1      -8.927   2.612 -31.440  1.00  0.00     0.192 C 
HETATM    8  S   UNL     1      -9.958   3.404 -30.378  1.00  0.00    -0.039 SA
BRANCH   7   9
HETATM    9  N   UNL     1      -8.599   1.317 -31.159  1.00  0.00    -0.315 N 
HETATM   10  H   UNL     1      -9.242   0.829 -30.552  1.00  0.00     0.170 HD
BRANCH   9  11
HETATM   11  C   UNL     1      -7.463   0.633 -31.535  1.00  0.00     0.151 A 
HETATM   12  N   UNL     1      -7.029   0.518 -32.794  1.00  0.00    -0.154 NA
HETATM   13  N   UNL     1      -5.890  -0.200 -32.690  1.00  0.00    -0.275 N 
HETATM   14  C   UNL     1      -5.596  -0.554 -31.404  1.00  0.00     0.116 A 
HETATM   15  C   UNL     1      -6.604  -0.031 -30.630  1.00  0.00     0.071 A 
BRANCH  13  16
HETATM   16  C   UNL     1      -5.156  -0.589 -33.887  1.00  0.00     0.192 C 
BRANCH  16  17
HETATM   17  C   UNL     1      -5.297  -2.057 -34.173  1.00  0.00     0.000 A 
HETATM   18  C   UNL     1      -6.488  -2.563 -34.698  1.00  0.00     0.124 A 
HETATM   19  F   UNL     1      -7.508  -1.731 -34.956  1.00  0.00    -0.205 F 
HETATM   20  C   UNL     1      -6.642  -3.920 -34.970  1.00  0.00     0.043 A 
HETATM   21  C   UNL     1      -5.590  -4.797 -34.714  1.00  0.00     0.003 A 
HETATM   22  C   UNL     1      -4.396  -4.311 -34.180  1.00  0.00     0.001 A 
HETATM   23  C   UNL     1      -4.249  -2.949 -33.905  1.00  0.00     0.012 A 
ENDBRANCH  16  17
ENDBRANCH  13  16
ENDBRANCH   9  11
ENDBRANCH   7   9
ENDBRANCH   5   7
ENDBRANCH   2   5
BRANCH   1  24
HETATM   24  C   UNL     1      -5.380   5.256 -32.092  1.00  0.00     0.150 A 
HETATM   25  N   UNL     1      -4.720   5.766 -33.157  1.00  0.00    -0.165 NA
HETATM   26  N   UNL     1      -3.452   5.864 -32.728  1.00  0.00    -0.240 N 
HETATM   27  C   UNL     1      -3.270   5.475 -31.430  1.00  0.00     0.123 A 
HETATM   28  C   UNL     1      -2.401   6.394 -33.576  1.00  0.00     0.221 C 
HETATM   29  N   UNL     1      -2.063   5.575 -30.826  1.00  0.00    -0.371 N 
HETATM   30  C   UNL     1      -4.500   5.056 -30.991  1.00  0.00     0.089 A 
HETATM   31  C   UNL     1      -0.871   5.916 -31.599  1.00  0.00     0.081 C 
HETATM   32  H   UNL     1      -1.902   5.090 -29.944  1.00  0.00     0.161 HD
HETATM   33  C   UNL     1       0.180   6.511 -30.667  1.00  0.00     0.032 C 
HETATM   34  C   UNL     1      -1.245   6.919 -32.704  1.00  0.00     0.061 C 
BRANCH  28  35
HETATM   35  C   UNL     1      -1.945   5.337 -34.558  1.00  0.00     0.409 C 
HETATM   36  F   UNL     1      -0.731   5.603 -35.086  1.00  0.00    -0.169 F 
HETATM   37  F   UNL     1      -1.833   4.140 -33.923  1.00  0.00    -0.169 F 
HETATM   38  F   UNL     1      -2.808   5.151 -35.580  1.00  0.00    -0.169 F 
ENDBRANCH  28  35
ENDBRANCH   1  24
TORSDOF 8
ENDMDL
MODEL 2
REMARK VINA RESULT:      -9.4      4.028      7.038
REMARK  8 active torsions:
REMARK  status: ('A' for Active; 'I' for Inactive)
REMARK    1  A    between atoms: C_7  and  C_8 
REMARK       I    between atoms: C_8  and  N_9 
REMARK    2  A    between atoms: N_9  and  N_10 
REMARK    3  A    between atoms: N_10  and  C_11 
REMARK    4  A    between atoms: C_11  and  N_12 
REMARK    5  A    between atoms: N_12  and  C_13 
REMARK    6  A    between atoms: N_15  and  C_16 
REMARK    7  A    between atoms: C_16  and  C_17 
REMARK    8  A    between atoms: C_29  and  C_30 
ROOT
HETATM    1  C   UNL     1      -3.947   1.917 -31.247  1.00  0.00     0.290 C 
HETATM    2  N   UNL     1      -5.123   2.289 -30.626  1.00  0.00    -0.262 N 
HETATM    3  O   UNL     1      -2.928   2.602 -31.283  1.00  0.00    -0.264 OA
HETATM    4  H   UNL     1      -5.882   1.609 -30.574  1.00  0.00     0.190 HD
ENDROOT
BRANCH   2   5
HETATM    5  N   UNL     1      -5.210   3.448 -29.857  1.00  0.00    -0.273 N 
HETATM    6  H   UNL     1      -4.402   4.081 -29.847  1.00  0.00     0.189 HD
BRANCH   5   7
HETATM    7  C   UNL     1      -6.415   3.915 -29.404  1.00  0.00     0.192 C 
HETATM    8  S   UNL     1      -6.657   5.438 -28.738  1.00  0.00    -0.039 SA
BRANCH   7   9
HETATM    9  N   UNL     1      -7.491   3.081 -29.489  1.00  0.00    -0.315 N 
HETATM   10  H   UNL     1      -7.573   2.400 -28.747  1.00  0.00     0.170 HD
BRANCH   9  11
HETATM   11  C   UNL     1      -8.423   3.005 -30.502  1.00  0.00     0.151 A 
HETATM   12  N   UNL     1      -8.264   2.305 -31.629  1.00  0.00    -0.154 NA
HETATM   13  N   UNL     1      -9.417   2.493 -32.305  1.00  0.00    -0.275 N 
HETATM   14  C   UNL     1     -10.299   3.301 -31.644  1.00  0.00     0.116 A 
HETATM   15  C   UNL     1      -9.679   3.654 -30.471  1.00  0.00     0.071 A 
BRANCH  13  16
HETATM   16  C   UNL     1      -9.589   1.926 -33.636  1.00  0.00     0.192 C 
BRANCH  16  17
HETATM   17  C   UNL     1     -10.982   1.405 -33.843  1.00  0.00     0.000 A 
HETATM   18  C   UNL     1     -11.368   0.181 -33.291  1.00  0.00     0.124 A 
HETATM   19  F   UNL     1     -10.491  -0.526 -32.563  1.00  0.00    -0.205 F 
HETATM   20  C   UNL     1     -12.653  -0.323 -33.471  1.00  0.00     0.043 A 
HETATM   21  C   UNL     1     -13.578   0.402 -34.219  1.00  0.00     0.003 A 
HETATM   22  C   UNL     1     -13.208   1.622 -34.787  1.00  0.00     0.001 A 
HETATM   23  C   UNL     1     -11.916   2.120 -34.606  1.00  0.00     0.012 A 
ENDBRANCH  16  17
ENDBRANCH  13  16
ENDBRANCH   9  11
ENDBRANCH   7   9
ENDBRANCH   5   7
ENDBRANCH   2   5
BRANCH   1  24
HETATM   24  C   UNL     1      -4.054   0.589 -31.874  1.00  0.00     0.150 A 
HETATM   25  N   UNL     1      -4.758   0.401 -33.015  1.00  0.00    -0.165 NA
HETATM   26  N   UNL     1      -4.624  -0.911 -33.259  1.00  0.00    -0.240 N 
HETATM   27  C   UNL     1      -3.840  -1.570 -32.353  1.00  0.00     0.123 A 
HETATM   28  C   UNL     1      -5.224  -1.534 -34.423  1.00  0.00     0.221 C 
HETATM   29  N   UNL     1      -3.552  -2.885 -32.493  1.00  0.00    -0.371 N 
HETATM   30  C   UNL     1      -3.468  -0.629 -31.428  1.00  0.00     0.089 A 
HETATM   31  C   UNL     1      -4.228  -3.690 -33.509  1.00  0.00     0.081 C 
HETATM   32  H   UNL     1      -3.151  -3.398 -31.709  1.00  0.00     0.161 HD
HETATM   33  C   UNL     1      -3.366  -4.903 -33.846  1.00  0.00     0.032 C 
HETATM   34  C   UNL     1      -4.471  -2.834 -34.764  1.00  0.00     0.061 C 
BRANCH  28  35
HETATM   35  C   UNL     1      -6.699  -1.770 -34.183  1.00  0.00     0.409 C 
HETATM   36  F   UNL     1      -7.486  -1.021 -34.985  1.00  0.00    -0.169 F 
HETATM   37  F   UNL     1      -7.004  -3.068 -34.451  1.00  0.00    -0.169 F 
HETATM   38  F   UNL     1      -7.074  -1.542 -32.906  1.00  0.00    -0.169 F 
ENDBRANCH  28  35
ENDBRANCH   1  24
TORSDOF 8
ENDMDL
MODEL 3
REMARK VINA RESULT:      -9.3      2.516      8.489
REMARK  8 active torsions:
REMARK  status: ('A' for Active; 'I' for Inactive)
REMARK    1  A    between atoms: C_7  and  C_8 
REMARK       I    between atoms: C_8  and  N_9 
REMARK    2  A    between atoms: N_9  and  N_10 
REMARK    3  A    between atoms: N_10  and  C_11 
REMARK    4  A    between atoms: C_11  and  N_12 
REMARK    5  A    between atoms: N_12  and  C_13 
REMARK    6  A    between atoms: N_15  and  C_16 
REMARK    7  A    between atoms: C_16  and  C_17 
REMARK    8  A    between atoms: C_29  and  C_30 
ROOT
HETATM    1  C   UNL     1      -3.676   2.293 -31.405  1.00  0.00     0.290 C 
HETATM    2  N   UNL     1      -4.791   2.713 -30.706  1.00  0.00    -0.262 N 
HETATM    3  O   UNL     1      -2.665   2.968 -31.578  1.00  0.00    -0.264 OA
HETATM    4  H   UNL     1      -5.542   2.042 -30.542  1.00  0.00     0.190 HD
ENDROOT
BRANCH   2   5
HETATM    5  N   UNL     1      -4.808   3.919 -30.010  1.00  0.00    -0.273 N 
HETATM    6  H   UNL     1      -3.976   4.172 -29.464  1.00  0.00     0.189 HD
BRANCH   5   7
HETATM    7  C   UNL     1      -5.728   4.893 -30.291  1.00  0.00     0.192 C 
HETATM    8  S   UNL     1      -7.030   5.287 -29.307  1.00  0.00    -0.039 SA
BRANCH   7   9
HETATM    9  N   UNL     1      -5.583   5.585 -31.459  1.00  0.00    -0.315 N 
HETATM   10  H   UNL     1      -6.439   5.764 -31.966  1.00  0.00     0.170 HD
BRANCH   9  11
HETATM   11  C   UNL     1      -4.412   5.992 -32.060  1.00  0.00     0.151 A 
HETATM   12  N   UNL     1      -3.393   6.574 -31.420  1.00  0.00    -0.154 NA
HETATM   13  N   UNL     1      -2.465   6.771 -32.381  1.00  0.00    -0.275 N 
HETATM   14  C   UNL     1      -2.869   6.341 -33.613  1.00  0.00     0.116 A 
HETATM   15  C   UNL     1      -4.134   5.834 -33.437  1.00  0.00     0.071 A 
BRANCH  13  16
HETATM   16  C   UNL     1      -1.219   7.458 -32.067  1.00  0.00     0.192 C 
BRANCH  16  17
HETATM   17  C   UNL     1      -0.534   6.852 -30.876  1.00  0.00     0.000 A 
HETATM   18  C   UNL     1      -0.019   5.555 -30.941  1.00  0.00     0.124 A 
HETATM   19  F   UNL     1      -0.131   4.851 -32.077  1.00  0.00    -0.205 F 
HETATM   20  C   UNL     1       0.618   4.971 -29.849  1.00  0.00     0.043 A 
HETATM   21  C   UNL     1       0.747   5.692 -28.663  1.00  0.00     0.003 A 
HETATM   22  C   UNL     1       0.231   6.985 -28.576  1.00  0.00     0.001 A 
HETATM   23  C   UNL     1      -0.411   7.562 -29.674  1.00  0.00     0.012 A 
ENDBRANCH  16  17
ENDBRANCH  13  16
ENDBRANCH   9  11
ENDBRANCH   7   9
ENDBRANCH   5   7
ENDBRANCH   2   5
BRANCH   1  24
HETATM   24  C   UNL     1      -3.840   0.928 -31.933  1.00  0.00     0.150 A 
HETATM   25  N   UNL     1      -4.625   0.675 -33.006  1.00  0.00    -0.165 NA
HETATM   26  N   UNL     1      -4.521  -0.653 -33.169  1.00  0.00    -0.240 N 
HETATM   27  C   UNL     1      -3.682  -1.261 -32.278  1.00  0.00     0.123 A 
HETATM   28  C   UNL     1      -5.208  -1.343 -34.244  1.00  0.00     0.221 C 
HETATM   29  N   UNL     1      -3.418  -2.586 -32.349  1.00  0.00    -0.371 N 
HETATM   30  C   UNL     1      -3.236  -0.266 -31.447  1.00  0.00     0.089 A 
HETATM   31  C   UNL     1      -4.172  -3.447 -33.258  1.00  0.00     0.081 C 
HETATM   32  H   UNL     1      -2.967  -3.052 -31.562  1.00  0.00     0.161 HD
HETATM   33  C   UNL     1      -3.348  -4.692 -33.572  1.00  0.00     0.032 C 
HETATM   34  C   UNL     1      -4.495  -2.674 -34.548  1.00  0.00     0.061 C 
BRANCH  28  35
HETATM   35  C   UNL     1      -6.665  -1.541 -33.886  1.00  0.00     0.409 C 
HETATM   36  F   UNL     1      -6.931  -1.244 -32.596  1.00  0.00    -0.169 F 
HETATM   37  F   UNL     1      -7.437  -0.710 -34.637  1.00  0.00    -0.169 F 
HETATM   38  F   UNL     1      -7.107  -2.794 -34.122  1.00  0.00    -0.169 F 
ENDBRANCH  28  35
ENDBRANCH   1  24
TORSDOF 8
ENDMDL
MODEL 4
REMARK VINA RESULT:      -9.0      1.727      2.506
REMARK  8 active torsions:
REMARK  status: ('A' for Active; 'I' for Inactive)
REMARK    1  A    between atoms: C_7  and  C_8 
REMARK       I    between atoms: C_8  and  N_9 
REMARK    2  A    between atoms: N_9  and  N_10 
REMARK    3  A    between atoms: N_10  and  C_11 
REMARK    4  A    between atoms: C_11  and  N_12 
REMARK    5  A    between atoms: N_12  and  C_13 
REMARK    6  A    between atoms: N_15  and  C_16 
REMARK    7  A    between atoms: C_16  and  C_17 
REMARK    8  A    between atoms: C_29  and  C_30 
ROOT
HETATM    1  C   UNL     1      -6.637   6.281 -31.779  1.00  0.00     0.290 C 
HETATM    2  N   UNL     1      -7.272   6.601 -32.963  1.00  0.00    -0.262 N 
HETATM    3  O   UNL     1      -7.211   6.019 -30.726  1.00  0.00    -0.264 OA
HETATM    4  H   UNL     1      -6.704   6.713 -33.804  1.00  0.00     0.190 HD
ENDROOT
BRANCH   2   5
HETATM    5  N   UNL     1      -8.656   6.521 -33.096  1.00  0.00    -0.273 N 
HETATM    6  H   UNL     1      -9.171   7.385 -33.302  1.00  0.00     0.189 HD
BRANCH   5   7
HETATM    7  C   UNL     1      -9.287   5.321 -33.283  1.00  0.00     0.192 C 
HETATM    8  S   UNL     1     -10.750   4.892 -32.577  1.00  0.00    -0.039 SA
BRANCH   7   9
HETATM    9  N   UNL     1      -8.681   4.405 -34.093  1.00  0.00    -0.315 N 
HETATM   10  H   UNL     1      -8.927   4.461 -35.071  1.00  0.00     0.170 HD
BRANCH   9  11
HETATM   11  C   UNL     1      -7.844   3.374 -33.724  1.00  0.00     0.151 A 
HETATM   12  N   UNL     1      -8.237   2.274 -33.073  1.00  0.00    -0.154 NA
HETATM   13  N   UNL     1      -7.111   1.540 -32.948  1.00  0.00    -0.275 N 
HETATM   14  C   UNL     1      -6.014   2.147 -33.491  1.00  0.00     0.116 A 
HETATM   15  C   UNL     1      -6.458   3.344 -33.998  1.00  0.00     0.071 A 
BRANCH  13  16
HETATM   16  C   UNL     1      -7.134   0.280 -32.219  1.00  0.00     0.192 C 
BRANCH  16  17
HETATM   17  C   UNL     1      -6.355  -0.790 -32.931  1.00  0.00     0.000 A 
HETATM   18  C   UNL     1      -5.044  -1.081 -32.549  1.00  0.00     0.124 A 
HETATM   19  F   UNL     1      -4.481  -0.407 -31.534  1.00  0.00    -0.205 F 
HETATM   20  C   UNL     1      -4.302  -2.066 -33.194  1.00  0.00     0.043 A 
HETATM   21  C   UNL     1      -4.874  -2.779 -34.246  1.00  0.00     0.003 A 
HETATM   22  C   UNL     1      -6.179  -2.496 -34.649  1.00  0.00     0.001 A 
HETATM   23  C   UNL     1      -6.917  -1.502 -33.999  1.00  0.00     0.012 A 
ENDBRANCH  16  17
ENDBRANCH  13  16
ENDBRANCH   9  11
ENDBRANCH   7   9
ENDBRANCH   5   7
ENDBRANCH   2   5
BRANCH   1  24
HETATM   24  C   UNL     1      -5.171   6.296 -31.920  1.00  0.00     0.150 A 
HETATM   25  N   UNL     1      -4.579   6.450 -33.128  1.00  0.00    -0.165 NA
HETATM   26  N   UNL     1      -3.268   6.405 -32.848  1.00  0.00    -0.240 N 
HETATM   27  C   UNL     1      -2.986   6.267 -31.517  1.00  0.00     0.123 A 
HETATM   28  C   UNL     1      -2.263   6.553 -33.883  1.00  0.00     0.221 C 
HETATM   29  N   UNL     1      -1.712   6.271 -31.062  1.00  0.00    -0.371 N 
HETATM   30  C   UNL     1      -4.200   6.173 -30.887  1.00  0.00     0.089 A 
HETATM   31  C   UNL     1      -0.588   6.226 -31.995  1.00  0.00     0.081 C 
HETATM   32  H   UNL     1      -1.517   5.958 -30.111  1.00  0.00     0.161 HD
HETATM   33  C   UNL     1       0.652   6.804 -31.319  1.00  0.00     0.032 C 
HETATM   34  C   UNL     1      -0.938   7.031 -33.259  1.00  0.00     0.061 C 
BRANCH  28  35
HETATM   35  C   UNL     1      -2.105   5.253 -34.641  1.00  0.00     0.409 C 
HETATM   36  F   UNL     1      -2.215   4.167 -33.845  1.00  0.00    -0.169 F 
HETATM   37  F   UNL     1      -3.088   5.145 -35.574  1.00  0.00    -0.169 F 
HETATM   38  F   UNL     1      -0.933   5.161 -35.304  1.00  0.00    -0.169 F 
ENDBRANCH  28  35
ENDBRANCH   1  24
TORSDOF 8
ENDMDL
MODEL 5
REMARK VINA RESULT:      -8.9      2.090      2.772
REMARK  8 active torsions:
REMARK  status: ('A' for Active; 'I' for Inactive)
REMARK    1  A    between atoms: C_7  and  C_8 
REMARK       I    between atoms: C_8  and  N_9 
REMARK    2  A    between atoms: N_9  and  N_10 
REMARK    3  A    between atoms: N_10  and  C_11 
REMARK    4  A    between atoms: C_11  and  N_12 
REMARK    5  A    between atoms: N_12  and  C_13 
REMARK    6  A    between atoms: N_15  and  C_16 
REMARK    7  A    between atoms: C_16  and  C_17 
REMARK    8  A    between atoms: C_29  and  C_30 
ROOT
HETATM    1  C   UNL     1      -7.052   6.025 -32.252  1.00  0.00     0.290 C 
HETATM    2  N   UNL     1      -7.646   4.951 -32.885  1.00  0.00    -0.262 N 
HETATM    3  O   UNL     1      -7.656   7.001 -31.816  1.00  0.00    -0.264 OA
HETATM    4  H   UNL     1      -7.064   4.148 -33.128  1.00  0.00     0.190 HD
ENDROOT
BRANCH   2   5
HETATM    5  N   UNL     1      -9.031   4.823 -32.966  1.00  0.00    -0.273 N 
HETATM    6  H   UNL     1      -9.489   5.092 -33.844  1.00  0.00     0.189 HD
BRANCH   5   7
HETATM    7  C   UNL     1      -9.731   4.066 -32.066  1.00  0.00     0.192 C 
HETATM    8  S   UNL     1     -10.191   4.586 -30.536  1.00  0.00    -0.039 SA
BRANCH   7   9
HETATM    9  N   UNL     1     -10.071   2.796 -32.433  1.00  0.00    -0.315 N 
HETATM   10  H   UNL     1     -11.049   2.562 -32.331  1.00  0.00     0.170 HD
BRANCH   9  11
HETATM   11  C   UNL     1      -9.233   1.782 -32.845  1.00  0.00     0.151 A 
HETATM   12  N   UNL     1      -7.993   1.964 -33.309  1.00  0.00    -0.154 NA
HETATM   13  N   UNL     1      -7.545   0.716 -33.561  1.00  0.00    -0.275 N 
HETATM   14  C   UNL     1      -8.467  -0.251 -33.280  1.00  0.00     0.116 A 
HETATM   15  C   UNL     1      -9.578   0.411 -32.818  1.00  0.00     0.071 A 
BRANCH  13  16
HETATM   16  C   UNL     1      -6.229   0.515 -34.153  1.00  0.00     0.192 C 
BRANCH  16  17
HETATM   17  C   UNL     1      -5.155   0.426 -33.106  1.00  0.00     0.000 A 
HETATM   18  C   UNL     1      -4.520   1.583 -32.646  1.00  0.00     0.124 A 
HETATM   19  F   UNL     1      -4.878   2.778 -33.138  1.00  0.00    -0.205 F 
HETATM   20  C   UNL     1      -3.521   1.526 -31.678  1.00  0.00     0.043 A 
HETATM   21  C   UNL     1      -3.142   0.292 -31.153  1.00  0.00     0.003 A 
HETATM   22  C   UNL     1      -3.758  -0.875 -31.606  1.00  0.00     0.001 A 
HETATM   23  C   UNL     1      -4.757  -0.811 -32.581  1.00  0.00     0.012 A 
ENDBRANCH  16  17
ENDBRANCH  13  16
ENDBRANCH   9  11
ENDBRANCH   7   9
ENDBRANCH   5   7
ENDBRANCH   2   5
BRANCH   1  24
HETATM   24  C   UNL     1      -5.590   5.870 -32.162  1.00  0.00     0.150 A 
HETATM   25  N   UNL     1      -4.777   6.232 -33.182  1.00  0.00    -0.165 NA
HETATM   26  N   UNL     1      -3.549   5.938 -32.729  1.00  0.00    -0.240 N 
HETATM   27  C   UNL     1      -3.528   5.438 -31.457  1.00  0.00     0.123 A 
HETATM   28  C   UNL     1      -2.363   6.193 -33.525  1.00  0.00     0.221 C 
HETATM   29  N   UNL     1      -2.363   5.153 -30.830  1.00  0.00    -0.371 N 
HETATM   30  C   UNL     1      -4.840   5.363 -31.064  1.00  0.00     0.089 A 
HETATM   31  C   UNL     1      -1.098   5.183 -31.561  1.00  0.00     0.081 C 
HETATM   32  H   UNL     1      -2.375   4.592 -29.979  1.00  0.00     0.161 HD
HETATM   33  C   UNL     1       0.047   5.398 -30.577  1.00  0.00     0.032 C 
HETATM   34  C   UNL     1      -1.135   6.315 -32.604  1.00  0.00     0.061 C 
BRANCH  28  35
HETATM   35  C   UNL     1      -2.195   5.110 -34.567  1.00  0.00     0.409 C 
HETATM   36  F   UNL     1      -3.126   5.175 -35.544  1.00  0.00    -0.169 F 
HETATM   37  F   UNL     1      -0.988   5.249 -35.180  1.00  0.00    -0.169 F 
HETATM   38  F   UNL     1      -2.224   3.863 -34.051  1.00  0.00    -0.169 F 
ENDBRANCH  28  35
ENDBRANCH   1  24
TORSDOF 8
ENDMDL
MODEL 6
REMARK VINA RESULT:      -8.9      2.023      2.325
REMARK  8 active torsions:
REMARK  status: ('A' for Active; 'I' for Inactive)
REMARK    1  A    between atoms: C_7  and  C_8 
REMARK       I    between atoms: C_8  and  N_9 
REMARK    2  A    between atoms: N_9  and  N_10 
REMARK    3  A    between atoms: N_10  and  C_11 
REMARK    4  A    between atoms: C_11  and  N_12 
REMARK    5  A    between atoms: N_12  and  C_13 
REMARK    6  A    between atoms: N_15  and  C_16 
REMARK    7  A    between atoms: C_16  and  C_17 
REMARK    8  A    between atoms: C_29  and  C_30 
ROOT
HETATM    1  C   UNL     1      -5.486   3.949 -32.446  1.00  0.00     0.290 C 
HETATM    2  N   UNL     1      -6.622   3.978 -31.662  1.00  0.00    -0.262 N 
HETATM    3  O   UNL     1      -5.404   3.398 -33.540  1.00  0.00    -0.264 OA
HETATM    4  H   UNL     1      -6.612   4.541 -30.811  1.00  0.00     0.190 HD
ENDROOT
BRANCH   2   5
HETATM    5  N   UNL     1      -7.841   3.481 -32.121  1.00  0.00    -0.273 N 
HETATM    6  H   UNL     1      -7.973   3.393 -33.135  1.00  0.00     0.189 HD
BRANCH   5   7
HETATM    7  C   UNL     1      -8.702   2.821 -31.287  1.00  0.00     0.192 C 
HETATM    8  S   UNL     1     -10.046   3.518 -30.559  1.00  0.00    -0.039 SA
BRANCH   7   9
HETATM    9  N   UNL     1      -8.446   1.508 -31.021  1.00  0.00    -0.315 N 
HETATM   10  H   UNL     1      -9.092   1.060 -30.385  1.00  0.00     0.170 HD
BRANCH   9  11
HETATM   11  C   UNL     1      -7.376   0.751 -31.448  1.00  0.00     0.151 A 
HETATM   12  N   UNL     1      -6.965   0.668 -32.717  1.00  0.00    -0.154 NA
HETATM   13  N   UNL     1      -5.890  -0.147 -32.666  1.00  0.00    -0.275 N 
HETATM   14  C   UNL     1      -5.613  -0.592 -31.404  1.00  0.00     0.116 A 
HETATM   15  C   UNL     1      -6.567  -0.029 -30.591  1.00  0.00     0.071 A 
BRANCH  13  16
HETATM   16  C   UNL     1      -5.202  -0.532 -33.891  1.00  0.00     0.192 C 
BRANCH  16  17
HETATM   17  C   UNL     1      -5.346  -2.000 -34.173  1.00  0.00     0.000 A 
HETATM   18  C   UNL     1      -6.558  -2.514 -34.642  1.00  0.00     0.124 A 
HETATM   19  F   UNL     1      -7.594  -1.688 -34.849  1.00  0.00    -0.205 F 
HETATM   20  C   UNL     1      -6.716  -3.871 -34.908  1.00  0.00     0.043 A 
HETATM   21  C   UNL     1      -5.647  -4.741 -34.703  1.00  0.00     0.003 A 
HETATM   22  C   UNL     1      -4.432  -4.248 -34.226  1.00  0.00     0.001 A 
HETATM   23  C   UNL     1      -4.282  -2.885 -33.957  1.00  0.00     0.012 A 
ENDBRANCH  16  17
ENDBRANCH  13  16
ENDBRANCH   9  11
ENDBRANCH   7   9
ENDBRANCH   5   7
ENDBRANCH   2   5
BRANCH   1  24
HETATM   24  C   UNL     1      -4.363   4.660 -31.810  1.00  0.00     0.150 A 
HETATM   25  N   UNL     1      -4.516   5.898 -31.287  1.00  0.00    -0.165 NA
HETATM   26  N   UNL     1      -3.296   6.199 -30.819  1.00  0.00    -0.240 N 
HETATM   27  C   UNL     1      -2.374   5.203 -30.982  1.00  0.00     0.123 A 
HETATM   28  C   UNL     1      -3.026   7.458 -30.151  1.00  0.00     0.221 C 
HETATM   29  N   UNL     1      -1.113   5.323 -30.505  1.00  0.00    -0.371 N 
HETATM   30  C   UNL     1      -3.028   4.194 -31.641  1.00  0.00     0.089 A 
HETATM   31  C   UNL     1      -0.638   6.598 -29.973  1.00  0.00     0.081 C 
HETATM   32  H   UNL     1      -0.394   4.672 -30.818  1.00  0.00     0.161 HD
HETATM   33  C   UNL     1       0.525   6.343 -29.019  1.00  0.00     0.032 C 
HETATM   34  C   UNL     1      -1.789   7.312 -29.244  1.00  0.00     0.061 C 
BRANCH  28  35
HETATM   35  C   UNL     1      -2.863   8.562 -31.172  1.00  0.00     0.409 C 
HETATM   36  F   UNL     1      -4.029   9.170 -31.477  1.00  0.00    -0.169 F 
HETATM   37  F   UNL     1      -2.046   9.529 -30.673  1.00  0.00    -0.169 F 
HETATM   38  F   UNL     1      -2.301   8.143 -32.326  1.00  0.00    -0.169 F 
ENDBRANCH  28  35
ENDBRANCH   1  24
TORSDOF 8
ENDMDL
MODEL 7
REMARK VINA RESULT:      -8.9      3.402      9.759
REMARK  8 active torsions:
REMARK  status: ('A' for Active; 'I' for Inactive)
REMARK    1  A    between atoms: C_7  and  C_8 
REMARK       I    between atoms: C_8  and  N_9 
REMARK    2  A    between atoms: N_9  and  N_10 
REMARK    3  A    between atoms: N_10  and  C_11 
REMARK    4  A    between atoms: C_11  and  N_12 
REMARK    5  A    between atoms: N_12  and  C_13 
REMARK    6  A    between atoms: N_15  and  C_16 
REMARK    7  A    between atoms: C_16  and  C_17 
REMARK    8  A    between atoms: C_29  and  C_30 
ROOT
HETATM    1  C   UNL     1      -3.785   3.010 -31.581  1.00  0.00     0.290 C 
HETATM    2  N   UNL     1      -4.678   4.004 -31.231  1.00  0.00    -0.262 N 
HETATM    3  O   UNL     1      -2.572   3.066 -31.402  1.00  0.00    -0.264 OA
HETATM    4  H   UNL     1      -5.676   3.820 -31.339  1.00  0.00     0.190 HD
ENDROOT
BRANCH   2   5
HETATM    5  N   UNL     1      -4.279   5.126 -30.508  1.00  0.00    -0.273 N 
HETATM    6  H   UNL     1      -3.997   4.994 -29.530  1.00  0.00     0.189 HD
BRANCH   5   7
HETATM    7  C   UNL     1      -3.945   6.296 -31.134  1.00  0.00     0.192 C 
HETATM    8  S   UNL     1      -4.922   7.661 -31.190  1.00  0.00    -0.039 SA
BRANCH   7   9
HETATM    9  N   UNL     1      -2.737   6.355 -31.766  1.00  0.00    -0.315 N 
HETATM   10  H   UNL     1      -2.770   6.280 -32.773  1.00  0.00     0.170 HD
BRANCH   9  11
HETATM   11  C   UNL     1      -1.485   6.421 -31.193  1.00  0.00     0.151 A 
HETATM   12  N   UNL     1      -1.211   6.087 -29.928  1.00  0.00    -0.154 NA
HETATM   13  N   UNL     1       0.120   6.280 -29.812  1.00  0.00    -0.275 N 
HETATM   14  C   UNL     1       0.697   6.737 -30.963  1.00  0.00     0.116 A 
HETATM   15  C   UNL     1      -0.323   6.844 -31.878  1.00  0.00     0.071 A 
BRANCH  13  16
HETATM   16  C   UNL     1       0.782   6.080 -28.530  1.00  0.00     0.192 C 
BRANCH  16  17
HETATM   17  C   UNL     1       0.631   7.275 -27.634  1.00  0.00     0.000 A 
HETATM   18  C   UNL     1      -0.340   7.288 -26.630  1.00  0.00     0.124 A 
HETATM   19  F   UNL     1      -1.136   6.221 -26.462  1.00  0.00    -0.205 F 
HETATM   20  C   UNL     1      -0.499   8.384 -25.788  1.00  0.00     0.043 A 
HETATM   21  C   UNL     1       0.324   9.498 -25.946  1.00  0.00     0.003 A 
HETATM   22  C   UNL     1       1.293   9.508 -26.949  1.00  0.00     0.001 A 
HETATM   23  C   UNL     1       1.445   8.405 -27.793  1.00  0.00     0.012 A 
ENDBRANCH  16  17
ENDBRANCH  13  16
ENDBRANCH   9  11
ENDBRANCH   7   9
ENDBRANCH   5   7
ENDBRANCH   2   5
BRANCH   1  24
HETATM   24  C   UNL     1      -4.460   1.860 -32.207  1.00  0.00     0.150 A 
HETATM   25  N   UNL     1      -5.698   1.974 -32.742  1.00  0.00    -0.165 NA
HETATM   26  N   UNL     1      -5.962   0.739 -33.196  1.00  0.00    -0.240 N 
HETATM   27  C   UNL     1      -4.943  -0.153 -33.012  1.00  0.00     0.123 A 
HETATM   28  C   UNL     1      -7.208   0.427 -33.871  1.00  0.00     0.221 C 
HETATM   29  N   UNL     1      -5.025  -1.423 -33.473  1.00  0.00    -0.371 N 
HETATM   30  C   UNL     1      -3.958   0.537 -32.354  1.00  0.00     0.089 A 
HETATM   31  C   UNL     1      -6.282  -1.940 -34.009  1.00  0.00     0.081 C 
HETATM   32  H   UNL     1      -4.357  -2.120 -33.146  1.00  0.00     0.161 HD
HETATM   33  C   UNL     1      -5.988  -3.107 -34.946  1.00  0.00     0.032 C 
HETATM   34  C   UNL     1      -7.021  -0.817 -34.759  1.00  0.00     0.061 C 
BRANCH  28  35
HETATM   35  C   UNL     1      -8.316   0.247 -32.856  1.00  0.00     0.409 C 
HETATM   36  F   UNL     1      -7.852  -0.001 -31.613  1.00  0.00    -0.169 F 
HETATM   37  F   UNL     1      -9.047   1.391 -32.771  1.00  0.00    -0.169 F 
HETATM   38  F   UNL     1      -9.180  -0.738 -33.179  1.00  0.00    -0.169 F 
ENDBRANCH  28  35
ENDBRANCH   1  24
TORSDOF 8
ENDMDL
MODEL 8
REMARK VINA RESULT:      -8.7      1.702      2.142
REMARK  8 active torsions:
REMARK  status: ('A' for Active; 'I' for Inactive)
REMARK    1  A    between atoms: C_7  and  C_8 
REMARK       I    between atoms: C_8  and  N_9 
REMARK    2  A    between atoms: N_9  and  N_10 
REMARK    3  A    between atoms: N_10  and  C_11 
REMARK    4  A    between atoms: C_11  and  N_12 
REMARK    5  A    between atoms: N_12  and  C_13 
REMARK    6  A    between atoms: N_15  and  C_16 
REMARK    7  A    between atoms: C_16  and  C_17 
REMARK    8  A    between atoms: C_29  and  C_30 
ROOT
HETATM    1  C   UNL     1      -6.141   4.247 -32.919  1.00  0.00     0.290 C 
HETATM    2  N   UNL     1      -7.157   4.095 -31.997  1.00  0.00    -0.262 N 
HETATM    3  O   UNL     1      -6.159   3.794 -34.061  1.00  0.00    -0.264 OA
HETATM    4  H   UNL     1      -7.082   4.588 -31.106  1.00  0.00     0.190 HD
ENDROOT
BRANCH   2   5
HETATM    5  N   UNL     1      -8.375   3.513 -32.338  1.00  0.00    -0.273 N 
HETATM    6  H   UNL     1      -8.608   3.431 -33.334  1.00  0.00     0.189 HD
BRANCH   5   7
HETATM    7  C   UNL     1      -9.091   2.773 -31.435  1.00  0.00     0.192 C 
HETATM    8  S   UNL     1     -10.323   3.380 -30.470  1.00  0.00    -0.039 SA
BRANCH   7   9
HETATM    9  N   UNL     1      -8.773   1.453 -31.303  1.00  0.00    -0.315 N 
HETATM   10  H   UNL     1      -9.133   1.001 -30.474  1.00  0.00     0.170 HD
BRANCH   9  11
HETATM   11  C   UNL     1      -7.961   0.693 -32.118  1.00  0.00     0.151 A 
HETATM   12  N   UNL     1      -6.631   0.804 -32.179  1.00  0.00    -0.154 NA
HETATM   13  N   UNL     1      -6.258  -0.137 -33.072  1.00  0.00    -0.275 N 
HETATM   14  C   UNL     1      -7.313  -0.835 -33.587  1.00  0.00     0.116 A 
HETATM   15  C   UNL     1      -8.436  -0.314 -32.989  1.00  0.00     0.071 A 
BRANCH  13  16
HETATM   16  C   UNL     1      -4.859  -0.271 -33.455  1.00  0.00     0.192 C 
BRANCH  16  17
HETATM   17  C   UNL     1      -4.374  -1.685 -33.305  1.00  0.00     0.000 A 
HETATM   18  C   UNL     1      -3.614  -2.057 -32.193  1.00  0.00     0.124 A 
HETATM   19  F   UNL     1      -3.325  -1.146 -31.251  1.00  0.00    -0.205 F 
HETATM   20  C   UNL     1      -3.152  -3.360 -32.033  1.00  0.00     0.043 A 
HETATM   21  C   UNL     1      -3.449  -4.319 -33.000  1.00  0.00     0.003 A 
HETATM   22  C   UNL     1      -4.198  -3.964 -34.122  1.00  0.00     0.001 A 
HETATM   23  C   UNL     1      -4.655  -2.653 -34.278  1.00  0.00     0.012 A 
ENDBRANCH  16  17
ENDBRANCH  13  16
ENDBRANCH   9  11
ENDBRANCH   7   9
ENDBRANCH   5   7
ENDBRANCH   2   5
BRANCH   1  24
HETATM   24  C   UNL     1      -5.012   5.018 -32.372  1.00  0.00     0.150 A 
HETATM   25  N   UNL     1      -4.256   5.819 -33.159  1.00  0.00    -0.165 NA
HETATM   26  N   UNL     1      -3.349   6.332 -32.313  1.00  0.00    -0.240 N 
HETATM   27  C   UNL     1      -3.505   5.929 -31.016  1.00  0.00     0.123 A 
HETATM   28  C   UNL     1      -2.340   7.274 -32.759  1.00  0.00     0.221 C 
HETATM   29  N   UNL     1      -2.713   6.406 -30.029  1.00  0.00    -0.371 N 
HETATM   30  C   UNL     1      -4.565   5.059 -31.021  1.00  0.00     0.089 A 
HETATM   31  C   UNL     1      -1.539   7.218 -30.345  1.00  0.00     0.081 C 
HETATM   32  H   UNL     1      -2.705   5.941 -29.122  1.00  0.00     0.161 HD
HETATM   33  C   UNL     1      -1.177   8.073 -29.134  1.00  0.00     0.032 C 
HETATM   34  C   UNL     1      -1.842   8.107 -31.563  1.00  0.00     0.061 C 
BRANCH  28  35
HETATM   35  C   UNL     1      -1.217   6.539 -33.456  1.00  0.00     0.409 C 
HETATM   36  F   UNL     1      -1.443   6.367 -34.776  1.00  0.00    -0.169 F 
HETATM   37  F   UNL     1      -0.067   7.260 -33.356  1.00  0.00    -0.169 F 
HETATM   38  F   UNL     1      -0.958   5.327 -32.920  1.00  0.00    -0.169 F 
ENDBRANCH  28  35
ENDBRANCH   1  24
TORSDOF 8
ENDMDL
MODEL 9
REMARK VINA RESULT:      -8.7      2.121      2.886
REMARK  8 active torsions:
REMARK  status: ('A' for Active; 'I' for Inactive)
REMARK    1  A    between atoms: C_7  and  C_8 
REMARK       I    between atoms: C_8  and  N_9 
REMARK    2  A    between atoms: N_9  and  N_10 
REMARK    3  A    between atoms: N_10  and  C_11 
REMARK    4  A    between atoms: C_11  and  N_12 
REMARK    5  A    between atoms: N_12  and  C_13 
REMARK    6  A    between atoms: N_15  and  C_16 
REMARK    7  A    between atoms: C_16  and  C_17 
REMARK    8  A    between atoms: C_29  and  C_30 
ROOT
HETATM    1  C   UNL     1      -6.025   5.211 -33.664  1.00  0.00     0.290 C 
HETATM    2  N   UNL     1      -7.260   5.761 -33.387  1.00  0.00    -0.262 N 
HETATM    3  O   UNL     1      -5.803   4.410 -34.569  1.00  0.00    -0.264 OA
HETATM    4  H   UNL     1      -7.319   6.486 -32.671  1.00  0.00     0.190 HD
ENDROOT
BRANCH   2   5
HETATM    5  N   UNL     1      -8.360   5.548 -34.215  1.00  0.00    -0.273 N 
HETATM    6  H   UNL     1      -8.261   5.768 -35.213  1.00  0.00     0.189 HD
BRANCH   5   7
HETATM    7  C   UNL     1      -9.414   4.771 -33.816  1.00  0.00     0.192 C 
HETATM    8  S   UNL     1     -10.681   5.305 -32.852  1.00  0.00    -0.039 SA
BRANCH   7   9
HETATM    9  N   UNL     1      -9.431   3.468 -34.222  1.00  0.00    -0.315 N 
HETATM   10  H   UNL     1      -9.763   3.311 -35.163  1.00  0.00     0.170 HD
BRANCH   9  11
HETATM   11  C   UNL     1      -9.129   2.347 -33.479  1.00  0.00     0.151 A 
HETATM   12  N   UNL     1      -7.906   2.033 -33.042  1.00  0.00    -0.154 NA
HETATM   13  N   UNL     1      -8.082   0.889 -32.348  1.00  0.00    -0.275 N 
HETATM   14  C   UNL     1      -9.380   0.461 -32.342  1.00  0.00     0.116 A 
HETATM   15  C   UNL     1     -10.084   1.386 -33.074  1.00  0.00     0.071 A 
BRANCH  13  16
HETATM   16  C   UNL     1      -6.938   0.198 -31.769  1.00  0.00     0.192 C 
BRANCH  16  17
HETATM   17  C   UNL     1      -6.319  -0.766 -32.741  1.00  0.00     0.000 A 
HETATM   18  C   UNL     1      -4.971  -1.112 -32.630  1.00  0.00     0.124 A 
HETATM   19  F   UNL     1      -4.228  -0.588 -31.644  1.00  0.00    -0.205 F 
HETATM   20  C   UNL     1      -4.374  -2.001 -33.520  1.00  0.00     0.043 A 
HETATM   21  C   UNL     1      -5.134  -2.560 -34.547  1.00  0.00     0.003 A 
HETATM   22  C   UNL     1      -6.480  -2.218 -34.680  1.00  0.00     0.001 A 
HETATM   23  C   UNL     1      -7.071  -1.321 -33.786  1.00  0.00     0.012 A 
ENDBRANCH  16  17
ENDBRANCH  13  16
ENDBRANCH   9  11
ENDBRANCH   7   9
ENDBRANCH   5   7
ENDBRANCH   2   5
BRANCH   1  24
HETATM   24  C   UNL     1      -4.987   5.694 -32.737  1.00  0.00     0.150 A 
HETATM   25  N   UNL     1      -3.970   6.478 -33.162  1.00  0.00    -0.165 NA
HETATM   26  N   UNL     1      -3.251   6.696 -32.050  1.00  0.00    -0.240 N 
HETATM   27  C   UNL     1      -3.774   6.122 -30.925  1.00  0.00     0.123 A 
HETATM   28  C   UNL     1      -2.059   7.523 -32.064  1.00  0.00     0.221 C 
HETATM   29  N   UNL     1      -3.205   6.302 -29.711  1.00  0.00    -0.371 N 
HETATM   30  C   UNL     1      -4.893   5.446 -31.338  1.00  0.00     0.089 A 
HETATM   31  C   UNL     1      -1.903   6.954 -29.589  1.00  0.00     0.081 C 
HETATM   32  H   UNL     1      -3.480   5.703 -28.933  1.00  0.00     0.161 HD
HETATM   33  C   UNL     1      -1.760   7.536 -28.186  1.00  0.00     0.032 C 
HETATM   34  C   UNL     1      -1.783   8.063 -30.649  1.00  0.00     0.061 C 
BRANCH  28  35
HETATM   35  C   UNL     1      -0.890   6.737 -32.618  1.00  0.00     0.409 C 
HETATM   36  F   UNL     1      -1.062   5.402 -32.515  1.00  0.00    -0.169 F 
HETATM   37  F   UNL     1      -0.747   7.004 -33.944  1.00  0.00    -0.169 F 
HETATM   38  F   UNL     1       0.286   7.048 -32.034  1.00  0.00    -0.169 F 
ENDBRANCH  28  35
ENDBRANCH   1  24
TORSDOF 8
ENDMDL
MODEL 10
REMARK VINA RESULT:      -8.7      3.375      6.657
REMARK  8 active torsions:
REMARK  status: ('A' for Active; 'I' for Inactive)
REMARK    1  A    between atoms: C_7  and  C_8 
REMARK       I    between atoms: C_8  and  N_9 
REMARK    2  A    between atoms: N_9  and  N_10 
REMARK    3  A    between atoms: N_10  and  C_11 
REMARK    4  A    between atoms: C_11  and  N_12 
REMARK    5  A    between atoms: N_12  and  C_13 
REMARK    6  A    between atoms: N_15  and  C_16 
REMARK    7  A    between atoms: C_16  and  C_17 
REMARK    8  A    between atoms: C_29  and  C_30 
ROOT
HETATM    1  C   UNL     1      -7.291   3.264 -31.227  1.00  0.00     0.290 C 
HETATM    2  N   UNL     1      -6.236   4.048 -31.651  1.00  0.00    -0.262 N 
HETATM    3  O   UNL     1      -7.268   2.534 -30.240  1.00  0.00    -0.264 OA
HETATM    4  H   UNL     1      -6.389   4.688 -32.430  1.00  0.00     0.190 HD
ENDROOT
BRANCH   2   5
HETATM    5  N   UNL     1      -5.071   4.176 -30.897  1.00  0.00    -0.273 N 
HETATM    6  H   UNL     1      -5.164   4.408 -29.902  1.00  0.00     0.189 HD
BRANCH   5   7
HETATM    7  C   UNL     1      -3.873   3.693 -31.349  1.00  0.00     0.192 C 
HETATM    8  S   UNL     1      -2.695   4.621 -32.106  1.00  0.00    -0.039 SA
BRANCH   7   9
HETATM    9  N   UNL     1      -3.621   2.363 -31.181  1.00  0.00    -0.315 N 
HETATM   10  H   UNL     1      -2.738   2.141 -30.741  1.00  0.00     0.170 HD
BRANCH   9  11
HETATM   11  C   UNL     1      -4.383   1.298 -31.608  1.00  0.00     0.151 A 
HETATM   12  N   UNL     1      -4.869   1.161 -32.846  1.00  0.00    -0.154 NA
HETATM   13  N   UNL     1      -5.519  -0.022 -32.820  1.00  0.00    -0.275 N 
HETATM   14  C   UNL     1      -5.469  -0.635 -31.600  1.00  0.00     0.116 A 
HETATM   15  C   UNL     1      -4.742   0.202 -30.789  1.00  0.00     0.071 A 
BRANCH  13  16
HETATM   16  C   UNL     1      -6.247  -0.485 -33.994  1.00  0.00     0.192 C 
BRANCH  16  17
HETATM   17  C   UNL     1      -6.002  -1.942 -34.262  1.00  0.00     0.000 A 
HETATM   18  C   UNL     1      -4.698  -2.442 -34.311  1.00  0.00     0.124 A 
HETATM   19  F   UNL     1      -3.662  -1.616 -34.107  1.00  0.00    -0.205 F 
HETATM   20  C   UNL     1      -4.446  -3.788 -34.559  1.00  0.00     0.043 A 
HETATM   21  C   UNL     1      -5.513  -4.661 -34.767  1.00  0.00     0.003 A 
HETATM   22  C   UNL     1      -6.821  -4.179 -34.733  1.00  0.00     0.001 A 
HETATM   23  C   UNL     1      -7.067  -2.825 -34.486  1.00  0.00     0.012 A 
ENDBRANCH  16  17
ENDBRANCH  13  16
ENDBRANCH   9  11
ENDBRANCH   7   9
ENDBRANCH   5   7
ENDBRANCH   2   5
BRANCH   1  24
HETATM   24  C   UNL     1      -8.465   3.400 -32.108  1.00  0.00     0.150 A 
HETATM   25  N   UNL     1      -9.529   2.572 -31.999  1.00  0.00    -0.165 NA
HETATM   26  N   UNL     1     -10.366   3.002 -32.955  1.00  0.00    -0.240 N 
HETATM   27  C   UNL     1      -9.910   4.088 -33.648  1.00  0.00     0.123 A 
HETATM   28  C   UNL     1     -11.660   2.384 -33.168  1.00  0.00     0.221 C 
HETATM   29  N   UNL     1     -10.663   4.685 -34.601  1.00  0.00    -0.371 N 
HETATM   30  C   UNL     1      -8.667   4.362 -33.137  1.00  0.00     0.089 A 
HETATM   31  C   UNL     1     -11.909   4.070 -35.057  1.00  0.00     0.081 C 
HETATM   32  H   UNL     1     -10.229   5.347 -35.243  1.00  0.00     0.161 HD
HETATM   33  C   UNL     1     -12.811   5.146 -35.653  1.00  0.00     0.032 C 
HETATM   34  C   UNL     1     -12.603   3.378 -33.872  1.00  0.00     0.061 C 
BRANCH  28  35
HETATM   35  C   UNL     1     -11.498   1.097 -33.947  1.00  0.00     0.409 C 
HETATM   36  F   UNL     1     -11.404   0.011 -33.149  1.00  0.00    -0.169 F 
HETATM   37  F   UNL     1     -12.588   0.898 -34.735  1.00  0.00    -0.169 F 
HETATM   38  F   UNL     1     -10.425   1.101 -34.767  1.00  0.00    -0.169 F 
ENDBRANCH  28  35
ENDBRANCH   1  24
TORSDOF 8
ENDMDL
