MODEL 1
REMARK VINA RESULT:      -8.1      0.000      0.000
REMARK  6 active torsions:
REMARK  status: ('A' for Active; 'I' for Inactive)
REMARK    1  A    between atoms: C_3  and  C_4 
REMARK    2  A    between atoms: C_9  and  C_10 
REMARK    3  A    between atoms: C_10  and  O_11 
REMARK    4  A    between atoms: C_10  and  C_12 
REMARK    5  A    between atoms: C_12  and  N_13 
REMARK    6  A    between atoms: C_17  and  C_18 
ROOT
HETATM    1  C   UNL     1      -8.653   0.645 -33.300  1.00  0.00     0.271 C 
ENDROOT
BRANCH   1   2
HETATM    2  C   UNL     1      -7.624   0.520 -34.457  1.00  0.00     0.177 C 
BRANCH   2   3
HETATM    3  C   UNL     1      -6.548  -0.532 -34.244  1.00  0.00    -0.027 A 
HETATM    4  C   UNL     1      -6.799  -1.881 -34.556  1.00  0.00     0.025 A 
HETATM    5  C   UNL     1      -5.804  -2.869 -34.415  1.00  0.00     0.048 A 
HETATM    6  C   UNL     1      -4.553  -2.503 -33.911  1.00  0.00     0.016 A 
HETATM    7  C   UNL     1      -4.302  -1.181 -33.552  1.00  0.00     0.001 A 
HETATM    8  C   UNL     1      -5.289  -0.205 -33.715  1.00  0.00     0.010 A 
BRANCH   5   9
HETATM    9  C   UNL     1      -6.095  -4.292 -34.839  1.00  0.00     0.417 C 
HETATM   10  F   UNL     1      -6.122  -4.473 -36.185  1.00  0.00    -0.166 F 
HETATM   11  F   UNL     1      -5.185  -5.173 -34.344  1.00  0.00    -0.166 F 
HETATM   12  F   UNL     1      -7.307  -4.706 -34.373  1.00  0.00    -0.166 F 
ENDBRANCH   5   9
ENDBRANCH   2   3
BRANCH   2  13
HETATM   13  O   UNL     1      -8.401   0.260 -35.637  1.00  0.00    -0.389 OA
HETATM   14  H   UNL     1      -9.131  -0.332 -35.363  1.00  0.00     0.210 HD
ENDBRANCH   2  13
ENDBRANCH   1   2
BRANCH   1  15
HETATM   15  N   UNL     1      -8.333   1.831 -32.372  1.00  0.00    -0.068 N 
HETATM   16  H   UNL     1      -9.265   2.123 -32.027  1.00  0.00     0.280 HD
HETATM   17  C   UNL     1      -7.519   1.433 -31.166  1.00  0.00     0.235 C 
HETATM   18  C   UNL     1      -7.195   2.648 -30.308  1.00  0.00     0.037 C 
HETATM   19  C   UNL     1      -6.454   3.731 -31.102  1.00  0.00     0.025 C 
HETATM   20  C   UNL     1      -7.355   4.134 -32.277  1.00  0.00     0.037 C 
HETATM   21  C   UNL     1      -7.716   2.953 -33.168  1.00  0.00     0.235 C 
BRANCH  19  22
HETATM   22  C   UNL     1      -5.065   3.307 -31.512  1.00  0.00    -0.018 A 
HETATM   23  C   UNL     1      -4.247   2.290 -30.958  1.00  0.00     0.147 A 
HETATM   24  N   UNL     1      -3.050   2.217 -31.535  1.00  0.00    -0.187 NA
HETATM   25  N   UNL     1      -3.118   3.101 -32.539  1.00  0.00    -0.289 N 
HETATM   26  H   UNL     1      -2.324   3.183 -33.167  1.00  0.00     0.188 HD
HETATM   27  C   UNL     1      -4.297   3.790 -32.556  1.00  0.00     0.118 A 
ENDBRANCH  19  22
ENDBRANCH   1  15
TORSDOF 6
ENDMDL
MODEL 2
REMARK VINA RESULT:      -7.8      2.093      3.978
REMARK  6 active torsions:
REMARK  status: ('A' for Active; 'I' for Inactive)
REMARK    1  A    between atoms: C_3  and  C_4 
REMARK    2  A    between atoms: C_9  and  C_10 
REMARK    3  A    between atoms: C_10  and  O_11 
REMARK    4  A    between atoms: C_10  and  C_12 
REMARK    5  A    between atoms: C_12  and  N_13 
REMARK    6  A    between atoms: C_17  and  C_18 
ROOT
HETATM    1  C   UNL     1      -3.727   1.203 -32.206  1.00  0.00     0.271 C 
ENDROOT
BRANCH   1   2
HETATM    2  C   UNL     1      -3.998  -0.258 -31.754  1.00  0.00     0.177 C 
BRANCH   2   3
HETATM    3  C   UNL     1      -4.578  -1.162 -32.829  1.00  0.00    -0.027 A 
HETATM    4  C   UNL     1      -4.070  -2.461 -33.019  1.00  0.00     0.025 A 
HETATM    5  C   UNL     1      -4.622  -3.337 -33.975  1.00  0.00     0.048 A 
HETATM    6  C   UNL     1      -5.670  -2.886 -34.782  1.00  0.00     0.016 A 
HETATM    7  C   UNL     1      -6.153  -1.588 -34.641  1.00  0.00     0.001 A 
HETATM    8  C   UNL     1      -5.613  -0.733 -33.676  1.00  0.00     0.010 A 
BRANCH   5   9
HETATM    9  C   UNL     1      -4.095  -4.751 -34.088  1.00  0.00     0.417 C 
HETATM   10  F   UNL     1      -4.853  -5.562 -34.870  1.00  0.00    -0.166 F 
HETATM   11  F   UNL     1      -2.833  -4.792 -34.591  1.00  0.00    -0.166 F 
HETATM   12  F   UNL     1      -4.030  -5.351 -32.866  1.00  0.00    -0.166 F 
ENDBRANCH   5   9
ENDBRANCH   2   3
BRANCH   2  13
HETATM   13  O   UNL     1      -2.740  -0.750 -31.264  1.00  0.00    -0.389 OA
HETATM   14  H   UNL     1      -2.402  -1.369 -31.941  1.00  0.00     0.210 HD
ENDBRANCH   2  13
ENDBRANCH   1   2
BRANCH   1  15
HETATM   15  N   UNL     1      -4.848   2.159 -31.761  1.00  0.00    -0.068 N 
HETATM   16  H   UNL     1      -4.333   2.934 -31.305  1.00  0.00     0.280 HD
HETATM   17  C   UNL     1      -5.611   2.754 -32.918  1.00  0.00     0.235 C 
HETATM   18  C   UNL     1      -6.732   3.655 -32.420  1.00  0.00     0.037 C 
HETATM   19  C   UNL     1      -7.696   2.911 -31.489  1.00  0.00     0.025 C 
HETATM   20  C   UNL     1      -6.873   2.382 -30.306  1.00  0.00     0.037 C 
HETATM   21  C   UNL     1      -5.731   1.478 -30.747  1.00  0.00     0.235 C 
BRANCH  19  22
HETATM   22  C   UNL     1      -8.496   1.849 -32.203  1.00  0.00    -0.018 A 
HETATM   23  C   UNL     1      -8.929   1.819 -33.553  1.00  0.00     0.147 A 
HETATM   24  N   UNL     1      -9.661   0.746 -33.838  1.00  0.00    -0.187 NA
HETATM   25  N   UNL     1      -9.616   0.013 -32.718  1.00  0.00    -0.289 N 
HETATM   26  H   UNL     1     -10.067  -0.897 -32.715  1.00  0.00     0.188 HD
HETATM   27  C   UNL     1      -8.944   0.638 -31.705  1.00  0.00     0.118 A 
ENDBRANCH  19  22
ENDBRANCH   1  15
TORSDOF 6
ENDMDL
MODEL 3
REMARK VINA RESULT:      -7.7      3.455      5.573
REMARK  6 active torsions:
REMARK  status: ('A' for Active; 'I' for Inactive)
REMARK    1  A    between atoms: C_3  and  C_4 
REMARK    2  A    between atoms: C_9  and  C_10 
REMARK    3  A    between atoms: C_10  and  O_11 
REMARK    4  A    between atoms: C_10  and  C_12 
REMARK    5  A    between atoms: C_12  and  N_13 
REMARK    6  A    between atoms: C_17  and  C_18 
ROOT
HETATM    1  C   UNL     1      -8.781   1.883 -33.730  1.00  0.00     0.271 C 
ENDROOT
BRANCH   1   2
HETATM    2  C   UNL     1      -8.723   0.395 -33.287  1.00  0.00     0.177 C 
BRANCH   2   3
HETATM    3  C   UNL     1      -7.360  -0.262 -33.428  1.00  0.00    -0.027 A 
HETATM    4  C   UNL     1      -7.239  -1.535 -34.014  1.00  0.00     0.025 A 
HETATM    5  C   UNL     1      -5.984  -2.146 -34.202  1.00  0.00     0.048 A 
HETATM    6  C   UNL     1      -4.836  -1.486 -33.753  1.00  0.00     0.016 A 
HETATM    7  C   UNL     1      -4.941  -0.247 -33.127  1.00  0.00     0.001 A 
HETATM    8  C   UNL     1      -6.190   0.360 -32.964  1.00  0.00     0.010 A 
BRANCH   5   9
HETATM    9  C   UNL     1      -5.897  -3.480 -34.910  1.00  0.00     0.417 C 
HETATM   10  F   UNL     1      -5.199  -4.423 -34.226  1.00  0.00    -0.166 F 
HETATM   11  F   UNL     1      -7.123  -4.009 -35.165  1.00  0.00    -0.166 F 
HETATM   12  F   UNL     1      -5.285  -3.355 -36.122  1.00  0.00    -0.166 F 
ENDBRANCH   5   9
ENDBRANCH   2   3
BRANCH   2  13
HETATM   13  O   UNL     1      -9.187   0.380 -31.927  1.00  0.00    -0.389 OA
HETATM   14  H   UNL     1      -8.768   1.145 -31.483  1.00  0.00     0.210 HD
ENDBRANCH   2  13
ENDBRANCH   1   2
BRANCH   1  15
HETATM   15  N   UNL     1     -10.029   2.181 -34.579  1.00  0.00    -0.068 N 
HETATM   16  H   UNL     1      -9.673   2.140 -35.551  1.00  0.00     0.280 HD
HETATM   17  C   UNL     1     -11.096   1.122 -34.453  1.00  0.00     0.235 C 
HETATM   18  C   UNL     1     -12.322   1.489 -35.277  1.00  0.00     0.037 C 
HETATM   19  C   UNL     1     -12.895   2.854 -34.878  1.00  0.00     0.025 C 
HETATM   20  C   UNL     1     -11.784   3.894 -35.084  1.00  0.00     0.037 C 
HETATM   21  C   UNL     1     -10.529   3.573 -34.285  1.00  0.00     0.235 C 
BRANCH  19  22
HETATM   22  C   UNL     1     -13.487   2.856 -33.490  1.00  0.00    -0.018 A 
HETATM   23  C   UNL     1     -13.414   3.862 -32.494  1.00  0.00     0.147 A 
HETATM   24  N   UNL     1     -14.014   3.511 -31.359  1.00  0.00    -0.187 NA
HETATM   25  N   UNL     1     -14.579   2.330 -31.641  1.00  0.00    -0.289 N 
HETATM   26  H   UNL     1     -15.151   1.883 -30.930  1.00  0.00     0.188 HD
HETATM   27  C   UNL     1     -14.280   1.888 -32.899  1.00  0.00     0.118 A 
ENDBRANCH  19  22
ENDBRANCH   1  15
TORSDOF 6
ENDMDL
MODEL 4
REMARK VINA RESULT:      -7.7      2.681      3.738
REMARK  6 active torsions:
REMARK  status: ('A' for Active; 'I' for Inactive)
REMARK    1  A    between atoms: C_3  and  C_4 
REMARK    2  A    between atoms: C_9  and  C_10 
REMARK    3  A    between atoms: C_10  and  O_11 
REMARK    4  A    between atoms: C_10  and  C_12 
REMARK    5  A    between atoms: C_12  and  N_13 
REMARK    6  A    between atoms: C_17  and  C_18 
ROOT
HETATM    1  C   UNL     1      -4.751   2.544 -30.654  1.00  0.00     0.271 C 
ENDROOT
BRANCH   1   2
HETATM    2  C   UNL     1      -5.699   1.317 -30.746  1.00  0.00     0.177 C 
BRANCH   2   3
HETATM    3  C   UNL     1      -5.150   0.143 -31.538  1.00  0.00    -0.027 A 
HETATM    4  C   UNL     1      -5.900  -0.424 -32.586  1.00  0.00     0.025 A 
HETATM    5  C   UNL     1      -5.394  -1.480 -33.368  1.00  0.00     0.048 A 
HETATM    6  C   UNL     1      -4.134  -2.005 -33.065  1.00  0.00     0.016 A 
HETATM    7  C   UNL     1      -3.398  -1.489 -32.002  1.00  0.00     0.001 A 
HETATM    8  C   UNL     1      -3.900  -0.426 -31.245  1.00  0.00     0.010 A 
BRANCH   5   9
HETATM    9  C   UNL     1      -6.203  -2.004 -34.534  1.00  0.00     0.417 C 
HETATM   10  F   UNL     1      -7.255  -2.782 -34.171  1.00  0.00    -0.166 F 
HETATM   11  F   UNL     1      -6.706  -1.002 -35.304  1.00  0.00    -0.166 F 
HETATM   12  F   UNL     1      -5.435  -2.764 -35.365  1.00  0.00    -0.166 F 
ENDBRANCH   5   9
ENDBRANCH   2   3
BRANCH   2  13
HETATM   13  O   UNL     1      -5.993   0.955 -29.387  1.00  0.00    -0.389 OA
HETATM   14  H   UNL     1      -5.584   0.078 -29.239  1.00  0.00     0.210 HD
ENDBRANCH   2  13
ENDBRANCH   1   2
BRANCH   1  15
HETATM   15  N   UNL     1      -5.273   3.736 -31.477  1.00  0.00    -0.068 N 
HETATM   16  H   UNL     1      -6.258   3.825 -31.169  1.00  0.00     0.280 HD
HETATM   17  C   UNL     1      -4.584   5.035 -31.137  1.00  0.00     0.235 C 
HETATM   18  C   UNL     1      -5.107   6.168 -32.008  1.00  0.00     0.037 C 
HETATM   19  C   UNL     1      -4.942   5.866 -33.503  1.00  0.00     0.025 C 
HETATM   20  C   UNL     1      -5.711   4.571 -33.796  1.00  0.00     0.037 C 
HETATM   21  C   UNL     1      -5.232   3.403 -32.946  1.00  0.00     0.235 C 
BRANCH  19  22
HETATM   22  C   UNL     1      -3.497   5.833 -33.936  1.00  0.00    -0.018 A 
HETATM   23  C   UNL     1      -2.910   5.135 -35.022  1.00  0.00     0.147 A 
HETATM   24  N   UNL     1      -1.590   5.290 -35.085  1.00  0.00    -0.187 NA
HETATM   25  N   UNL     1      -1.320   6.177 -34.119  1.00  0.00    -0.289 N 
HETATM   26  H   UNL     1      -0.364   6.501 -34.010  1.00  0.00     0.188 HD
HETATM   27  C   UNL     1      -2.426   6.520 -33.392  1.00  0.00     0.118 A 
ENDBRANCH  19  22
ENDBRANCH   1  15
TORSDOF 6
ENDMDL
MODEL 5
REMARK VINA RESULT:      -7.5      3.882      5.993
REMARK  6 active torsions:
REMARK  status: ('A' for Active; 'I' for Inactive)
REMARK    1  A    between atoms: C_3  and  C_4 
REMARK    2  A    between atoms: C_9  and  C_10 
REMARK    3  A    between atoms: C_10  and  O_11 
REMARK    4  A    between atoms: C_10  and  C_12 
REMARK    5  A    between atoms: C_12  and  N_13 
REMARK    6  A    between atoms: C_17  and  C_18 
ROOT
HETATM    1  C   UNL     1      -8.595   2.005 -33.227  1.00  0.00     0.271 C 
ENDROOT
BRANCH   1   2
HETATM    2  C   UNL     1      -8.574   0.559 -32.660  1.00  0.00     0.177 C 
BRANCH   2   3
HETATM    3  C   UNL     1      -7.402  -0.291 -33.120  1.00  0.00    -0.027 A 
HETATM    4  C   UNL     1      -6.177  -0.252 -32.426  1.00  0.00     0.025 A 
HETATM    5  C   UNL     1      -5.091  -1.066 -32.801  1.00  0.00     0.048 A 
HETATM    6  C   UNL     1      -5.220  -1.898 -33.917  1.00  0.00     0.016 A 
HETATM    7  C   UNL     1      -6.408  -1.914 -34.644  1.00  0.00     0.001 A 
HETATM    8  C   UNL     1      -7.488  -1.118 -34.251  1.00  0.00     0.010 A 
BRANCH   5   9
HETATM    9  C   UNL     1      -3.822  -1.049 -31.978  1.00  0.00     0.417 C 
HETATM   10  F   UNL     1      -3.942  -0.400 -30.790  1.00  0.00    -0.166 F 
HETATM   11  F   UNL     1      -3.374  -2.301 -31.694  1.00  0.00    -0.166 F 
HETATM   12  F   UNL     1      -2.807  -0.433 -32.648  1.00  0.00    -0.166 F 
ENDBRANCH   5   9
ENDBRANCH   2   3
BRANCH   2  13
HETATM   13  O   UNL     1      -8.601   0.705 -31.230  1.00  0.00    -0.389 OA
HETATM   14  H   UNL     1      -7.691   0.525 -30.917  1.00  0.00     0.210 HD
ENDBRANCH   2  13
ENDBRANCH   1   2
BRANCH   1  15
HETATM   15  N   UNL     1      -9.776   2.228 -34.188  1.00  0.00    -0.068 N 
HETATM   16  H   UNL     1      -9.337   2.164 -35.124  1.00  0.00     0.280 HD
HETATM   17  C   UNL     1     -10.815   1.137 -34.110  1.00  0.00     0.235 C 
HETATM   18  C   UNL     1     -11.977   1.430 -35.048  1.00  0.00     0.037 C 
HETATM   19  C   UNL     1     -12.626   2.788 -34.752  1.00  0.00     0.025 C 
HETATM   20  C   UNL     1     -11.536   3.858 -34.905  1.00  0.00     0.037 C 
HETATM   21  C   UNL     1     -10.344   3.611 -33.992  1.00  0.00     0.235 C 
BRANCH  19  22
HETATM   22  C   UNL     1     -13.334   2.819 -33.420  1.00  0.00    -0.018 A 
HETATM   23  C   UNL     1     -13.350   3.849 -32.446  1.00  0.00     0.147 A 
HETATM   24  N   UNL     1     -14.042   3.522 -31.357  1.00  0.00    -0.187 NA
HETATM   25  N   UNL     1     -14.576   2.331 -31.658  1.00  0.00    -0.289 N 
HETATM   26  H   UNL     1     -15.204   1.898 -30.987  1.00  0.00     0.188 HD
HETATM   27  C   UNL     1     -14.169   1.861 -32.874  1.00  0.00     0.118 A 
ENDBRANCH  19  22
ENDBRANCH   1  15
TORSDOF 6
ENDMDL
MODEL 6
REMARK VINA RESULT:      -7.5      1.971      2.700
REMARK  6 active torsions:
REMARK  status: ('A' for Active; 'I' for Inactive)
REMARK    1  A    between atoms: C_3  and  C_4 
REMARK    2  A    between atoms: C_9  and  C_10 
REMARK    3  A    between atoms: C_10  and  O_11 
REMARK    4  A    between atoms: C_10  and  C_12 
REMARK    5  A    between atoms: C_12  and  N_13 
REMARK    6  A    between atoms: C_17  and  C_18 
ROOT
HETATM    1  C   UNL     1      -8.543   0.595 -33.182  1.00  0.00     0.271 C 
ENDROOT
BRANCH   1   2
HETATM    2  C   UNL     1      -7.550   0.462 -34.369  1.00  0.00     0.177 C 
BRANCH   2   3
HETATM    3  C   UNL     1      -6.497  -0.620 -34.203  1.00  0.00    -0.027 A 
HETATM    4  C   UNL     1      -5.417  -0.435 -33.319  1.00  0.00     0.025 A 
HETATM    5  C   UNL     1      -4.454  -1.441 -33.109  1.00  0.00     0.048 A 
HETATM    6  C   UNL     1      -4.551  -2.634 -33.831  1.00  0.00     0.016 A 
HETATM    7  C   UNL     1      -5.585  -2.815 -34.746  1.00  0.00     0.001 A 
HETATM    8  C   UNL     1      -6.548  -1.819 -34.931  1.00  0.00     0.010 A 
BRANCH   5   9
HETATM    9  C   UNL     1      -3.357  -1.227 -32.089  1.00  0.00     0.417 C 
HETATM   10  F   UNL     1      -3.777  -0.639 -30.940  1.00  0.00    -0.166 F 
HETATM   11  F   UNL     1      -2.750  -2.391 -31.733  1.00  0.00    -0.166 F 
HETATM   12  F   UNL     1      -2.370  -0.430 -32.587  1.00  0.00    -0.166 F 
ENDBRANCH   5   9
ENDBRANCH   2   3
BRANCH   2  13
HETATM   13  O   UNL     1      -8.366   0.241 -35.531  1.00  0.00    -0.389 OA
HETATM   14  H   UNL     1      -9.152  -0.255 -35.227  1.00  0.00     0.210 HD
ENDBRANCH   2  13
ENDBRANCH   1   2
BRANCH   1  15
HETATM   15  N   UNL     1      -8.297   1.877 -32.368  1.00  0.00    -0.068 N 
HETATM   16  H   UNL     1      -9.252   2.172 -32.093  1.00  0.00     0.280 HD
HETATM   17  C   UNL     1      -7.526   1.630 -31.095  1.00  0.00     0.235 C 
HETATM   18  C   UNL     1      -7.275   2.935 -30.353  1.00  0.00     0.037 C 
HETATM   19  C   UNL     1      -6.530   3.955 -31.222  1.00  0.00     0.025 C 
HETATM   20  C   UNL     1      -7.390   4.208 -32.468  1.00  0.00     0.037 C 
HETATM   21  C   UNL     1      -7.678   2.933 -33.248  1.00  0.00     0.235 C 
BRANCH  19  22
HETATM   22  C   UNL     1      -5.113   3.537 -31.529  1.00  0.00    -0.018 A 
HETATM   23  C   UNL     1      -4.239   4.028 -32.532  1.00  0.00     0.147 A 
HETATM   24  N   UNL     1      -3.068   3.396 -32.553  1.00  0.00    -0.187 NA
HETATM   25  N   UNL     1      -3.123   2.574 -31.498  1.00  0.00    -0.289 N 
HETATM   26  H   UNL     1      -2.304   2.016 -31.274  1.00  0.00     0.188 HD
HETATM   27  C   UNL     1      -4.333   2.609 -30.863  1.00  0.00     0.118 A 
ENDBRANCH  19  22
ENDBRANCH   1  15
TORSDOF 6
ENDMDL
MODEL 7
REMARK VINA RESULT:      -7.4      2.952      4.138
REMARK  6 active torsions:
REMARK  status: ('A' for Active; 'I' for Inactive)
REMARK    1  A    between atoms: C_3  and  C_4 
REMARK    2  A    between atoms: C_9  and  C_10 
REMARK    3  A    between atoms: C_10  and  O_11 
REMARK    4  A    between atoms: C_10  and  C_12 
REMARK    5  A    between atoms: C_12  and  N_13 
REMARK    6  A    between atoms: C_17  and  C_18 
ROOT
HETATM    1  C   UNL     1      -4.952   2.755 -30.425  1.00  0.00     0.271 C 
ENDROOT
BRANCH   1   2
HETATM    2  C   UNL     1      -5.891   1.540 -30.656  1.00  0.00     0.177 C 
BRANCH   2   3
HETATM    3  C   UNL     1      -5.269   0.391 -31.432  1.00  0.00    -0.027 A 
HETATM    4  C   UNL     1      -5.959  -0.199 -32.508  1.00  0.00     0.025 A 
HETATM    5  C   UNL     1      -5.386  -1.232 -33.276  1.00  0.00     0.048 A 
HETATM    6  C   UNL     1      -4.118  -1.710 -32.929  1.00  0.00     0.016 A 
HETATM    7  C   UNL     1      -3.441  -1.171 -31.839  1.00  0.00     0.001 A 
HETATM    8  C   UNL     1      -4.010  -0.132 -31.097  1.00  0.00     0.010 A 
BRANCH   5   9
HETATM    9  C   UNL     1      -6.132  -1.780 -34.471  1.00  0.00     0.417 C 
HETATM   10  F   UNL     1      -5.400  -2.627 -35.240  1.00  0.00    -0.166 F 
HETATM   11  F   UNL     1      -7.258  -2.453 -34.112  1.00  0.00    -0.166 F 
HETATM   12  F   UNL     1      -6.545  -0.777 -35.297  1.00  0.00    -0.166 F 
ENDBRANCH   5   9
ENDBRANCH   2   3
BRANCH   2  13
HETATM   13  O   UNL     1      -6.321   1.130 -29.347  1.00  0.00    -0.389 OA
HETATM   14  H   UNL     1      -5.799   0.333 -29.122  1.00  0.00     0.210 HD
ENDBRANCH   2  13
ENDBRANCH   1   2
BRANCH   1  15
HETATM   15  N   UNL     1      -4.516   3.405 -31.750  1.00  0.00    -0.068 N 
HETATM   16  H   UNL     1      -4.935   2.787 -32.468  1.00  0.00     0.280 HD
HETATM   17  C   UNL     1      -5.100   4.780 -31.954  1.00  0.00     0.235 C 
HETATM   18  C   UNL     1      -4.602   5.391 -33.257  1.00  0.00     0.037 C 
HETATM   19  C   UNL     1      -3.071   5.463 -33.309  1.00  0.00     0.025 C 
HETATM   20  C   UNL     1      -2.541   4.031 -33.156  1.00  0.00     0.037 C 
HETATM   21  C   UNL     1      -3.013   3.368 -31.870  1.00  0.00     0.235 C 
BRANCH  19  22
HETATM   22  C   UNL     1      -2.498   6.440 -32.312  1.00  0.00    -0.018 A 
HETATM   23  C   UNL     1      -1.279   6.361 -31.590  1.00  0.00     0.147 A 
HETATM   24  N   UNL     1      -1.107   7.380 -30.752  1.00  0.00    -0.187 NA
HETATM   25  N   UNL     1      -2.147   8.186 -31.002  1.00  0.00    -0.289 N 
HETATM   26  H   UNL     1      -2.202   9.074 -30.511  1.00  0.00     0.188 HD
HETATM   27  C   UNL     1      -3.016   7.659 -31.915  1.00  0.00     0.118 A 
ENDBRANCH  19  22
ENDBRANCH   1  15
TORSDOF 6
ENDMDL
MODEL 8
REMARK VINA RESULT:      -7.3      5.599      8.100
REMARK  6 active torsions:
REMARK  status: ('A' for Active; 'I' for Inactive)
REMARK    1  A    between atoms: C_3  and  C_4 
REMARK    2  A    between atoms: C_9  and  C_10 
REMARK    3  A    between atoms: C_10  and  O_11 
REMARK    4  A    between atoms: C_10  and  C_12 
REMARK    5  A    between atoms: C_12  and  N_13 
REMARK    6  A    between atoms: C_17  and  C_18 
ROOT
HETATM    1  C   UNL     1      -4.771   2.921 -32.466  1.00  0.00     0.271 C 
ENDROOT
BRANCH   1   2
HETATM    2  C   UNL     1      -3.221   2.846 -32.387  1.00  0.00     0.177 C 
BRANCH   2   3
HETATM    3  C   UNL     1      -2.500   4.131 -32.754  1.00  0.00    -0.027 A 
HETATM    4  C   UNL     1      -1.732   4.818 -31.795  1.00  0.00     0.025 A 
HETATM    5  C   UNL     1      -1.013   5.984 -32.121  1.00  0.00     0.048 A 
HETATM    6  C   UNL     1      -1.103   6.494 -33.420  1.00  0.00     0.016 A 
HETATM    7  C   UNL     1      -1.896   5.856 -34.369  1.00  0.00     0.001 A 
HETATM    8  C   UNL     1      -2.588   4.687 -34.041  1.00  0.00     0.010 A 
BRANCH   5   9
HETATM    9  C   UNL     1      -0.138   6.642 -31.077  1.00  0.00     0.417 C 
HETATM   10  F   UNL     1       1.068   7.054 -31.547  1.00  0.00    -0.166 F 
HETATM   11  F   UNL     1      -0.731   7.730 -30.518  1.00  0.00    -0.166 F 
HETATM   12  F   UNL     1       0.125   5.790 -30.047  1.00  0.00    -0.166 F 
ENDBRANCH   5   9
ENDBRANCH   2   3
BRANCH   2  13
HETATM   13  O   UNL     1      -2.924   2.431 -31.044  1.00  0.00    -0.389 OA
HETATM   14  H   UNL     1      -2.683   3.241 -30.550  1.00  0.00     0.210 HD
ENDBRANCH   2  13
ENDBRANCH   1   2
BRANCH   1  15
HETATM   15  N   UNL     1      -5.377   1.648 -33.083  1.00  0.00    -0.068 N 
HETATM   16  H   UNL     1      -4.545   1.085 -33.334  1.00  0.00     0.280 HD
HETATM   17  C   UNL     1      -6.178   0.837 -32.094  1.00  0.00     0.235 C 
HETATM   18  C   UNL     1      -6.788  -0.385 -32.767  1.00  0.00     0.037 C 
HETATM   19  C   UNL     1      -7.670  -0.002 -33.961  1.00  0.00     0.025 C 
HETATM   20  C   UNL     1      -6.787   0.766 -34.954  1.00  0.00     0.037 C 
HETATM   21  C   UNL     1      -6.145   1.998 -34.332  1.00  0.00     0.235 C 
BRANCH  19  22
HETATM   22  C   UNL     1      -8.920   0.738 -33.551  1.00  0.00    -0.018 A 
HETATM   23  C   UNL     1      -9.693   1.660 -34.301  1.00  0.00     0.147 A 
HETATM   24  N   UNL     1     -10.712   2.165 -33.609  1.00  0.00    -0.187 NA
HETATM   25  N   UNL     1     -10.681   1.495 -32.450  1.00  0.00    -0.289 N 
HETATM   26  H   UNL     1     -11.412   1.673 -31.767  1.00  0.00     0.188 HD
HETATM   27  C   UNL     1      -9.618   0.642 -32.361  1.00  0.00     0.118 A 
ENDBRANCH  19  22
ENDBRANCH   1  15
TORSDOF 6
ENDMDL
MODEL 9
REMARK VINA RESULT:      -7.3      2.675      4.550
REMARK  6 active torsions:
REMARK  status: ('A' for Active; 'I' for Inactive)
REMARK    1  A    between atoms: C_3  and  C_4 
REMARK    2  A    between atoms: C_9  and  C_10 
REMARK    3  A    between atoms: C_10  and  O_11 
REMARK    4  A    between atoms: C_10  and  C_12 
REMARK    5  A    between atoms: C_12  and  N_13 
REMARK    6  A    between atoms: C_17  and  C_18 
ROOT
HETATM    1  C   UNL     1      -8.455   0.766 -33.226  1.00  0.00     0.271 C 
ENDROOT
BRANCH   1   2
HETATM    2  C   UNL     1      -7.500   0.546 -34.431  1.00  0.00     0.177 C 
BRANCH   2   3
HETATM    3  C   UNL     1      -6.454  -0.537 -34.228  1.00  0.00    -0.027 A 
HETATM    4  C   UNL     1      -6.743  -1.877 -34.547  1.00  0.00     0.025 A 
HETATM    5  C   UNL     1      -5.776  -2.893 -34.415  1.00  0.00     0.048 A 
HETATM    6  C   UNL     1      -4.514  -2.565 -33.912  1.00  0.00     0.016 A 
HETATM    7  C   UNL     1      -4.225  -1.253 -33.546  1.00  0.00     0.001 A 
HETATM    8  C   UNL     1      -5.185  -0.248 -33.701  1.00  0.00     0.010 A 
BRANCH   5   9
HETATM    9  C   UNL     1      -6.108  -4.304 -34.847  1.00  0.00     0.417 C 
HETATM   10  F   UNL     1      -6.170  -4.471 -36.193  1.00  0.00    -0.166 F 
HETATM   11  F   UNL     1      -5.207  -5.210 -34.382  1.00  0.00    -0.166 F 
HETATM   12  F   UNL     1      -7.318  -4.697 -34.357  1.00  0.00    -0.166 F 
ENDBRANCH   5   9
ENDBRANCH   2   3
BRANCH   2  13
HETATM   13  O   UNL     1      -8.353   0.263 -35.553  1.00  0.00    -0.389 OA
HETATM   14  H   UNL     1      -8.864  -0.537 -35.316  1.00  0.00     0.210 HD
ENDBRANCH   2  13
ENDBRANCH   1   2
BRANCH   1  15
HETATM   15  N   UNL     1      -8.679   2.261 -32.936  1.00  0.00    -0.068 N 
HETATM   16  H   UNL     1      -7.720   2.621 -32.785  1.00  0.00     0.280 HD
HETATM   17  C   UNL     1      -9.253   3.011 -34.113  1.00  0.00     0.235 C 
HETATM   18  C   UNL     1      -9.494   4.472 -33.757  1.00  0.00     0.037 C 
HETATM   19  C   UNL     1     -10.418   4.622 -32.543  1.00  0.00     0.025 C 
HETATM   20  C   UNL     1      -9.753   3.891 -31.369  1.00  0.00     0.037 C 
HETATM   21  C   UNL     1      -9.483   2.424 -31.672  1.00  0.00     0.235 C 
BRANCH  19  22
HETATM   22  C   UNL     1     -11.831   4.172 -32.825  1.00  0.00    -0.018 A 
HETATM   23  C   UNL     1     -12.844   3.795 -31.907  1.00  0.00     0.147 A 
HETATM   24  N   UNL     1     -13.966   3.404 -32.506  1.00  0.00    -0.187 NA
HETATM   25  N   UNL     1     -13.737   3.630 -33.805  1.00  0.00    -0.289 N 
HETATM   26  H   UNL     1     -14.487   3.456 -34.468  1.00  0.00     0.188 HD
HETATM   27  C   UNL     1     -12.468   4.075 -34.049  1.00  0.00     0.118 A 
ENDBRANCH  19  22
ENDBRANCH   1  15
TORSDOF 6
ENDMDL
MODEL 10
REMARK VINA RESULT:      -7.3      2.624      3.779
REMARK  6 active torsions:
REMARK  status: ('A' for Active; 'I' for Inactive)
REMARK    1  A    between atoms: C_3  and  C_4 
REMARK    2  A    between atoms: C_9  and  C_10 
REMARK    3  A    between atoms: C_10  and  O_11 
REMARK    4  A    between atoms: C_10  and  C_12 
REMARK    5  A    between atoms: C_12  and  N_13 
REMARK    6  A    between atoms: C_17  and  C_18 
ROOT
HETATM    1  C   UNL     1      -3.997   1.704 -32.649  1.00  0.00     0.271 C 
ENDROOT
BRANCH   1   2
HETATM    2  C   UNL     1      -4.864   0.561 -32.053  1.00  0.00     0.177 C 
BRANCH   2   3
HETATM    3  C   UNL     1      -5.117  -0.605 -32.993  1.00  0.00    -0.027 A 
HETATM    4  C   UNL     1      -4.330  -1.770 -32.913  1.00  0.00     0.025 A 
HETATM    5  C   UNL     1      -4.575  -2.884 -33.738  1.00  0.00     0.048 A 
HETATM    6  C   UNL     1      -5.596  -2.812 -34.690  1.00  0.00     0.016 A 
HETATM    7  C   UNL     1      -6.354  -1.651 -34.816  1.00  0.00     0.001 A 
HETATM    8  C   UNL     1      -6.117  -0.557 -33.978  1.00  0.00     0.010 A 
BRANCH   5   9
HETATM    9  C   UNL     1      -3.755  -4.143 -33.561  1.00  0.00     0.417 C 
HETATM   10  F   UNL     1      -2.930  -4.118 -32.482  1.00  0.00    -0.166 F 
HETATM   11  F   UNL     1      -4.532  -5.251 -33.432  1.00  0.00    -0.166 F 
HETATM   12  F   UNL     1      -2.959  -4.369 -34.645  1.00  0.00    -0.166 F 
ENDBRANCH   5   9
ENDBRANCH   2   3
BRANCH   2  13
HETATM   13  O   UNL     1      -4.185   0.147 -30.856  1.00  0.00    -0.389 OA
HETATM   14  H   UNL     1      -4.876  -0.187 -30.248  1.00  0.00     0.210 HD
ENDBRANCH   2  13
ENDBRANCH   1   2
BRANCH   1  15
HETATM   15  N   UNL     1      -4.560   3.094 -32.300  1.00  0.00    -0.068 N 
HETATM   16  H   UNL     1      -5.476   2.878 -31.867  1.00  0.00     0.280 HD
HETATM   17  C   UNL     1      -3.740   3.820 -31.263  1.00  0.00     0.235 C 
HETATM   18  C   UNL     1      -4.315   5.202 -30.989  1.00  0.00     0.037 C 
HETATM   19  C   UNL     1      -4.408   6.048 -32.264  1.00  0.00     0.025 C 
HETATM   20  C   UNL     1      -5.300   5.287 -33.254  1.00  0.00     0.037 C 
HETATM   21  C   UNL     1      -4.774   3.892 -33.561  1.00  0.00     0.235 C 
BRANCH  19  22
HETATM   22  C   UNL     1      -3.055   6.420 -32.819  1.00  0.00    -0.018 A 
HETATM   23  C   UNL     1      -2.603   6.380 -34.162  1.00  0.00     0.147 A 
HETATM   24  N   UNL     1      -1.326   6.734 -34.289  1.00  0.00    -0.187 NA
HETATM   25  N   UNL     1      -0.970   7.117 -33.057  1.00  0.00    -0.289 N 
HETATM   26  H   UNL     1      -0.036   7.489 -32.915  1.00  0.00     0.188 HD
HETATM   27  C   UNL     1      -1.965   6.933 -32.138  1.00  0.00     0.118 A 
ENDBRANCH  19  22
ENDBRANCH   1  15
TORSDOF 6
ENDMDL
