MODEL 1
REMARK VINA RESULT:      -7.6      0.000      0.000
REMARK  4 active torsions:
REMARK  status: ('A' for Active; 'I' for Inactive)
REMARK    1  A    between atoms: C_2  and  N_3 
REMARK    2  A    between atoms: C_2  and  C_13 
REMARK       I    between atoms: N_3  and  C_4 
REMARK    3  A    between atoms: C_4  and  C_5 
REMARK    4  A    between atoms: C_6  and  C_7 
ROOT
HETATM    1  C   UNL     1      -8.609   3.174 -31.428  1.00  0.00     0.040 C 
HETATM    2  C   UNL     1      -8.664   2.508 -32.799  1.00  0.00     0.150 C 
ENDROOT
BRANCH   2   3
HETATM    3  N   UNL     1      -7.820   1.326 -32.824  1.00  0.00    -0.346 N 
HETATM    4  C   UNL     1      -6.765   1.226 -33.694  1.00  0.00     0.241 C 
HETATM    5  O   UNL     1      -6.425   2.124 -34.457  1.00  0.00    -0.269 OA
HETATM    6  H   UNL     1      -8.204   0.487 -32.408  1.00  0.00     0.163 HD
BRANCH   4   7
HETATM    7  C   UNL     1      -6.090  -0.093 -33.643  1.00  0.00     0.075 C 
HETATM    8  C   UNL     1      -6.556  -1.110 -34.387  1.00  0.00     0.017 C 
BRANCH   8   9
HETATM    9  C   UNL     1      -5.995  -2.427 -34.456  1.00  0.00    -0.029 A 
HETATM   10  C   UNL     1      -4.686  -2.675 -34.092  1.00  0.00     0.061 A 
HETATM   11  S   UNL     1      -4.260  -4.326 -34.256  1.00  0.00    -0.113 SA
HETATM   12  C   UNL     1      -5.824  -4.728 -34.812  1.00  0.00     0.050 A 
HETATM   13  C   UNL     1      -6.652  -3.627 -34.873  1.00  0.00     0.019 A 
ENDBRANCH   8   9
ENDBRANCH   4   7
ENDBRANCH   2   3
BRANCH   2  14
HETATM   14  C   UNL     1     -10.057   2.094 -33.167  1.00  0.00     0.127 A 
HETATM   15  N   UNL     1     -11.030   2.846 -33.645  1.00  0.00    -0.231 NA
HETATM   16  C   UNL     1     -12.100   2.000 -33.810  1.00  0.00     0.085 A 
HETATM   17  C   UNL     1     -11.781   0.706 -33.411  1.00  0.00     0.062 A 
HETATM   18  C   UNL     1     -13.388   2.267 -34.295  1.00  0.00     0.034 A 
HETATM   19  N   UNL     1     -10.479   0.795 -32.995  1.00  0.00    -0.341 N 
HETATM   20  C   UNL     1     -12.682  -0.358 -33.465  1.00  0.00     0.032 A 
HETATM   21  H   UNL     1      -9.920   0.055 -32.587  1.00  0.00     0.167 HD
HETATM   22  C   UNL     1     -13.962  -0.072 -33.954  1.00  0.00     0.002 A 
HETATM   23  C   UNL     1     -14.313   1.218 -34.363  1.00  0.00     0.002 A 
ENDBRANCH   2  14
TORSDOF 4
ENDMDL
MODEL 2
REMARK VINA RESULT:      -7.3      4.490      7.354
REMARK  4 active torsions:
REMARK  status: ('A' for Active; 'I' for Inactive)
REMARK    1  A    between atoms: C_2  and  N_3 
REMARK    2  A    between atoms: C_2  and  C_13 
REMARK       I    between atoms: N_3  and  C_4 
REMARK    3  A    between atoms: C_4  and  C_5 
REMARK    4  A    between atoms: C_6  and  C_7 
ROOT
HETATM    1  C   UNL     1      -7.615   1.248 -31.684  1.00  0.00     0.040 C 
HETATM    2  C   UNL     1      -7.215   1.164 -33.153  1.00  0.00     0.150 C 
ENDROOT
BRANCH   2   3
HETATM    3  N   UNL     1      -6.237   2.191 -33.473  1.00  0.00    -0.346 N 
HETATM    4  C   UNL     1      -6.628   3.441 -33.877  1.00  0.00     0.241 C 
HETATM    5  O   UNL     1      -7.799   3.799 -33.944  1.00  0.00    -0.269 OA
HETATM    6  H   UNL     1      -5.297   1.874 -33.673  1.00  0.00     0.163 HD
BRANCH   4   7
HETATM    7  C   UNL     1      -5.491   4.312 -34.258  1.00  0.00     0.075 C 
HETATM    8  C   UNL     1      -4.440   4.439 -33.430  1.00  0.00     0.017 C 
BRANCH   8   9
HETATM    9  C   UNL     1      -3.266   5.223 -33.675  1.00  0.00    -0.029 A 
HETATM   10  C   UNL     1      -3.039   6.412 -33.009  1.00  0.00     0.061 A 
HETATM   11  S   UNL     1      -1.567   7.154 -33.471  1.00  0.00    -0.113 SA
HETATM   12  C   UNL     1      -1.214   5.890 -34.565  1.00  0.00     0.050 A 
HETATM   13  C   UNL     1      -2.199   4.925 -34.579  1.00  0.00     0.019 A 
ENDBRANCH   8   9
ENDBRANCH   4   7
ENDBRANCH   2   3
BRANCH   2  14
HETATM   14  C   UNL     1      -6.622  -0.168 -33.499  1.00  0.00     0.127 A 
HETATM   15  N   UNL     1      -5.368  -0.559 -33.371  1.00  0.00    -0.231 NA
HETATM   16  C   UNL     1      -5.339  -1.853 -33.831  1.00  0.00     0.085 A 
HETATM   17  C   UNL     1      -6.597  -2.259 -34.264  1.00  0.00     0.062 A 
HETATM   18  C   UNL     1      -4.265  -2.751 -33.914  1.00  0.00     0.034 A 
HETATM   19  N   UNL     1      -7.393  -1.165 -34.054  1.00  0.00    -0.341 N 
HETATM   20  C   UNL     1      -6.857  -3.526 -34.786  1.00  0.00     0.032 A 
HETATM   21  H   UNL     1      -8.372  -1.069 -34.297  1.00  0.00     0.167 HD
HETATM   22  C   UNL     1      -5.773  -4.410 -34.859  1.00  0.00     0.002 A 
HETATM   23  C   UNL     1      -4.497  -4.032 -34.431  1.00  0.00     0.002 A 
ENDBRANCH   2  14
TORSDOF 4
ENDMDL
MODEL 3
REMARK VINA RESULT:      -7.3      3.499      6.439
REMARK  4 active torsions:
REMARK  status: ('A' for Active; 'I' for Inactive)
REMARK    1  A    between atoms: C_2  and  N_3 
REMARK    2  A    between atoms: C_2  and  C_13 
REMARK       I    between atoms: N_3  and  C_4 
REMARK    3  A    between atoms: C_4  and  C_5 
REMARK    4  A    between atoms: C_6  and  C_7 
ROOT
HETATM    1  C   UNL     1      -8.297   3.802 -33.896  1.00  0.00     0.040 C 
HETATM    2  C   UNL     1      -7.198   3.233 -33.005  1.00  0.00     0.150 C 
ENDROOT
BRANCH   2   3
HETATM    3  N   UNL     1      -7.130   1.788 -33.140  1.00  0.00    -0.346 N 
HETATM    4  C   UNL     1      -6.839   0.988 -32.065  1.00  0.00     0.241 C 
HETATM    5  O   UNL     1      -6.675   1.412 -30.927  1.00  0.00    -0.269 OA
HETATM    6  H   UNL     1      -7.008   1.426 -34.078  1.00  0.00     0.163 HD
BRANCH   4   7
HETATM    7  C   UNL     1      -6.711  -0.445 -32.424  1.00  0.00     0.075 C 
HETATM    8  C   UNL     1      -6.112  -0.794 -33.574  1.00  0.00     0.017 C 
BRANCH   8   9
HETATM    9  C   UNL     1      -5.898  -2.134 -34.038  1.00  0.00    -0.029 A 
HETATM   10  C   UNL     1      -4.664  -2.745 -33.937  1.00  0.00     0.061 A 
HETATM   11  S   UNL     1      -4.669  -4.343 -34.553  1.00  0.00    -0.113 SA
HETATM   12  C   UNL     1      -6.325  -4.236 -34.958  1.00  0.00     0.050 A 
HETATM   13  C   UNL     1      -6.861  -3.008 -34.633  1.00  0.00     0.019 A 
ENDBRANCH   8   9
ENDBRANCH   4   7
ENDBRANCH   2   3
BRANCH   2  14
HETATM   14  C   UNL     1      -5.851   3.797 -33.345  1.00  0.00     0.127 A 
HETATM   15  N   UNL     1      -5.502   4.481 -34.418  1.00  0.00    -0.231 NA
HETATM   16  C   UNL     1      -4.167   4.760 -34.258  1.00  0.00     0.085 A 
HETATM   17  C   UNL     1      -3.684   4.224 -33.069  1.00  0.00     0.062 A 
HETATM   18  C   UNL     1      -3.292   5.469 -35.094  1.00  0.00     0.034 A 
HETATM   19  N   UNL     1      -4.771   3.605 -32.513  1.00  0.00    -0.341 N 
HETATM   20  C   UNL     1      -2.357   4.350 -32.653  1.00  0.00     0.032 A 
HETATM   21  H   UNL     1      -4.790   3.060 -31.660  1.00  0.00     0.167 HD
HETATM   22  C   UNL     1      -1.500   5.063 -33.499  1.00  0.00     0.002 A 
HETATM   23  C   UNL     1      -1.955   5.615 -34.700  1.00  0.00     0.002 A 
ENDBRANCH   2  14
TORSDOF 4
ENDMDL
MODEL 4
REMARK VINA RESULT:      -7.1      3.485      7.654
REMARK  4 active torsions:
REMARK  status: ('A' for Active; 'I' for Inactive)
REMARK    1  A    between atoms: C_2  and  N_3 
REMARK    2  A    between atoms: C_2  and  C_13 
REMARK       I    between atoms: N_3  and  C_4 
REMARK    3  A    between atoms: C_4  and  C_5 
REMARK    4  A    between atoms: C_6  and  C_7 
ROOT
HETATM    1  C   UNL     1      -3.330   2.287 -32.310  1.00  0.00     0.040 C 
HETATM    2  C   UNL     1      -4.304   1.320 -31.647  1.00  0.00     0.150 C 
ENDROOT
BRANCH   2   3
HETATM    3  N   UNL     1      -5.675   1.749 -31.866  1.00  0.00    -0.346 N 
HETATM    4  C   UNL     1      -6.580   1.785 -30.837  1.00  0.00     0.241 C 
HETATM    5  O   UNL     1      -6.298   1.521 -29.673  1.00  0.00    -0.269 OA
HETATM    6  H   UNL     1      -6.008   1.730 -32.822  1.00  0.00     0.163 HD
BRANCH   4   7
HETATM    7  C   UNL     1      -7.949   2.146 -31.277  1.00  0.00     0.075 C 
HETATM    8  C   UNL     1      -8.572   1.398 -32.203  1.00  0.00     0.017 C 
BRANCH   8   9
HETATM    9  C   UNL     1      -9.897   1.613 -32.705  1.00  0.00    -0.029 A 
HETATM   10  C   UNL     1     -10.517   2.844 -32.606  1.00  0.00     0.061 A 
HETATM   11  S   UNL     1     -12.088   2.845 -33.286  1.00  0.00    -0.113 SA
HETATM   12  C   UNL     1     -11.955   1.199 -33.724  1.00  0.00     0.050 A 
HETATM   13  C   UNL     1     -10.740   0.660 -33.358  1.00  0.00     0.019 A 
ENDBRANCH   8   9
ENDBRANCH   4   7
ENDBRANCH   2   3
BRANCH   2  14
HETATM   14  C   UNL     1      -4.162  -0.074 -32.180  1.00  0.00     0.127 A 
HETATM   15  N   UNL     1      -4.632  -0.566 -33.310  1.00  0.00    -0.231 NA
HETATM   16  C   UNL     1      -4.238  -1.882 -33.330  1.00  0.00     0.085 A 
HETATM   17  C   UNL     1      -3.526  -2.208 -32.181  1.00  0.00     0.062 A 
HETATM   18  C   UNL     1      -4.458  -2.869 -34.301  1.00  0.00     0.034 A 
HETATM   19  N   UNL     1      -3.501  -1.044 -31.460  1.00  0.00    -0.341 N 
HETATM   20  C   UNL     1      -3.009  -3.480 -31.933  1.00  0.00     0.032 A 
HETATM   21  H   UNL     1      -3.108  -0.910 -30.536  1.00  0.00     0.167 HD
HETATM   22  C   UNL     1      -3.236  -4.452 -32.915  1.00  0.00     0.002 A 
HETATM   23  C   UNL     1      -3.948  -4.155 -34.081  1.00  0.00     0.002 A 
ENDBRANCH   2  14
TORSDOF 4
ENDMDL
MODEL 5
REMARK VINA RESULT:      -7.0      8.613     11.008
REMARK  4 active torsions:
REMARK  status: ('A' for Active; 'I' for Inactive)
REMARK    1  A    between atoms: C_2  and  N_3 
REMARK    2  A    between atoms: C_2  and  C_13 
REMARK       I    between atoms: N_3  and  C_4 
REMARK    3  A    between atoms: C_4  and  C_5 
REMARK    4  A    between atoms: C_6  and  C_7 
ROOT
HETATM    1  C   UNL     1      -1.832   5.939 -32.811  1.00  0.00     0.040 C 
HETATM    2  C   UNL     1      -1.496   4.890 -31.757  1.00  0.00     0.150 C 
ENDROOT
BRANCH   2   3
HETATM    3  N   UNL     1      -0.995   5.525 -30.549  1.00  0.00    -0.346 N 
HETATM    4  C   UNL     1       0.204   5.153 -29.998  1.00  0.00     0.241 C 
HETATM    5  O   UNL     1       0.954   4.322 -30.498  1.00  0.00    -0.269 OA
HETATM    6  H   UNL     1      -1.674   6.015 -29.981  1.00  0.00     0.163 HD
BRANCH   4   7
HETATM    7  C   UNL     1       0.492   5.838 -28.715  1.00  0.00     0.075 C 
HETATM    8  C   UNL     1       0.587   7.177 -28.680  1.00  0.00     0.017 C 
BRANCH   8   9
HETATM    9  C   UNL     1       0.837   7.972 -27.513  1.00  0.00    -0.029 A 
HETATM   10  C   UNL     1       0.231   9.200 -27.332  1.00  0.00     0.061 A 
HETATM   11  S   UNL     1       0.686   9.947 -25.860  1.00  0.00    -0.113 SA
HETATM   12  C   UNL     1       1.696   8.633 -25.446  1.00  0.00     0.050 A 
HETATM   13  C   UNL     1       1.688   7.647 -26.411  1.00  0.00     0.019 A 
ENDBRANCH   8   9
ENDBRANCH   4   7
ENDBRANCH   2   3
BRANCH   2  14
HETATM   14  C   UNL     1      -2.690   4.062 -31.387  1.00  0.00     0.127 A 
HETATM   15  N   UNL     1      -2.865   2.766 -31.557  1.00  0.00    -0.231 NA
HETATM   16  C   UNL     1      -4.118   2.497 -31.061  1.00  0.00     0.085 A 
HETATM   17  C   UNL     1      -4.729   3.655 -30.592  1.00  0.00     0.062 A 
HETATM   18  C   UNL     1      -4.809   1.279 -30.982  1.00  0.00     0.034 A 
HETATM   19  N   UNL     1      -3.805   4.639 -30.822  1.00  0.00    -0.341 N 
HETATM   20  C   UNL     1      -6.011   3.676 -30.040  1.00  0.00     0.032 A 
HETATM   21  H   UNL     1      -3.919   5.631 -30.653  1.00  0.00     0.167 HD
HETATM   22  C   UNL     1      -6.683   2.451 -29.966  1.00  0.00     0.002 A 
HETATM   23  C   UNL     1      -6.096   1.270 -30.428  1.00  0.00     0.002 A 
ENDBRANCH   2  14
TORSDOF 4
ENDMDL
MODEL 6
REMARK VINA RESULT:      -6.9      7.603     10.522
REMARK  4 active torsions:
REMARK  status: ('A' for Active; 'I' for Inactive)
REMARK    1  A    between atoms: C_2  and  N_3 
REMARK    2  A    between atoms: C_2  and  C_13 
REMARK       I    between atoms: N_3  and  C_4 
REMARK    3  A    between atoms: C_4  and  C_5 
REMARK    4  A    between atoms: C_6  and  C_7 
ROOT
HETATM    1  C   UNL     1      -1.248   6.621 -32.949  1.00  0.00     0.040 C 
HETATM    2  C   UNL     1      -1.914   6.171 -31.653  1.00  0.00     0.150 C 
ENDROOT
BRANCH   2   3
HETATM    3  N   UNL     1      -2.057   4.725 -31.630  1.00  0.00    -0.346 N 
HETATM    4  C   UNL     1      -3.286   4.136 -31.483  1.00  0.00     0.241 C 
HETATM    5  O   UNL     1      -4.338   4.763 -31.419  1.00  0.00    -0.269 OA
HETATM    6  H   UNL     1      -1.221   4.191 -31.428  1.00  0.00     0.163 HD
BRANCH   4   7
HETATM    7  C   UNL     1      -3.215   2.659 -31.378  1.00  0.00     0.075 C 
HETATM    8  C   UNL     1      -3.730   1.894 -32.355  1.00  0.00     0.017 C 
BRANCH   8   9
HETATM    9  C   UNL     1      -3.713   0.461 -32.399  1.00  0.00    -0.029 A 
HETATM   10  C   UNL     1      -4.378  -0.239 -33.387  1.00  0.00     0.061 A 
HETATM   11  S   UNL     1      -4.199  -1.934 -33.224  1.00  0.00    -0.113 SA
HETATM   12  C   UNL     1      -3.226  -1.749 -31.832  1.00  0.00     0.050 A 
HETATM   13  C   UNL     1      -3.044  -0.424 -31.498  1.00  0.00     0.019 A 
ENDBRANCH   8   9
ENDBRANCH   4   7
ENDBRANCH   2   3
BRANCH   2  14
HETATM   14  C   UNL     1      -1.128   6.580 -30.445  1.00  0.00     0.127 A 
HETATM   15  N   UNL     1      -0.104   7.411 -30.383  1.00  0.00    -0.231 NA
HETATM   16  C   UNL     1       0.262   7.444 -29.059  1.00  0.00     0.085 A 
HETATM   17  C   UNL     1      -0.543   6.604 -28.297  1.00  0.00     0.062 A 
HETATM   18  C   UNL     1       1.284   8.168 -28.429  1.00  0.00     0.034 A 
HETATM   19  N   UNL     1      -1.411   6.058 -29.203  1.00  0.00    -0.341 N 
HETATM   20  C   UNL     1      -0.391   6.438 -26.919  1.00  0.00     0.032 A 
HETATM   21  H   UNL     1      -2.119   5.356 -29.020  1.00  0.00     0.167 HD
HETATM   22  C   UNL     1       0.632   7.172 -26.308  1.00  0.00     0.002 A 
HETATM   23  C   UNL     1       1.458   8.024 -27.046  1.00  0.00     0.002 A 
ENDBRANCH   2  14
TORSDOF 4
ENDMDL
MODEL 7
REMARK VINA RESULT:      -6.9      5.179      8.127
REMARK  4 active torsions:
REMARK  status: ('A' for Active; 'I' for Inactive)
REMARK    1  A    between atoms: C_2  and  N_3 
REMARK    2  A    between atoms: C_2  and  C_13 
REMARK       I    between atoms: N_3  and  C_4 
REMARK    3  A    between atoms: C_4  and  C_5 
REMARK    4  A    between atoms: C_6  and  C_7 
ROOT
HETATM    1  C   UNL     1      -6.093   5.415 -33.145  1.00  0.00     0.040 C 
HETATM    2  C   UNL     1      -5.225   4.484 -32.304  1.00  0.00     0.150 C 
ENDROOT
BRANCH   2   3
HETATM    3  N   UNL     1      -5.091   3.190 -32.953  1.00  0.00    -0.346 N 
HETATM    4  C   UNL     1      -5.618   2.057 -32.389  1.00  0.00     0.241 C 
HETATM    5  O   UNL     1      -6.275   2.054 -31.354  1.00  0.00    -0.269 OA
HETATM    6  H   UNL     1      -4.363   3.108 -33.651  1.00  0.00     0.163 HD
BRANCH   4   7
HETATM    7  C   UNL     1      -5.287   0.824 -33.144  1.00  0.00     0.075 C 
HETATM    8  C   UNL     1      -6.053  -0.271 -33.002  1.00  0.00     0.017 C 
BRANCH   8   9
HETATM    9  C   UNL     1      -5.869  -1.519 -33.682  1.00  0.00    -0.029 A 
HETATM   10  C   UNL     1      -6.940  -2.242 -34.169  1.00  0.00     0.061 A 
HETATM   11  S   UNL     1      -6.457  -3.691 -34.944  1.00  0.00    -0.113 SA
HETATM   12  C   UNL     1      -4.809  -3.365 -34.640  1.00  0.00     0.050 A 
HETATM   13  C   UNL     1      -4.630  -2.178 -33.960  1.00  0.00     0.019 A 
ENDBRANCH   8   9
ENDBRANCH   4   7
ENDBRANCH   2   3
BRANCH   2  14
HETATM   14  C   UNL     1      -3.851   5.041 -32.087  1.00  0.00     0.127 A 
HETATM   15  N   UNL     1      -3.281   6.064 -32.695  1.00  0.00    -0.231 NA
HETATM   16  C   UNL     1      -2.026   6.165 -32.145  1.00  0.00     0.085 A 
HETATM   17  C   UNL     1      -1.816   5.175 -31.192  1.00  0.00     0.062 A 
HETATM   18  C   UNL     1      -1.000   7.082 -32.416  1.00  0.00     0.034 A 
HETATM   19  N   UNL     1      -2.987   4.465 -31.182  1.00  0.00    -0.341 N 
HETATM   20  C   UNL     1      -0.625   5.036 -30.479  1.00  0.00     0.032 A 
HETATM   21  H   UNL     1      -3.189   3.632 -30.642  1.00  0.00     0.167 HD
HETATM   22  C   UNL     1       0.386   5.962 -30.760  1.00  0.00     0.002 A 
HETATM   23  C   UNL     1       0.206   6.970 -31.712  1.00  0.00     0.002 A 
ENDBRANCH   2  14
TORSDOF 4
ENDMDL
MODEL 8
REMARK VINA RESULT:      -6.8      5.119      7.652
REMARK  4 active torsions:
REMARK  status: ('A' for Active; 'I' for Inactive)
REMARK    1  A    between atoms: C_2  and  N_3 
REMARK    2  A    between atoms: C_2  and  C_13 
REMARK       I    between atoms: N_3  and  C_4 
REMARK    3  A    between atoms: C_4  and  C_5 
REMARK    4  A    between atoms: C_6  and  C_7 
ROOT
HETATM    1  C   UNL     1      -8.088   4.271 -33.412  1.00  0.00     0.040 C 
HETATM    2  C   UNL     1      -6.719   3.949 -34.003  1.00  0.00     0.150 C 
ENDROOT
BRANCH   2   3
HETATM    3  N   UNL     1      -5.669   4.607 -33.244  1.00  0.00    -0.346 N 
HETATM    4  C   UNL     1      -4.617   5.220 -33.874  1.00  0.00     0.241 C 
HETATM    5  O   UNL     1      -4.512   5.310 -35.092  1.00  0.00    -0.269 OA
HETATM    6  H   UNL     1      -5.583   4.345 -32.271  1.00  0.00     0.163 HD
BRANCH   4   7
HETATM    7  C   UNL     1      -3.598   5.741 -32.932  1.00  0.00     0.075 C 
HETATM    8  C   UNL     1      -2.391   5.155 -32.863  1.00  0.00     0.017 C 
BRANCH   8   9
HETATM    9  C   UNL     1      -1.305   5.561 -32.020  1.00  0.00    -0.029 A 
HETATM   10  C   UNL     1      -0.950   4.837 -30.900  1.00  0.00     0.061 A 
HETATM   11  S   UNL     1       0.380   5.523 -30.068  1.00  0.00    -0.113 SA
HETATM   12  C   UNL     1       0.497   6.796 -31.200  1.00  0.00     0.050 A 
HETATM   13  C   UNL     1      -0.459   6.701 -32.190  1.00  0.00     0.019 A 
ENDBRANCH   8   9
ENDBRANCH   4   7
ENDBRANCH   2   3
BRANCH   2  14
HETATM   14  C   UNL     1      -6.440   2.476 -34.004  1.00  0.00     0.127 A 
HETATM   15  N   UNL     1      -7.005   1.541 -34.744  1.00  0.00    -0.231 NA
HETATM   16  C   UNL     1      -6.409   0.363 -34.365  1.00  0.00     0.085 A 
HETATM   17  C   UNL     1      -5.471   0.578 -33.360  1.00  0.00     0.062 A 
HETATM   18  C   UNL     1      -6.622  -0.942 -34.833  1.00  0.00     0.034 A 
HETATM   19  N   UNL     1      -5.519   1.928 -33.141  1.00  0.00    -0.341 N 
HETATM   20  C   UNL     1      -4.719  -0.445 -32.781  1.00  0.00     0.032 A 
HETATM   21  H   UNL     1      -5.005   2.449 -32.439  1.00  0.00     0.167 HD
HETATM   22  C   UNL     1      -4.943  -1.740 -33.264  1.00  0.00     0.002 A 
HETATM   23  C   UNL     1      -5.879  -1.988 -34.272  1.00  0.00     0.002 A 
ENDBRANCH   2  14
TORSDOF 4
ENDMDL
MODEL 9
REMARK VINA RESULT:      -6.6      3.996      7.498
REMARK  4 active torsions:
REMARK  status: ('A' for Active; 'I' for Inactive)
REMARK    1  A    between atoms: C_2  and  N_3 
REMARK    2  A    between atoms: C_2  and  C_13 
REMARK       I    between atoms: N_3  and  C_4 
REMARK    3  A    between atoms: C_4  and  C_5 
REMARK    4  A    between atoms: C_6  and  C_7 
ROOT
HETATM    1  C   UNL     1      -6.020   1.337 -29.823  1.00  0.00     0.040 C 
HETATM    2  C   UNL     1      -5.818   1.032 -31.303  1.00  0.00     0.150 C 
ENDROOT
BRANCH   2   3
HETATM    3  N   UNL     1      -7.101   0.913 -31.977  1.00  0.00    -0.346 N 
HETATM    4  C   UNL     1      -7.369  -0.145 -32.808  1.00  0.00     0.241 C 
HETATM    5  O   UNL     1      -6.594  -1.075 -32.998  1.00  0.00    -0.269 OA
HETATM    6  H   UNL     1      -7.654   1.757 -32.050  1.00  0.00     0.163 HD
BRANCH   4   7
HETATM    7  C   UNL     1      -8.685  -0.035 -33.482  1.00  0.00     0.075 C 
HETATM    8  C   UNL     1      -9.544   0.931 -33.117  1.00  0.00     0.017 C 
BRANCH   8   9
HETATM    9  C   UNL     1     -10.835   1.171 -33.693  1.00  0.00    -0.029 A 
HETATM   10  C   UNL     1     -11.073   2.263 -34.504  1.00  0.00     0.061 A 
HETATM   11  S   UNL     1     -12.687   2.321 -35.072  1.00  0.00    -0.113 SA
HETATM   12  C   UNL     1     -13.084   0.882 -34.242  1.00  0.00     0.050 A 
HETATM   13  C   UNL     1     -12.010   0.370 -33.545  1.00  0.00     0.019 A 
ENDBRANCH   8   9
ENDBRANCH   4   7
ENDBRANCH   2   3
BRANCH   2  14
HETATM   14  C   UNL     1      -5.027   2.101 -31.995  1.00  0.00     0.127 A 
HETATM   15  N   UNL     1      -3.752   2.400 -31.838  1.00  0.00    -0.231 NA
HETATM   16  C   UNL     1      -3.513   3.451 -32.689  1.00  0.00     0.085 A 
HETATM   17  C   UNL     1      -4.670   3.814 -33.371  1.00  0.00     0.062 A 
HETATM   18  C   UNL     1      -2.326   4.157 -32.933  1.00  0.00     0.034 A 
HETATM   19  N   UNL     1      -5.621   2.948 -32.903  1.00  0.00    -0.341 N 
HETATM   20  C   UNL     1      -4.719   4.857 -34.297  1.00  0.00     0.032 A 
HETATM   21  H   UNL     1      -6.607   2.943 -33.138  1.00  0.00     0.167 HD
HETATM   22  C   UNL     1      -3.524   5.548 -34.529  1.00  0.00     0.002 A 
HETATM   23  C   UNL     1      -2.345   5.207 -33.860  1.00  0.00     0.002 A 
ENDBRANCH   2  14
TORSDOF 4
ENDMDL
MODEL 10
REMARK VINA RESULT:      -6.6      3.836      5.212
REMARK  4 active torsions:
REMARK  status: ('A' for Active; 'I' for Inactive)
REMARK    1  A    between atoms: C_2  and  N_3 
REMARK    2  A    between atoms: C_2  and  C_13 
REMARK       I    between atoms: N_3  and  C_4 
REMARK    3  A    between atoms: C_4  and  C_5 
REMARK    4  A    between atoms: C_6  and  C_7 
ROOT
HETATM    1  C   UNL     1      -7.436  -0.912 -33.482  1.00  0.00     0.040 C 
HETATM    2  C   UNL     1      -7.900   0.419 -32.899  1.00  0.00     0.150 C 
ENDROOT
BRANCH   2   3
HETATM    3  N   UNL     1      -6.973   1.480 -33.254  1.00  0.00    -0.346 N 
HETATM    4  C   UNL     1      -6.082   1.979 -32.339  1.00  0.00     0.241 C 
HETATM    5  O   UNL     1      -5.960   1.543 -31.200  1.00  0.00    -0.269 OA
HETATM    6  H   UNL     1      -7.204   2.027 -34.074  1.00  0.00     0.163 HD
BRANCH   4   7
HETATM    7  C   UNL     1      -5.297   3.125 -32.857  1.00  0.00     0.075 C 
HETATM    8  C   UNL     1      -4.031   3.308 -32.445  1.00  0.00     0.017 C 
BRANCH   8   9
HETATM    9  C   UNL     1      -3.149   4.353 -32.875  1.00  0.00    -0.029 A 
HETATM   10  C   UNL     1      -3.554   5.312 -33.782  1.00  0.00     0.061 A 
HETATM   11  S   UNL     1      -2.323   6.452 -34.127  1.00  0.00    -0.113 SA
HETATM   12  C   UNL     1      -1.236   5.677 -33.061  1.00  0.00     0.050 A 
HETATM   13  C   UNL     1      -1.799   4.572 -32.458  1.00  0.00     0.019 A 
ENDBRANCH   8   9
ENDBRANCH   4   7
ENDBRANCH   2   3
BRANCH   2  14
HETATM   14  C   UNL     1      -9.261   0.804 -33.392  1.00  0.00     0.127 A 
HETATM   15  N   UNL     1      -9.586   1.811 -34.181  1.00  0.00    -0.231 NA
HETATM   16  C   UNL     1     -10.950   1.736 -34.329  1.00  0.00     0.085 A 
HETATM   17  C   UNL     1     -11.474   0.671 -33.603  1.00  0.00     0.062 A 
HETATM   18  C   UNL     1     -11.818   2.551 -35.069  1.00  0.00     0.034 A 
HETATM   19  N   UNL     1     -10.381   0.102 -33.007  1.00  0.00    -0.341 N 
HETATM   20  C   UNL     1     -12.834   0.363 -33.567  1.00  0.00     0.032 A 
HETATM   21  H   UNL     1     -10.379  -0.675 -32.356  1.00  0.00     0.167 HD
HETATM   22  C   UNL     1     -13.685   1.186 -34.314  1.00  0.00     0.002 A 
HETATM   23  C   UNL     1     -13.189   2.263 -35.054  1.00  0.00     0.002 A 
ENDBRANCH   2  14
TORSDOF 4
ENDMDL
