MODEL 1
REMARK VINA RESULT:      -8.8      0.000      0.000
REMARK  5 active torsions:
REMARK  status: ('A' for Active; 'I' for Inactive)
REMARK    1  A    between atoms: C_2  and  O_3 
REMARK    2  A    between atoms: O_3  and  C_4 
REMARK    3  A    between atoms: C_7  and  C_8 
REMARK       I    between atoms: N_11  and  C_12 
REMARK    4  A    between atoms: C_12  and  C_13 
REMARK    5  A    between atoms: C_16  and  C_17 
ROOT
HETATM    1  C   UNL     1       0.438   8.576 -27.891  1.00  0.00    -0.049 C 
HETATM    2  C   UNL     1      -0.079   9.865 -27.298  1.00  0.00     0.059 C 
HETATM    3  C   UNL     1       0.965  10.573 -26.435  1.00  0.00     0.131 C 
HETATM    4  N   UNL     1       1.650   9.660 -25.526  1.00  0.00    -0.344 N 
HETATM    5  C   UNL     1       2.140  10.219 -24.338  1.00  0.00     0.254 C 
HETATM    6  O   UNL     1       1.878  11.358 -23.959  1.00  0.00    -0.267 OA
HETATM    7  C   UNL     1       2.264   8.482 -26.135  1.00  0.00     0.154 C 
HETATM    8  C   UNL     1       1.505   7.976 -27.326  1.00  0.00     0.001 C 
ENDROOT
BRANCH   5   9
HETATM    9  C   UNL     1       3.078   9.432 -23.509  1.00  0.00     0.032 A 
HETATM   10  C   UNL     1       4.435   9.458 -23.842  1.00  0.00     0.018 A 
HETATM   11  C   UNL     1       5.344   8.698 -23.102  1.00  0.00     0.016 A 
HETATM   12  C   UNL     1       4.908   7.913 -22.023  1.00  0.00     0.014 A 
HETATM   13  C   UNL     1       3.546   7.931 -21.676  1.00  0.00     0.016 A 
HETATM   14  C   UNL     1       2.633   8.698 -22.407  1.00  0.00     0.018 A 
BRANCH  12  15
HETATM   15  C   UNL     1       5.847   7.074 -21.285  1.00  0.00     0.181 A 
HETATM   16  N   UNL     1       5.794   6.872 -19.958  1.00  0.00    -0.152 NA
HETATM   17  N   UNL     1       6.859   6.086 -19.750  1.00  0.00    -0.263 N 
HETATM   18  H   UNL     1       7.066   5.769 -18.810  1.00  0.00     0.190 HD
HETATM   19  C   UNL     1       7.534   5.840 -20.909  1.00  0.00     0.118 A 
HETATM   20  C   UNL     1       8.773   5.039 -20.972  1.00  0.00     0.093 C 
HETATM   21  N   UNL     1       6.911   6.443 -21.897  1.00  0.00    -0.212 NA
ENDBRANCH  12  15
ENDBRANCH   5   9
BRANCH   1  22
HETATM   22  C   UNL     1      -0.264   8.008 -29.071  1.00  0.00    -0.030 A 
HETATM   23  C   UNL     1      -1.595   8.353 -29.358  1.00  0.00     0.014 A 
HETATM   24  C   UNL     1      -2.256   7.852 -30.489  1.00  0.00     0.037 A 
HETATM   25  C   UNL     1      -1.598   6.990 -31.362  1.00  0.00     0.068 A 
HETATM   26  C   UNL     1      -0.280   6.630 -31.088  1.00  0.00     0.037 A 
HETATM   27  C   UNL     1       0.382   7.141 -29.965  1.00  0.00     0.014 A 
BRANCH  25  28
HETATM   28  O   UNL     1      -2.123   6.432 -32.493  1.00  0.00    -0.352 OA
BRANCH  28  29
HETATM   29  C   UNL     1      -1.547   6.826 -33.737  1.00  0.00     0.171 C 
HETATM   30  C   UNL     1      -1.393   5.583 -34.596  1.00  0.00     0.034 C 
ENDBRANCH  28  29
ENDBRANCH  25  28
ENDBRANCH   1  22
TORSDOF 5
ENDMDL
MODEL 2
REMARK VINA RESULT:      -8.8      5.143      9.225
REMARK  5 active torsions:
REMARK  status: ('A' for Active; 'I' for Inactive)
REMARK    1  A    between atoms: C_2  and  O_3 
REMARK    2  A    between atoms: O_3  and  C_4 
REMARK    3  A    between atoms: C_7  and  C_8 
REMARK       I    between atoms: N_11  and  C_12 
REMARK    4  A    between atoms: C_12  and  C_13 
REMARK    5  A    between atoms: C_16  and  C_17 
ROOT
HETATM    1  C   UNL     1      -4.778   3.959 -33.349  1.00  0.00    -0.049 C 
HETATM    2  C   UNL     1      -4.610   5.025 -34.405  1.00  0.00     0.059 C 
HETATM    3  C   UNL     1      -3.221   5.660 -34.380  1.00  0.00     0.131 C 
HETATM    4  N   UNL     1      -2.786   6.001 -33.029  1.00  0.00    -0.344 N 
HETATM    5  C   UNL     1      -1.887   7.069 -32.917  1.00  0.00     0.254 C 
HETATM    6  O   UNL     1      -1.592   7.816 -33.847  1.00  0.00    -0.267 OA
HETATM    7  C   UNL     1      -2.827   4.920 -32.046  1.00  0.00     0.154 C 
HETATM    8  C   UNL     1      -3.948   3.952 -32.287  1.00  0.00     0.001 C 
ENDROOT
BRANCH   5   9
HETATM    9  C   UNL     1      -1.192   7.289 -31.630  1.00  0.00     0.032 A 
HETATM   10  C   UNL     1       0.069   6.715 -31.453  1.00  0.00     0.018 A 
HETATM   11  C   UNL     1       0.738   6.873 -30.237  1.00  0.00     0.016 A 
HETATM   12  C   UNL     1       0.157   7.609 -29.192  1.00  0.00     0.014 A 
HETATM   13  C   UNL     1      -1.094   8.215 -29.402  1.00  0.00     0.016 A 
HETATM   14  C   UNL     1      -1.763   8.068 -30.621  1.00  0.00     0.018 A 
BRANCH  12  15
HETATM   15  C   UNL     1       0.828   7.727 -27.901  1.00  0.00     0.181 A 
HETATM   16  N   UNL     1       0.816   6.773 -26.956  1.00  0.00    -0.152 NA
HETATM   17  N   UNL     1       1.515   7.347 -25.968  1.00  0.00    -0.263 N 
HETATM   18  H   UNL     1       1.668   6.836 -25.106  1.00  0.00     0.190 HD
HETATM   19  C   UNL     1       1.916   8.606 -26.303  1.00  0.00     0.118 A 
HETATM   20  C   UNL     1       2.666   9.490 -25.389  1.00  0.00     0.093 C 
HETATM   21  N   UNL     1       1.505   8.869 -27.524  1.00  0.00    -0.212 NA
ENDBRANCH  12  15
ENDBRANCH   5   9
BRANCH   1  22
HETATM   22  C   UNL     1      -5.870   2.965 -33.515  1.00  0.00    -0.030 A 
HETATM   23  C   UNL     1      -5.639   1.595 -33.312  1.00  0.00     0.014 A 
HETATM   24  C   UNL     1      -6.670   0.651 -33.429  1.00  0.00     0.037 A 
HETATM   25  C   UNL     1      -7.960   1.058 -33.754  1.00  0.00     0.068 A 
HETATM   26  C   UNL     1      -8.206   2.413 -33.968  1.00  0.00     0.037 A 
HETATM   27  C   UNL     1      -7.178   3.355 -33.839  1.00  0.00     0.014 A 
BRANCH  25  28
HETATM   28  O   UNL     1      -9.050   0.247 -33.901  1.00  0.00    -0.352 OA
BRANCH  28  29
HETATM   29  C   UNL     1     -10.012   0.258 -32.848  1.00  0.00     0.171 C 
HETATM   30  C   UNL     1     -11.358   0.626 -33.446  1.00  0.00     0.034 C 
ENDBRANCH  28  29
ENDBRANCH  25  28
ENDBRANCH   1  22
TORSDOF 5
ENDMDL
MODEL 3
REMARK VINA RESULT:      -8.7     14.777     17.338
REMARK  5 active torsions:
REMARK  status: ('A' for Active; 'I' for Inactive)
REMARK    1  A    between atoms: C_2  and  O_3 
REMARK    2  A    between atoms: O_3  and  C_4 
REMARK    3  A    between atoms: C_7  and  C_8 
REMARK       I    between atoms: N_11  and  C_12 
REMARK    4  A    between atoms: C_12  and  C_13 
REMARK    5  A    between atoms: C_16  and  C_17 
ROOT
HETATM    1  C   UNL     1     -12.519   2.906 -33.012  1.00  0.00    -0.049 C 
HETATM    2  C   UNL     1     -11.630   4.117 -32.858  1.00  0.00     0.059 C 
HETATM    3  C   UNL     1     -10.338   4.000 -33.664  1.00  0.00     0.131 C 
HETATM    4  N   UNL     1      -9.702   2.695 -33.515  1.00  0.00    -0.344 N 
HETATM    5  C   UNL     1      -8.310   2.662 -33.675  1.00  0.00     0.254 C 
HETATM    6  O   UNL     1      -7.606   3.665 -33.758  1.00  0.00    -0.267 OA
HETATM    7  C   UNL     1     -10.539   1.532 -33.799  1.00  0.00     0.154 C 
HETATM    8  C   UNL     1     -11.980   1.747 -33.438  1.00  0.00     0.001 C 
ENDROOT
BRANCH   5   9
HETATM    9  C   UNL     1      -7.636   1.353 -33.816  1.00  0.00     0.032 A 
HETATM   10  C   UNL     1      -7.462   0.836 -35.102  1.00  0.00     0.018 A 
HETATM   11  C   UNL     1      -6.861  -0.415 -35.270  1.00  0.00     0.016 A 
HETATM   12  C   UNL     1      -6.426  -1.154 -34.159  1.00  0.00     0.014 A 
HETATM   13  C   UNL     1      -6.571  -0.600 -32.875  1.00  0.00     0.016 A 
HETATM   14  C   UNL     1      -7.163   0.656 -32.702  1.00  0.00     0.018 A 
BRANCH  12  15
HETATM   15  C   UNL     1      -5.851  -2.484 -34.328  1.00  0.00     0.181 A 
HETATM   16  N   UNL     1      -6.510  -3.528 -34.859  1.00  0.00    -0.152 NA
HETATM   17  N   UNL     1      -5.603  -4.510 -34.766  1.00  0.00    -0.263 N 
HETATM   18  H   UNL     1      -5.838  -5.436 -35.104  1.00  0.00     0.190 HD
HETATM   19  C   UNL     1      -4.449  -4.074 -34.186  1.00  0.00     0.118 A 
HETATM   20  C   UNL     1      -3.293  -4.952 -33.916  1.00  0.00     0.093 C 
HETATM   21  N   UNL     1      -4.574  -2.795 -33.907  1.00  0.00    -0.212 NA
ENDBRANCH  12  15
ENDBRANCH   5   9
BRANCH   1  22
HETATM   22  C   UNL     1     -13.959   3.037 -32.669  1.00  0.00    -0.030 A 
HETATM   23  C   UNL     1     -14.492   4.261 -32.233  1.00  0.00     0.014 A 
HETATM   24  C   UNL     1     -15.856   4.407 -31.942  1.00  0.00     0.037 A 
HETATM   25  C   UNL     1     -16.722   3.326 -32.080  1.00  0.00     0.068 A 
HETATM   26  C   UNL     1     -16.209   2.101 -32.502  1.00  0.00     0.037 A 
HETATM   27  C   UNL     1     -14.849   1.961 -32.804  1.00  0.00     0.014 A 
BRANCH  25  28
HETATM   28  O   UNL     1     -18.066   3.330 -31.830  1.00  0.00    -0.352 OA
BRANCH  28  29
HETATM   29  C   UNL     1     -18.934   3.248 -32.958  1.00  0.00     0.171 C 
HETATM   30  C   UNL     1     -19.252   4.663 -33.408  1.00  0.00     0.034 C 
ENDBRANCH  28  29
ENDBRANCH  25  28
ENDBRANCH   1  22
TORSDOF 5
ENDMDL
MODEL 4
REMARK VINA RESULT:      -8.7      4.746      8.617
REMARK  5 active torsions:
REMARK  status: ('A' for Active; 'I' for Inactive)
REMARK    1  A    between atoms: C_2  and  O_3 
REMARK    2  A    between atoms: O_3  and  C_4 
REMARK    3  A    between atoms: C_7  and  C_8 
REMARK       I    between atoms: N_11  and  C_12 
REMARK    4  A    between atoms: C_12  and  C_13 
REMARK    5  A    between atoms: C_16  and  C_17 
ROOT
HETATM    1  C   UNL     1      -3.919   3.609 -32.647  1.00  0.00    -0.049 C 
HETATM    2  C   UNL     1      -4.110   4.753 -33.615  1.00  0.00     0.059 C 
HETATM    3  C   UNL     1      -2.932   5.725 -33.612  1.00  0.00     0.131 C 
HETATM    4  N   UNL     1      -2.498   6.073 -32.262  1.00  0.00    -0.344 N 
HETATM    5  C   UNL     1      -1.896   7.329 -32.108  1.00  0.00     0.254 C 
HETATM    6  O   UNL     1      -1.874   8.189 -32.985  1.00  0.00    -0.267 OA
HETATM    7  C   UNL     1      -2.186   4.954 -31.376  1.00  0.00     0.154 C 
HETATM    8  C   UNL     1      -3.036   3.745 -31.638  1.00  0.00     0.001 C 
ENDROOT
BRANCH   5   9
HETATM    9  C   UNL     1      -1.185   7.633 -30.848  1.00  0.00     0.032 A 
HETATM   10  C   UNL     1       0.101   7.115 -30.673  1.00  0.00     0.018 A 
HETATM   11  C   UNL     1       0.787   7.354 -29.479  1.00  0.00     0.016 A 
HETATM   12  C   UNL     1       0.198   8.114 -28.456  1.00  0.00     0.014 A 
HETATM   13  C   UNL     1      -1.079   8.662 -28.665  1.00  0.00     0.016 A 
HETATM   14  C   UNL     1      -1.766   8.435 -29.863  1.00  0.00     0.018 A 
BRANCH  12  15
HETATM   15  C   UNL     1       0.889   8.316 -27.187  1.00  0.00     0.181 A 
HETATM   16  N   UNL     1       1.677   7.397 -26.603  1.00  0.00    -0.152 NA
HETATM   17  N   UNL     1       2.039   8.015 -25.471  1.00  0.00    -0.263 N 
HETATM   18  H   UNL     1       2.653   7.539 -24.820  1.00  0.00     0.190 HD
HETATM   19  C   UNL     1       1.475   9.252 -25.373  1.00  0.00     0.118 A 
HETATM   20  C   UNL     1       1.664  10.142 -24.209  1.00  0.00     0.093 C 
HETATM   21  N   UNL     1       0.751   9.473 -26.447  1.00  0.00    -0.212 NA
ENDBRANCH  12  15
ENDBRANCH   5   9
BRANCH   1  22
HETATM   22  C   UNL     1      -4.729   2.378 -32.837  1.00  0.00    -0.030 A 
HETATM   23  C   UNL     1      -5.973   2.422 -33.488  1.00  0.00     0.014 A 
HETATM   24  C   UNL     1      -6.730   1.262 -33.705  1.00  0.00     0.037 A 
HETATM   25  C   UNL     1      -6.258   0.026 -33.274  1.00  0.00     0.068 A 
HETATM   26  C   UNL     1      -5.030  -0.036 -32.619  1.00  0.00     0.037 A 
HETATM   27  C   UNL     1      -4.271   1.122 -32.413  1.00  0.00     0.014 A 
BRANCH  25  28
HETATM   28  O   UNL     1      -6.892  -1.176 -33.420  1.00  0.00    -0.352 OA
BRANCH  28  29
HETATM   29  C   UNL     1      -6.978  -1.707 -34.741  1.00  0.00     0.171 C 
HETATM   30  C   UNL     1      -6.662  -3.190 -34.671  1.00  0.00     0.034 C 
ENDBRANCH  28  29
ENDBRANCH  25  28
ENDBRANCH   1  22
TORSDOF 5
ENDMDL
MODEL 5
REMARK VINA RESULT:      -8.6      6.100     12.443
REMARK  5 active torsions:
REMARK  status: ('A' for Active; 'I' for Inactive)
REMARK    1  A    between atoms: C_2  and  O_3 
REMARK    2  A    between atoms: O_3  and  C_4 
REMARK    3  A    between atoms: C_7  and  C_8 
REMARK       I    between atoms: N_11  and  C_12 
REMARK    4  A    between atoms: C_12  and  C_13 
REMARK    5  A    between atoms: C_16  and  C_17 
ROOT
HETATM    1  C   UNL     1      -0.740   7.339 -29.847  1.00  0.00    -0.049 C 
HETATM    2  C   UNL     1       0.091   7.063 -31.078  1.00  0.00     0.059 C 
HETATM    3  C   UNL     1      -0.760   6.647 -32.276  1.00  0.00     0.131 C 
HETATM    4  N   UNL     1      -1.767   5.651 -31.928  1.00  0.00    -0.344 N 
HETATM    5  C   UNL     1      -2.166   4.786 -32.956  1.00  0.00     0.254 C 
HETATM    6  O   UNL     1      -1.605   4.714 -34.046  1.00  0.00    -0.267 OA
HETATM    7  C   UNL     1      -2.655   5.990 -30.818  1.00  0.00     0.154 C 
HETATM    8  C   UNL     1      -1.984   6.826 -29.767  1.00  0.00     0.001 C 
ENDROOT
BRANCH   5   9
HETATM    9  C   UNL     1      -3.368   3.947 -32.760  1.00  0.00     0.032 A 
HETATM   10  C   UNL     1      -4.559   4.347 -33.373  1.00  0.00     0.018 A 
HETATM   11  C   UNL     1      -5.722   3.597 -33.181  1.00  0.00     0.016 A 
HETATM   12  C   UNL     1      -5.704   2.443 -32.382  1.00  0.00     0.014 A 
HETATM   13  C   UNL     1      -4.489   2.032 -31.808  1.00  0.00     0.016 A 
HETATM   14  C   UNL     1      -3.319   2.773 -32.006  1.00  0.00     0.018 A 
BRANCH  12  15
HETATM   15  C   UNL     1      -6.930   1.690 -32.133  1.00  0.00     0.181 A 
HETATM   16  N   UNL     1      -7.191   1.032 -30.991  1.00  0.00    -0.152 NA
HETATM   17  N   UNL     1      -8.384   0.481 -31.251  1.00  0.00    -0.263 N 
HETATM   18  H   UNL     1      -8.833  -0.087 -30.542  1.00  0.00     0.190 HD
HETATM   19  C   UNL     1      -8.814   0.784 -32.509  1.00  0.00     0.118 A 
HETATM   20  C   UNL     1     -10.077   0.275 -33.081  1.00  0.00     0.093 C 
HETATM   21  N   UNL     1      -7.920   1.556 -33.086  1.00  0.00    -0.212 NA
ENDBRANCH  12  15
ENDBRANCH   5   9
BRANCH   1  22
HETATM   22  C   UNL     1      -0.143   8.155 -28.758  1.00  0.00    -0.030 A 
HETATM   23  C   UNL     1      -0.865   9.197 -28.154  1.00  0.00     0.014 A 
HETATM   24  C   UNL     1      -0.327   9.951 -27.101  1.00  0.00     0.037 A 
HETATM   25  C   UNL     1       0.953   9.679 -26.627  1.00  0.00     0.068 A 
HETATM   26  C   UNL     1       1.689   8.655 -27.221  1.00  0.00     0.037 A 
HETATM   27  C   UNL     1       1.144   7.896 -28.264  1.00  0.00     0.014 A 
BRANCH  25  28
HETATM   28  O   UNL     1       1.596  10.334 -25.614  1.00  0.00    -0.352 OA
BRANCH  28  29
HETATM   29  C   UNL     1       1.974   9.558 -24.479  1.00  0.00     0.171 C 
HETATM   30  C   UNL     1       3.445   9.814 -24.206  1.00  0.00     0.034 C 
ENDBRANCH  28  29
ENDBRANCH  25  28
ENDBRANCH   1  22
TORSDOF 5
ENDMDL
MODEL 6
REMARK VINA RESULT:      -7.9      5.864     10.287
REMARK  5 active torsions:
REMARK  status: ('A' for Active; 'I' for Inactive)
REMARK    1  A    between atoms: C_2  and  O_3 
REMARK    2  A    between atoms: O_3  and  C_4 
REMARK    3  A    between atoms: C_7  and  C_8 
REMARK       I    between atoms: N_11  and  C_12 
REMARK    4  A    between atoms: C_12  and  C_13 
REMARK    5  A    between atoms: C_16  and  C_17 
ROOT
HETATM    1  C   UNL     1      -5.791   2.816 -33.137  1.00  0.00    -0.049 C 
HETATM    2  C   UNL     1      -6.836   3.889 -33.334  1.00  0.00     0.059 C 
HETATM    3  C   UNL     1      -6.235   5.293 -33.361  1.00  0.00     0.131 C 
HETATM    4  N   UNL     1      -5.267   5.508 -32.290  1.00  0.00    -0.344 N 
HETATM    5  C   UNL     1      -5.118   6.828 -31.845  1.00  0.00     0.254 C 
HETATM    6  O   UNL     1      -5.858   7.751 -32.177  1.00  0.00    -0.267 OA
HETATM    7  C   UNL     1      -4.182   4.534 -32.196  1.00  0.00     0.154 C 
HETATM    8  C   UNL     1      -4.597   3.153 -32.610  1.00  0.00     0.001 C 
ENDROOT
BRANCH   5   9
HETATM    9  C   UNL     1      -3.972   7.164 -30.973  1.00  0.00     0.032 A 
HETATM   10  C   UNL     1      -2.810   7.661 -31.570  1.00  0.00     0.018 A 
HETATM   11  C   UNL     1      -1.697   7.956 -30.780  1.00  0.00     0.016 A 
HETATM   12  C   UNL     1      -1.735   7.763 -29.390  1.00  0.00     0.014 A 
HETATM   13  C   UNL     1      -2.925   7.304 -28.800  1.00  0.00     0.016 A 
HETATM   14  C   UNL     1      -4.047   7.017 -29.586  1.00  0.00     0.018 A 
BRANCH  12  15
HETATM   15  C   UNL     1      -0.555   8.016 -28.570  1.00  0.00     0.181 A 
HETATM   16  N   UNL     1       0.709   7.860 -29.000  1.00  0.00    -0.152 NA
HETATM   17  N   UNL     1       1.418   8.166 -27.906  1.00  0.00    -0.263 N 
HETATM   18  H   UNL     1       2.430   8.132 -27.945  1.00  0.00     0.190 HD
HETATM   19  C   UNL     1       0.609   8.477 -26.854  1.00  0.00     0.118 A 
HETATM   20  C   UNL     1       1.117   8.812 -25.508  1.00  0.00     0.093 C 
HETATM   21  N   UNL     1      -0.643   8.401 -27.248  1.00  0.00    -0.212 NA
ENDBRANCH  12  15
ENDBRANCH   5   9
BRANCH   1  22
HETATM   22  C   UNL     1      -6.129   1.421 -33.520  1.00  0.00    -0.030 A 
HETATM   23  C   UNL     1      -6.826   1.143 -34.707  1.00  0.00     0.014 A 
HETATM   24  C   UNL     1      -7.118  -0.173 -35.096  1.00  0.00     0.037 A 
HETATM   25  C   UNL     1      -6.719  -1.244 -34.303  1.00  0.00     0.068 A 
HETATM   26  C   UNL     1      -6.035  -0.987 -33.117  1.00  0.00     0.037 A 
HETATM   27  C   UNL     1      -5.733   0.326 -32.736  1.00  0.00     0.014 A 
BRANCH  25  28
HETATM   28  O   UNL     1      -6.939  -2.567 -34.563  1.00  0.00    -0.352 OA
BRANCH  28  29
HETATM   29  C   UNL     1      -5.858  -3.304 -35.130  1.00  0.00     0.171 C 
HETATM   30  C   UNL     1      -6.316  -4.740 -35.313  1.00  0.00     0.034 C 
ENDBRANCH  28  29
ENDBRANCH  25  28
ENDBRANCH   1  22
TORSDOF 5
ENDMDL
MODEL 7
REMARK VINA RESULT:      -7.9     10.036     14.832
REMARK  5 active torsions:
REMARK  status: ('A' for Active; 'I' for Inactive)
REMARK    1  A    between atoms: C_2  and  O_3 
REMARK    2  A    between atoms: O_3  and  C_4 
REMARK    3  A    between atoms: C_7  and  C_8 
REMARK       I    between atoms: N_11  and  C_12 
REMARK    4  A    between atoms: C_12  and  C_13 
REMARK    5  A    between atoms: C_16  and  C_17 
ROOT
HETATM    1  C   UNL     1     -11.159   2.461 -33.119  1.00  0.00    -0.049 C 
HETATM    2  C   UNL     1     -10.842   1.554 -34.285  1.00  0.00     0.059 C 
HETATM    3  C   UNL     1      -9.440   0.955 -34.196  1.00  0.00     0.131 C 
HETATM    4  N   UNL     1      -8.430   1.947 -33.843  1.00  0.00    -0.344 N 
HETATM    5  C   UNL     1      -7.130   1.699 -34.302  1.00  0.00     0.254 C 
HETATM    6  O   UNL     1      -6.844   0.813 -35.104  1.00  0.00    -0.267 OA
HETATM    7  C   UNL     1      -8.685   2.727 -32.634  1.00  0.00     0.154 C 
HETATM    8  C   UNL     1     -10.145   2.978 -32.397  1.00  0.00     0.001 C 
ENDROOT
BRANCH   5   9
HETATM    9  C   UNL     1      -6.012   2.499 -33.756  1.00  0.00     0.032 A 
HETATM   10  C   UNL     1      -5.844   3.805 -34.223  1.00  0.00     0.018 A 
HETATM   11  C   UNL     1      -4.777   4.576 -33.755  1.00  0.00     0.016 A 
HETATM   12  C   UNL     1      -3.876   4.053 -32.814  1.00  0.00     0.014 A 
HETATM   13  C   UNL     1      -4.084   2.753 -32.323  1.00  0.00     0.016 A 
HETATM   14  C   UNL     1      -5.157   1.980 -32.782  1.00  0.00     0.018 A 
BRANCH  12  15
HETATM   15  C   UNL     1      -2.728   4.836 -32.367  1.00  0.00     0.181 A 
HETATM   16  N   UNL     1      -2.562   6.143 -32.625  1.00  0.00    -0.152 NA
HETATM   17  N   UNL     1      -1.374   6.393 -32.058  1.00  0.00    -0.263 N 
HETATM   18  H   UNL     1      -0.991   7.331 -32.100  1.00  0.00     0.190 HD
HETATM   19  C   UNL     1      -0.842   5.272 -31.495  1.00  0.00     0.118 A 
HETATM   20  C   UNL     1       0.480   5.242 -30.837  1.00  0.00     0.093 C 
HETATM   21  N   UNL     1      -1.680   4.274 -31.666  1.00  0.00    -0.212 NA
ENDBRANCH  12  15
ENDBRANCH   5   9
BRANCH   1  22
HETATM   22  C   UNL     1     -12.584   2.762 -32.824  1.00  0.00    -0.030 A 
HETATM   23  C   UNL     1     -13.598   1.838 -33.125  1.00  0.00     0.014 A 
HETATM   24  C   UNL     1     -14.942   2.096 -32.817  1.00  0.00     0.037 A 
HETATM   25  C   UNL     1     -15.303   3.289 -32.200  1.00  0.00     0.068 A 
HETATM   26  C   UNL     1     -14.312   4.222 -31.902  1.00  0.00     0.037 A 
HETATM   27  C   UNL     1     -12.969   3.957 -32.199  1.00  0.00     0.014 A 
BRANCH  25  28
HETATM   28  O   UNL     1     -16.569   3.665 -31.848  1.00  0.00    -0.352 OA
BRANCH  28  29
HETATM   29  C   UNL     1     -17.597   2.687 -31.985  1.00  0.00     0.171 C 
HETATM   30  C   UNL     1     -18.726   3.304 -32.790  1.00  0.00     0.034 C 
ENDBRANCH  28  29
ENDBRANCH  25  28
ENDBRANCH   1  22
TORSDOF 5
ENDMDL
MODEL 8
REMARK VINA RESULT:      -7.7      8.346     14.103
REMARK  5 active torsions:
REMARK  status: ('A' for Active; 'I' for Inactive)
REMARK    1  A    between atoms: C_2  and  O_3 
REMARK    2  A    between atoms: O_3  and  C_4 
REMARK    3  A    between atoms: C_7  and  C_8 
REMARK       I    between atoms: N_11  and  C_12 
REMARK    4  A    between atoms: C_12  and  C_13 
REMARK    5  A    between atoms: C_16  and  C_17 
ROOT
HETATM    1  C   UNL     1      -4.445   5.350 -31.131  1.00  0.00    -0.049 C 
HETATM    2  C   UNL     1      -5.637   5.975 -31.816  1.00  0.00     0.059 C 
HETATM    3  C   UNL     1      -6.790   4.990 -31.999  1.00  0.00     0.131 C 
HETATM    4  N   UNL     1      -6.344   3.696 -32.508  1.00  0.00    -0.344 N 
HETATM    5  C   UNL     1      -7.279   2.969 -33.256  1.00  0.00     0.254 C 
HETATM    6  O   UNL     1      -8.354   3.425 -33.639  1.00  0.00    -0.267 OA
HETATM    7  C   UNL     1      -5.279   3.039 -31.755  1.00  0.00     0.154 C 
HETATM    8  C   UNL     1      -4.317   4.008 -31.133  1.00  0.00     0.001 C 
ENDROOT
BRANCH   5   9
HETATM    9  C   UNL     1      -7.002   1.549 -33.562  1.00  0.00     0.032 A 
HETATM   10  C   UNL     1      -6.816   0.667 -32.494  1.00  0.00     0.018 A 
HETATM   11  C   UNL     1      -6.518  -0.674 -32.748  1.00  0.00     0.016 A 
HETATM   12  C   UNL     1      -6.410  -1.146 -34.065  1.00  0.00     0.014 A 
HETATM   13  C   UNL     1      -6.642  -0.255 -35.127  1.00  0.00     0.016 A 
HETATM   14  C   UNL     1      -6.951   1.087 -34.879  1.00  0.00     0.018 A 
BRANCH  12  15
HETATM   15  C   UNL     1      -6.043  -2.533 -34.332  1.00  0.00     0.181 A 
HETATM   16  N   UNL     1      -6.864  -3.435 -34.895  1.00  0.00    -0.152 NA
HETATM   17  N   UNL     1      -6.110  -4.542 -34.894  1.00  0.00    -0.263 N 
HETATM   18  H   UNL     1      -6.489  -5.401 -35.274  1.00  0.00     0.190 HD
HETATM   19  C   UNL     1      -4.887  -4.315 -34.335  1.00  0.00     0.118 A 
HETATM   20  C   UNL     1      -3.865  -5.367 -34.162  1.00  0.00     0.093 C 
HETATM   21  N   UNL     1      -4.813  -3.051 -33.980  1.00  0.00    -0.212 NA
ENDBRANCH  12  15
ENDBRANCH   5   9
BRANCH   1  22
HETATM   22  C   UNL     1      -3.444   6.246 -30.495  1.00  0.00    -0.030 A 
HETATM   23  C   UNL     1      -2.100   6.236 -30.902  1.00  0.00     0.014 A 
HETATM   24  C   UNL     1      -1.154   7.102 -30.335  1.00  0.00     0.037 A 
HETATM   25  C   UNL     1      -1.533   8.000 -29.342  1.00  0.00     0.068 A 
HETATM   26  C   UNL     1      -2.860   8.018 -28.919  1.00  0.00     0.037 A 
HETATM   27  C   UNL     1      -3.805   7.161 -29.495  1.00  0.00     0.014 A 
BRANCH  25  28
HETATM   28  O   UNL     1      -0.716   8.894 -28.707  1.00  0.00    -0.352 OA
BRANCH  28  29
HETATM   29  C   UNL     1      -0.005   8.423 -27.565  1.00  0.00     0.171 C 
HETATM   30  C   UNL     1       1.480   8.486 -27.879  1.00  0.00     0.034 C 
ENDBRANCH  28  29
ENDBRANCH  25  28
ENDBRANCH   1  22
TORSDOF 5
ENDMDL
MODEL 9
REMARK VINA RESULT:      -7.6     24.955     26.928
REMARK  5 active torsions:
REMARK  status: ('A' for Active; 'I' for Inactive)
REMARK    1  A    between atoms: C_2  and  O_3 
REMARK    2  A    between atoms: O_3  and  C_4 
REMARK    3  A    between atoms: C_7  and  C_8 
REMARK       I    between atoms: N_11  and  C_12 
REMARK    4  A    between atoms: C_12  and  C_13 
REMARK    5  A    between atoms: C_16  and  C_17 
ROOT
HETATM    1  C   UNL     1      -6.566 -13.489 -39.660  1.00  0.00    -0.049 C 
HETATM    2  C   UNL     1      -6.203 -12.063 -39.322  1.00  0.00     0.059 C 
HETATM    3  C   UNL     1      -4.706 -11.791 -39.459  1.00  0.00     0.131 C 
HETATM    4  N   UNL     1      -3.890 -12.837 -38.851  1.00  0.00    -0.344 N 
HETATM    5  C   UNL     1      -2.628 -12.447 -38.384  1.00  0.00     0.254 C 
HETATM    6  O   UNL     1      -2.258 -11.278 -38.306  1.00  0.00    -0.267 OA
HETATM    7  C   UNL     1      -4.162 -14.204 -39.290  1.00  0.00     0.154 C 
HETATM    8  C   UNL     1      -5.605 -14.435 -39.627  1.00  0.00     0.001 C 
ENDROOT
BRANCH   5   9
HETATM    9  C   UNL     1      -1.645 -13.490 -38.018  1.00  0.00     0.032 A 
HETATM   10  C   UNL     1      -1.792 -14.131 -36.785  1.00  0.00     0.018 A 
HETATM   11  C   UNL     1      -0.861 -15.096 -36.392  1.00  0.00     0.016 A 
HETATM   12  C   UNL     1       0.216 -15.432 -37.227  1.00  0.00     0.014 A 
HETATM   13  C   UNL     1       0.324 -14.808 -38.481  1.00  0.00     0.016 A 
HETATM   14  C   UNL     1      -0.610 -13.848 -38.884  1.00  0.00     0.018 A 
BRANCH  12  15
HETATM   15  C   UNL     1       1.221 -16.398 -36.793  1.00  0.00     0.181 A 
HETATM   16  N   UNL     1       1.710 -17.377 -37.573  1.00  0.00    -0.152 NA
HETATM   17  N   UNL     1       2.550 -18.007 -36.740  1.00  0.00    -0.263 N 
HETATM   18  H   UNL     1       3.072 -18.808 -37.074  1.00  0.00     0.190 HD
HETATM   19  C   UNL     1       2.551 -17.435 -35.502  1.00  0.00     0.118 A 
HETATM   20  C   UNL     1       3.349 -17.949 -34.371  1.00  0.00     0.093 C 
HETATM   21  N   UNL     1       1.728 -16.410 -35.510  1.00  0.00    -0.212 NA
ENDBRANCH  12  15
ENDBRANCH   5   9
BRANCH   1  22
HETATM   22  C   UNL     1      -7.978 -13.799 -40.001  1.00  0.00    -0.030 A 
HETATM   23  C   UNL     1      -9.020 -12.933 -39.628  1.00  0.00     0.014 A 
HETATM   24  C   UNL     1     -10.353 -13.196 -39.976  1.00  0.00     0.037 A 
HETATM   25  C   UNL     1     -10.676 -14.336 -40.705  1.00  0.00     0.068 A 
HETATM   26  C   UNL     1      -9.657 -15.211 -41.075  1.00  0.00     0.037 A 
HETATM   27  C   UNL     1      -8.325 -14.941 -40.738  1.00  0.00     0.014 A 
BRANCH  25  28
HETATM   28  O   UNL     1     -11.927 -14.711 -41.107  1.00  0.00    -0.352 OA
BRANCH  28  29
HETATM   29  C   UNL     1     -12.010 -15.669 -42.159  1.00  0.00     0.171 C 
HETATM   30  C   UNL     1     -13.467 -15.791 -42.568  1.00  0.00     0.034 C 
ENDBRANCH  28  29
ENDBRANCH  25  28
ENDBRANCH   1  22
TORSDOF 5
ENDMDL
MODEL 10
REMARK VINA RESULT:      -7.5     14.235     16.350
REMARK  5 active torsions:
REMARK  status: ('A' for Active; 'I' for Inactive)
REMARK    1  A    between atoms: C_2  and  O_3 
REMARK    2  A    between atoms: O_3  and  C_4 
REMARK    3  A    between atoms: C_7  and  C_8 
REMARK       I    between atoms: N_11  and  C_12 
REMARK    4  A    between atoms: C_12  and  C_13 
REMARK    5  A    between atoms: C_16  and  C_17 
ROOT
HETATM    1  C   UNL     1     -11.228   5.669 -34.427  1.00  0.00    -0.049 C 
HETATM    2  C   UNL     1     -11.485   5.738 -32.940  1.00  0.00     0.059 C 
HETATM    3  C   UNL     1     -10.347   5.133 -32.120  1.00  0.00     0.131 C 
HETATM    4  N   UNL     1      -9.898   3.849 -32.649  1.00  0.00    -0.344 N 
HETATM    5  C   UNL     1      -9.343   2.957 -31.723  1.00  0.00     0.254 C 
HETATM    6  O   UNL     1      -9.375   3.125 -30.506  1.00  0.00    -0.267 OA
HETATM    7  C   UNL     1      -9.522   3.829 -34.061  1.00  0.00     0.154 C 
HETATM    8  C   UNL     1     -10.329   4.780 -34.895  1.00  0.00     0.001 C 
ENDROOT
BRANCH   5   9
HETATM    9  C   UNL     1      -8.618   1.768 -32.220  1.00  0.00     0.032 A 
HETATM   10  C   UNL     1      -7.222   1.816 -32.263  1.00  0.00     0.018 A 
HETATM   11  C   UNL     1      -6.507   0.724 -32.760  1.00  0.00     0.016 A 
HETATM   12  C   UNL     1      -7.177  -0.424 -33.211  1.00  0.00     0.014 A 
HETATM   13  C   UNL     1      -8.578  -0.473 -33.120  1.00  0.00     0.016 A 
HETATM   14  C   UNL     1      -9.299   0.614 -32.614  1.00  0.00     0.018 A 
BRANCH  12  15
HETATM   15  C   UNL     1      -6.435  -1.543 -33.783  1.00  0.00     0.181 A 
HETATM   16  N   UNL     1      -5.095  -1.602 -33.852  1.00  0.00    -0.152 NA
HETATM   17  N   UNL     1      -4.896  -2.770 -34.477  1.00  0.00    -0.263 N 
HETATM   18  H   UNL     1      -3.948  -3.078 -34.665  1.00  0.00     0.190 HD
HETATM   19  C   UNL     1      -6.075  -3.380 -34.787  1.00  0.00     0.118 A 
HETATM   20  C   UNL     1      -6.160  -4.661 -35.518  1.00  0.00     0.093 C 
HETATM   21  N   UNL     1      -7.064  -2.633 -34.351  1.00  0.00    -0.212 NA
ENDBRANCH  12  15
ENDBRANCH   5   9
BRANCH   1  22
HETATM   22  C   UNL     1     -11.992   6.576 -35.321  1.00  0.00    -0.030 A 
HETATM   23  C   UNL     1     -13.204   6.169 -35.902  1.00  0.00     0.014 A 
HETATM   24  C   UNL     1     -13.953   7.030 -36.718  1.00  0.00     0.037 A 
HETATM   25  C   UNL     1     -13.504   8.322 -36.973  1.00  0.00     0.068 A 
HETATM   26  C   UNL     1     -12.299   8.740 -36.412  1.00  0.00     0.037 A 
HETATM   27  C   UNL     1     -11.559   7.884 -35.588  1.00  0.00     0.014 A 
BRANCH  25  28
HETATM   28  O   UNL     1     -14.132   9.258 -37.747  1.00  0.00    -0.352 OA
BRANCH  28  29
HETATM   29  C   UNL     1     -14.272   8.962 -39.135  1.00  0.00     0.171 C 
HETATM   30  C   UNL     1     -12.944   9.253 -39.811  1.00  0.00     0.034 C 
ENDBRANCH  28  29
ENDBRANCH  25  28
ENDBRANCH   1  22
TORSDOF 5
ENDMDL
