MODEL 1
REMARK VINA RESULT:      -9.0      0.000      0.000
REMARK  2 active torsions:
REMARK  status: ('A' for Active; 'I' for Inactive)
REMARK    1  A    between atoms: O_2  and  C_3 
REMARK    2  A    between atoms: C_7  and  N_8 
REMARK       I    between atoms: N_8  and  C_9 
REMARK       I    between atoms: C_9  and  N_10 
ROOT
HETATM    1  N   UNL     1      -4.117   4.081 -31.943  1.00  0.00    -0.307 N 
HETATM    2  C   UNL     1      -3.410   2.939 -31.656  1.00  0.00     0.323 C 
HETATM    3  N   UNL     1      -4.088   1.746 -31.875  1.00  0.00    -0.328 N 
HETATM    4  C   UNL     1      -3.445   0.533 -31.346  1.00  0.00     0.185 C 
HETATM    5  C   UNL     1      -3.856  -0.645 -32.152  1.00  0.00     0.035 A 
HETATM    6  C   UNL     1      -4.826  -0.689 -33.129  1.00  0.00    -0.020 A 
HETATM    7  C   UNL     1      -5.583   0.530 -33.510  1.00  0.00     0.061 C 
HETATM    8  C   UNL     1      -5.467   1.599 -32.402  1.00  0.00     0.132 C 
HETATM    9  N   UNL     1      -3.306  -1.892 -32.042  1.00  0.00    -0.357 N 
HETATM   10  H   UNL     1      -2.559  -2.155 -31.413  1.00  0.00     0.166 HD
HETATM   11  C   UNL     1      -3.905  -2.749 -32.941  1.00  0.00     0.043 A 
HETATM   12  C   UNL     1      -4.869  -2.014 -33.639  1.00  0.00    -0.001 A 
HETATM   13  C   UNL     1      -3.660  -4.103 -33.194  1.00  0.00     0.030 A 
HETATM   14  C   UNL     1      -4.422  -4.726 -34.187  1.00  0.00     0.002 A 
HETATM   15  C   UNL     1      -5.391  -4.021 -34.897  1.00  0.00     0.001 A 
HETATM   16  C   UNL     1      -5.624  -2.665 -34.633  1.00  0.00     0.014 A 
HETATM   17  O   UNL     1      -2.259   2.947 -31.221  1.00  0.00    -0.247 OA
HETATM   18  H   UNL     1      -5.119   4.028 -31.837  1.00  0.00     0.170 HD
ENDROOT
BRANCH   1  19
HETATM   19  C   UNL     1      -3.610   5.404 -31.987  1.00  0.00     0.058 A 
HETATM   20  C   UNL     1      -3.955   6.300 -30.961  1.00  0.00     0.063 A 
HETATM   21  C   UNL     1      -3.471   7.611 -30.960  1.00  0.00     0.063 A 
HETATM   22 CL   UNL     1      -4.977   5.803 -29.653  1.00  0.00    -0.082 Cl
HETATM   23  C   UNL     1      -2.638   8.054 -31.987  1.00  0.00     0.070 A 
HETATM   24  C   UNL     1      -2.319   7.184 -33.029  1.00  0.00     0.039 A 
HETATM   25  C   UNL     1      -2.804   5.870 -33.029  1.00  0.00     0.034 A 
BRANCH  23  26
HETATM   26  O   UNL     1      -2.214   9.349 -31.868  1.00  0.00    -0.356 OA
HETATM   27  C   UNL     1      -2.627  10.050 -30.701  1.00  0.00     0.210 C 
ENDBRANCH  23  26
ENDBRANCH   1  19
TORSDOF 2
ENDMDL
MODEL 2
REMARK VINA RESULT:      -8.2      5.663      9.522
REMARK  2 active torsions:
REMARK  status: ('A' for Active; 'I' for Inactive)
REMARK    1  A    between atoms: O_2  and  C_3 
REMARK    2  A    between atoms: C_7  and  N_8 
REMARK       I    between atoms: N_8  and  C_9 
REMARK       I    between atoms: C_9  and  N_10 
ROOT
HETATM    1  N   UNL     1      -7.157   0.559 -33.609  1.00  0.00    -0.307 N 
HETATM    2  C   UNL     1      -7.760   0.907 -32.426  1.00  0.00     0.323 C 
HETATM    3  N   UNL     1      -8.606   2.009 -32.488  1.00  0.00    -0.328 N 
HETATM    4  C   UNL     1      -9.063   2.543 -31.196  1.00  0.00     0.185 C 
HETATM    5  C   UNL     1     -10.377   3.215 -31.368  1.00  0.00     0.035 A 
HETATM    6  C   UNL     1     -11.023   3.492 -32.552  1.00  0.00    -0.020 A 
HETATM    7  C   UNL     1     -10.435   3.091 -33.855  1.00  0.00     0.061 C 
HETATM    8  C   UNL     1      -8.926   2.808 -33.696  1.00  0.00     0.132 C 
HETATM    9  N   UNL     1     -11.162   3.661 -30.341  1.00  0.00    -0.357 N 
HETATM   10  H   UNL     1     -10.948   3.580 -29.356  1.00  0.00     0.166 HD
HETATM   11  C   UNL     1     -12.317   4.222 -30.844  1.00  0.00     0.043 A 
HETATM   12  C   UNL     1     -12.253   4.129 -32.237  1.00  0.00    -0.001 A 
HETATM   13  C   UNL     1     -13.406   4.790 -30.175  1.00  0.00     0.030 A 
HETATM   14  C   UNL     1     -14.462   5.277 -30.951  1.00  0.00     0.002 A 
HETATM   15  C   UNL     1     -14.426   5.200 -32.341  1.00  0.00     0.001 A 
HETATM   16  C   UNL     1     -13.328   4.628 -32.997  1.00  0.00     0.014 A 
HETATM   17  O   UNL     1      -7.570   0.309 -31.368  1.00  0.00    -0.247 OA
HETATM   18  H   UNL     1      -6.985   1.307 -34.264  1.00  0.00     0.170 HD
ENDROOT
BRANCH   1  19
HETATM   19  C   UNL     1      -6.406  -0.616 -33.866  1.00  0.00     0.058 A 
HETATM   20  C   UNL     1      -5.053  -0.655 -33.489  1.00  0.00     0.063 A 
HETATM   21  C   UNL     1      -4.278  -1.796 -33.714  1.00  0.00     0.063 A 
HETATM   22 CL   UNL     1      -4.306   0.703 -32.714  1.00  0.00    -0.082 Cl
HETATM   23  C   UNL     1      -4.838  -2.917 -34.326  1.00  0.00     0.070 A 
HETATM   24  C   UNL     1      -6.169  -2.875 -34.737  1.00  0.00     0.039 A 
HETATM   25  C   UNL     1      -6.945  -1.732 -34.510  1.00  0.00     0.034 A 
BRANCH  23  26
HETATM   26  O   UNL     1      -3.987  -3.976 -34.477  1.00  0.00    -0.356 OA
HETATM   27  C   UNL     1      -3.475  -4.559 -33.284  1.00  0.00     0.210 C 
ENDBRANCH  23  26
ENDBRANCH   1  19
TORSDOF 2
ENDMDL
MODEL 3
REMARK VINA RESULT:      -8.0      2.739      3.502
REMARK  2 active torsions:
REMARK  status: ('A' for Active; 'I' for Inactive)
REMARK    1  A    between atoms: O_2  and  C_3 
REMARK    2  A    between atoms: C_7  and  N_8 
REMARK       I    between atoms: N_8  and  C_9 
REMARK       I    between atoms: C_9  and  N_10 
ROOT
HETATM    1  N   UNL     1      -5.301   3.356 -31.191  1.00  0.00    -0.307 N 
HETATM    2  C   UNL     1      -6.142   2.594 -31.965  1.00  0.00     0.323 C 
HETATM    3  N   UNL     1      -5.535   1.548 -32.651  1.00  0.00    -0.328 N 
HETATM    4  C   UNL     1      -6.364   0.880 -33.668  1.00  0.00     0.185 C 
HETATM    5  C   UNL     1      -5.910  -0.524 -33.841  1.00  0.00     0.035 A 
HETATM    6  C   UNL     1      -4.783  -1.108 -33.305  1.00  0.00    -0.020 A 
HETATM    7  C   UNL     1      -3.871  -0.339 -32.422  1.00  0.00     0.061 C 
HETATM    8  C   UNL     1      -4.101   1.177 -32.606  1.00  0.00     0.132 C 
HETATM    9  N   UNL     1      -6.573  -1.469 -34.573  1.00  0.00    -0.357 N 
HETATM   10  H   UNL     1      -7.442  -1.330 -35.070  1.00  0.00     0.166 HD
HETATM   11  C   UNL     1      -5.891  -2.667 -34.516  1.00  0.00     0.043 A 
HETATM   12  C   UNL     1      -4.758  -2.465 -33.723  1.00  0.00    -0.001 A 
HETATM   13  C   UNL     1      -6.197  -3.904 -35.094  1.00  0.00     0.030 A 
HETATM   14  C   UNL     1      -5.319  -4.966 -34.856  1.00  0.00     0.002 A 
HETATM   15  C   UNL     1      -4.181  -4.795 -34.072  1.00  0.00     0.001 A 
HETATM   16  C   UNL     1      -3.888  -3.550 -33.499  1.00  0.00     0.014 A 
HETATM   17  O   UNL     1      -7.348   2.810 -32.069  1.00  0.00    -0.247 OA
HETATM   18  H   UNL     1      -4.344   3.426 -31.501  1.00  0.00     0.170 HD
ENDROOT
BRANCH   1  19
HETATM   19  C   UNL     1      -5.680   4.352 -30.255  1.00  0.00     0.058 A 
HETATM   20  C   UNL     1      -4.907   5.520 -30.154  1.00  0.00     0.063 A 
HETATM   21  C   UNL     1      -5.248   6.531 -29.252  1.00  0.00     0.063 A 
HETATM   22 CL   UNL     1      -3.514   5.754 -31.158  1.00  0.00    -0.082 Cl
HETATM   23  C   UNL     1      -6.365   6.393 -28.430  1.00  0.00     0.070 A 
HETATM   24  C   UNL     1      -7.119   5.222 -28.496  1.00  0.00     0.039 A 
HETATM   25  C   UNL     1      -6.776   4.209 -29.401  1.00  0.00     0.034 A 
BRANCH  23  26
HETATM   26  O   UNL     1      -6.608   7.454 -27.603  1.00  0.00    -0.356 OA
HETATM   27  C   UNL     1      -5.475   8.204 -27.177  1.00  0.00     0.210 C 
ENDBRANCH  23  26
ENDBRANCH   1  19
TORSDOF 2
ENDMDL
MODEL 4
REMARK VINA RESULT:      -7.9      4.760      8.584
REMARK  2 active torsions:
REMARK  status: ('A' for Active; 'I' for Inactive)
REMARK    1  A    between atoms: O_2  and  C_3 
REMARK    2  A    between atoms: C_7  and  N_8 
REMARK       I    between atoms: N_8  and  C_9 
REMARK       I    between atoms: C_9  and  N_10 
ROOT
HETATM    1  N   UNL     1      -8.068   3.140 -33.637  1.00  0.00    -0.307 N 
HETATM    2  C   UNL     1      -7.091   2.828 -32.725  1.00  0.00     0.323 C 
HETATM    3  N   UNL     1      -5.832   3.354 -32.994  1.00  0.00    -0.328 N 
HETATM    4  C   UNL     1      -4.728   2.834 -32.172  1.00  0.00     0.185 C 
HETATM    5  C   UNL     1      -3.654   3.855 -32.072  1.00  0.00     0.035 A 
HETATM    6  C   UNL     1      -3.563   5.041 -32.767  1.00  0.00    -0.020 A 
HETATM    7  C   UNL     1      -4.620   5.446 -33.728  1.00  0.00     0.061 C 
HETATM    8  C   UNL     1      -5.466   4.222 -34.139  1.00  0.00     0.132 C 
HETATM    9  N   UNL     1      -2.572   3.765 -31.241  1.00  0.00    -0.357 N 
HETATM   10  H   UNL     1      -2.381   3.007 -30.600  1.00  0.00     0.166 HD
HETATM   11  C   UNL     1      -1.778   4.883 -31.384  1.00  0.00     0.043 A 
HETATM   12  C   UNL     1      -2.381   5.703 -32.342  1.00  0.00    -0.001 A 
HETATM   13  C   UNL     1      -0.587   5.230 -30.735  1.00  0.00     0.030 A 
HETATM   14  C   UNL     1       0.004   6.451 -31.075  1.00  0.00     0.002 A 
HETATM   15  C   UNL     1      -0.572   7.288 -32.027  1.00  0.00     0.001 A 
HETATM   16  C   UNL     1      -1.764   6.927 -32.668  1.00  0.00     0.014 A 
HETATM   17  O   UNL     1      -7.288   2.122 -31.737  1.00  0.00    -0.247 OA
HETATM   18  H   UNL     1      -7.764   3.295 -34.587  1.00  0.00     0.170 HD
ENDROOT
BRANCH   1  19
HETATM   19  C   UNL     1      -9.459   2.894 -33.510  1.00  0.00     0.058 A 
HETATM   20  C   UNL     1      -9.976   1.666 -33.954  1.00  0.00     0.063 A 
HETATM   21  C   UNL     1     -11.339   1.378 -33.839  1.00  0.00     0.063 A 
HETATM   22 CL   UNL     1      -8.939   0.461 -34.642  1.00  0.00    -0.082 Cl
HETATM   23  C   UNL     1     -12.211   2.314 -33.284  1.00  0.00     0.070 A 
HETATM   24  C   UNL     1     -11.714   3.549 -32.873  1.00  0.00     0.039 A 
HETATM   25  C   UNL     1     -10.348   3.837 -32.988  1.00  0.00     0.034 A 
BRANCH  23  26
HETATM   26  O   UNL     1     -13.516   1.912 -33.208  1.00  0.00    -0.356 OA
HETATM   27  C   UNL     1     -13.860   0.724 -33.913  1.00  0.00     0.210 C 
ENDBRANCH  23  26
ENDBRANCH   1  19
TORSDOF 2
ENDMDL
MODEL 5
REMARK VINA RESULT:      -7.8      7.362     10.121
REMARK  2 active torsions:
REMARK  status: ('A' for Active; 'I' for Inactive)
REMARK    1  A    between atoms: O_2  and  C_3 
REMARK    2  A    between atoms: C_7  and  N_8 
REMARK       I    between atoms: N_8  and  C_9 
REMARK       I    between atoms: C_9  and  N_10 
ROOT
HETATM    1  N   UNL     1      -9.071   1.011 -33.138  1.00  0.00    -0.307 N 
HETATM    2  C   UNL     1      -9.646   2.176 -32.693  1.00  0.00     0.323 C 
HETATM    3  N   UNL     1     -10.972   2.366 -33.063  1.00  0.00    -0.328 N 
HETATM    4  C   UNL     1     -11.525   3.706 -32.810  1.00  0.00     0.185 C 
HETATM    5  C   UNL     1     -12.995   3.614 -32.619  1.00  0.00     0.035 A 
HETATM    6  C   UNL     1     -13.795   2.510 -32.820  1.00  0.00    -0.020 A 
HETATM    7  C   UNL     1     -13.213   1.214 -33.252  1.00  0.00     0.061 C 
HETATM    8  C   UNL     1     -11.809   1.434 -33.856  1.00  0.00     0.132 C 
HETATM    9  N   UNL     1     -13.789   4.642 -32.192  1.00  0.00    -0.357 N 
HETATM   10  H   UNL     1     -13.473   5.572 -31.952  1.00  0.00     0.166 HD
HETATM   11  C   UNL     1     -15.099   4.218 -32.108  1.00  0.00     0.043 A 
HETATM   12  C   UNL     1     -15.129   2.877 -32.501  1.00  0.00    -0.001 A 
HETATM   13  C   UNL     1     -16.245   4.914 -31.709  1.00  0.00     0.030 A 
HETATM   14  C   UNL     1     -17.459   4.219 -31.710  1.00  0.00     0.002 A 
HETATM   15  C   UNL     1     -17.521   2.883 -32.097  1.00  0.00     0.001 A 
HETATM   16  C   UNL     1     -16.364   2.200 -32.495  1.00  0.00     0.014 A 
HETATM   17  O   UNL     1      -9.044   3.016 -32.025  1.00  0.00    -0.247 OA
HETATM   18  H   UNL     1      -9.425   0.637 -34.005  1.00  0.00     0.170 HD
ENDROOT
BRANCH   1  19
HETATM   19  C   UNL     1      -7.809   0.487 -32.756  1.00  0.00     0.058 A 
HETATM   20  C   UNL     1      -6.878   0.158 -33.754  1.00  0.00     0.063 A 
HETATM   21  C   UNL     1      -5.621  -0.352 -33.422  1.00  0.00     0.063 A 
HETATM   22 CL   UNL     1      -7.251   0.392 -35.430  1.00  0.00    -0.082 Cl
HETATM   23  C   UNL     1      -5.271  -0.550 -32.086  1.00  0.00     0.070 A 
HETATM   24  C   UNL     1      -6.202  -0.260 -31.089  1.00  0.00     0.039 A 
HETATM   25  C   UNL     1      -7.462   0.252 -31.423  1.00  0.00     0.034 A 
BRANCH  23  26
HETATM   26  O   UNL     1      -4.009  -1.037 -31.886  1.00  0.00    -0.356 OA
HETATM   27  C   UNL     1      -3.668  -2.229 -32.583  1.00  0.00     0.210 C 
ENDBRANCH  23  26
ENDBRANCH   1  19
TORSDOF 2
ENDMDL
MODEL 6
REMARK VINA RESULT:      -7.8      5.272      6.214
REMARK  2 active torsions:
REMARK  status: ('A' for Active; 'I' for Inactive)
REMARK    1  A    between atoms: O_2  and  C_3 
REMARK    2  A    between atoms: C_7  and  N_8 
REMARK       I    between atoms: N_8  and  C_9 
REMARK       I    between atoms: C_9  and  N_10 
ROOT
HETATM    1  N   UNL     1      -8.758   2.836 -33.616  1.00  0.00    -0.307 N 
HETATM    2  C   UNL     1      -8.887   1.581 -34.159  1.00  0.00     0.323 C 
HETATM    3  N   UNL     1      -7.701   0.869 -34.305  1.00  0.00    -0.328 N 
HETATM    4  C   UNL     1      -7.785  -0.364 -35.103  1.00  0.00     0.185 C 
HETATM    5  C   UNL     1      -6.732  -1.316 -34.666  1.00  0.00     0.035 A 
HETATM    6  C   UNL     1      -5.697  -1.071 -33.791  1.00  0.00    -0.020 A 
HETATM    7  C   UNL     1      -5.545   0.255 -33.141  1.00  0.00     0.061 C 
HETATM    8  C   UNL     1      -6.345   1.325 -33.914  1.00  0.00     0.132 C 
HETATM    9  N   UNL     1      -6.644  -2.618 -35.075  1.00  0.00    -0.357 N 
HETATM   10  H   UNL     1      -7.280  -3.082 -35.709  1.00  0.00     0.166 HD
HETATM   11  C   UNL     1      -5.562  -3.225 -34.472  1.00  0.00     0.043 A 
HETATM   12  C   UNL     1      -4.947  -2.270 -33.658  1.00  0.00    -0.001 A 
HETATM   13  C   UNL     1      -5.094  -4.540 -34.579  1.00  0.00     0.030 A 
HETATM   14  C   UNL     1      -3.965  -4.888 -33.832  1.00  0.00     0.002 A 
HETATM   15  C   UNL     1      -3.329  -3.958 -33.014  1.00  0.00     0.001 A 
HETATM   16  C   UNL     1      -3.810  -2.646 -32.917  1.00  0.00     0.014 A 
HETATM   17  O   UNL     1      -9.964   1.103 -34.512  1.00  0.00    -0.247 OA
HETATM   18  H   UNL     1      -7.886   3.312 -33.787  1.00  0.00     0.170 HD
ENDROOT
BRANCH   1  19
HETATM   19  C   UNL     1      -9.809   3.688 -33.191  1.00  0.00     0.058 A 
HETATM   20  C   UNL     1     -10.175   3.693 -31.836  1.00  0.00     0.063 A 
HETATM   21  C   UNL     1     -11.199   4.524 -31.372  1.00  0.00     0.063 A 
HETATM   22 CL   UNL     1      -9.358   2.683 -30.690  1.00  0.00    -0.082 Cl
HETATM   23  C   UNL     1     -11.880   5.361 -32.255  1.00  0.00     0.070 A 
HETATM   24  C   UNL     1     -11.549   5.338 -33.609  1.00  0.00     0.039 A 
HETATM   25  C   UNL     1     -10.522   4.505 -34.073  1.00  0.00     0.034 A 
BRANCH  23  26
HETATM   26  O   UNL     1     -12.848   6.139 -31.682  1.00  0.00    -0.356 OA
HETATM   27  C   UNL     1     -14.198   5.770 -31.938  1.00  0.00     0.210 C 
ENDBRANCH  23  26
ENDBRANCH   1  19
TORSDOF 2
ENDMDL
MODEL 7
REMARK VINA RESULT:      -7.8      5.105      6.335
REMARK  2 active torsions:
REMARK  status: ('A' for Active; 'I' for Inactive)
REMARK    1  A    between atoms: O_2  and  C_3 
REMARK    2  A    between atoms: C_7  and  N_8 
REMARK       I    between atoms: N_8  and  C_9 
REMARK       I    between atoms: C_9  and  N_10 
ROOT
HETATM    1  N   UNL     1      -6.319   3.867 -32.929  1.00  0.00    -0.307 N 
HETATM    2  C   UNL     1      -6.862   2.613 -33.070  1.00  0.00     0.323 C 
HETATM    3  N   UNL     1      -8.210   2.506 -32.749  1.00  0.00    -0.328 N 
HETATM    4  C   UNL     1      -8.743   1.138 -32.656  1.00  0.00     0.185 C 
HETATM    5  C   UNL     1     -10.197   1.144 -32.961  1.00  0.00     0.035 A 
HETATM    6  C   UNL     1     -11.009   2.244 -33.125  1.00  0.00    -0.020 A 
HETATM    7  C   UNL     1     -10.460   3.620 -33.032  1.00  0.00     0.061 C 
HETATM    8  C   UNL     1      -9.100   3.604 -32.301  1.00  0.00     0.132 C 
HETATM    9  N   UNL     1     -10.958   0.022 -33.137  1.00  0.00    -0.357 N 
HETATM   10  H   UNL     1     -10.626  -0.931 -33.089  1.00  0.00     0.166 HD
HETATM   11  C   UNL     1     -12.260   0.380 -33.419  1.00  0.00     0.043 A 
HETATM   12  C   UNL     1     -12.319   1.777 -33.416  1.00  0.00    -0.001 A 
HETATM   13  C   UNL     1     -13.376  -0.421 -33.684  1.00  0.00     0.030 A 
HETATM   14  C   UNL     1     -14.587   0.223 -33.954  1.00  0.00     0.002 A 
HETATM   15  C   UNL     1     -14.677   1.612 -33.956  1.00  0.00     0.001 A 
HETATM   16  C   UNL     1     -13.551   2.401 -33.689  1.00  0.00     0.014 A 
HETATM   17  O   UNL     1      -6.215   1.634 -33.439  1.00  0.00    -0.247 OA
HETATM   18  H   UNL     1      -6.733   4.459 -32.224  1.00  0.00     0.170 HD
ENDROOT
BRANCH   1  19
HETATM   19  C   UNL     1      -5.036   4.290 -33.358  1.00  0.00     0.058 A 
HETATM   20  C   UNL     1      -3.934   4.089 -32.511  1.00  0.00     0.063 A 
HETATM   21  C   UNL     1      -2.650   4.483 -32.898  1.00  0.00     0.063 A 
HETATM   22 CL   UNL     1      -4.127   3.330 -30.966  1.00  0.00    -0.082 Cl
HETATM   23  C   UNL     1      -2.443   5.089 -34.136  1.00  0.00     0.070 A 
HETATM   24  C   UNL     1      -3.536   5.326 -34.970  1.00  0.00     0.039 A 
HETATM   25  C   UNL     1      -4.822   4.931 -34.581  1.00  0.00     0.034 A 
BRANCH  23  26
HETATM   26  O   UNL     1      -1.143   5.413 -34.410  1.00  0.00    -0.356 OA
HETATM   27  C   UNL     1      -0.682   6.668 -33.922  1.00  0.00     0.210 C 
ENDBRANCH  23  26
ENDBRANCH   1  19
TORSDOF 2
ENDMDL
MODEL 8
REMARK VINA RESULT:      -7.7      3.347      9.495
REMARK  2 active torsions:
REMARK  status: ('A' for Active; 'I' for Inactive)
REMARK    1  A    between atoms: O_2  and  C_3 
REMARK    2  A    between atoms: C_7  and  N_8 
REMARK       I    between atoms: N_8  and  C_9 
REMARK       I    between atoms: C_9  and  N_10 
ROOT
HETATM    1  N   UNL     1      -4.451   4.082 -31.544  1.00  0.00    -0.307 N 
HETATM    2  C   UNL     1      -3.094   4.285 -31.474  1.00  0.00     0.323 C 
HETATM    3  N   UNL     1      -2.701   5.506 -30.937  1.00  0.00    -0.328 N 
HETATM    4  C   UNL     1      -1.276   5.842 -31.081  1.00  0.00     0.185 C 
HETATM    5  C   UNL     1      -0.861   6.750 -29.980  1.00  0.00     0.035 A 
HETATM    6  C   UNL     1      -1.676   7.363 -29.054  1.00  0.00    -0.020 A 
HETATM    7  C   UNL     1      -3.143   7.135 -29.057  1.00  0.00     0.061 C 
HETATM    8  C   UNL     1      -3.593   6.572 -30.422  1.00  0.00     0.132 C 
HETATM    9  N   UNL     1       0.431   7.110 -29.715  1.00  0.00    -0.357 N 
HETATM   10  H   UNL     1       1.247   6.800 -30.225  1.00  0.00     0.166 HD
HETATM   11  C   UNL     1       0.468   7.949 -28.622  1.00  0.00     0.043 A 
HETATM   12  C   UNL     1      -0.849   8.126 -28.187  1.00  0.00    -0.001 A 
HETATM   13  C   UNL     1       1.559   8.551 -27.986  1.00  0.00     0.030 A 
HETATM   14  C   UNL     1       1.299   9.356 -26.873  1.00  0.00     0.002 A 
HETATM   15  C   UNL     1      -0.002   9.552 -26.418  1.00  0.00     0.001 A 
HETATM   16  C   UNL     1      -1.085   8.943 -27.065  1.00  0.00     0.014 A 
HETATM   17  O   UNL     1      -2.266   3.465 -31.867  1.00  0.00    -0.247 OA
HETATM   18  H   UNL     1      -5.024   4.904 -31.652  1.00  0.00     0.170 HD
ENDROOT
BRANCH   1  19
HETATM   19  C   UNL     1      -5.112   2.870 -31.870  1.00  0.00     0.058 A 
HETATM   20  C   UNL     1      -5.684   2.729 -33.144  1.00  0.00     0.063 A 
HETATM   21  C   UNL     1      -6.336   1.549 -33.511  1.00  0.00     0.063 A 
HETATM   22 CL   UNL     1      -5.582   4.005 -34.311  1.00  0.00    -0.082 Cl
HETATM   23  C   UNL     1      -6.435   0.490 -32.609  1.00  0.00     0.070 A 
HETATM   24  C   UNL     1      -5.903   0.633 -31.329  1.00  0.00     0.039 A 
HETATM   25  C   UNL     1      -5.248   1.816 -30.962  1.00  0.00     0.034 A 
BRANCH  23  26
HETATM   26  O   UNL     1      -7.080  -0.617 -33.088  1.00  0.00    -0.356 OA
HETATM   27  C   UNL     1      -6.696  -1.070 -34.381  1.00  0.00     0.210 C 
ENDBRANCH  23  26
ENDBRANCH   1  19
TORSDOF 2
ENDMDL
MODEL 9
REMARK VINA RESULT:      -7.7      2.847      9.302
REMARK  2 active torsions:
REMARK  status: ('A' for Active; 'I' for Inactive)
REMARK    1  A    between atoms: O_2  and  C_3 
REMARK    2  A    between atoms: C_7  and  N_8 
REMARK       I    between atoms: N_8  and  C_9 
REMARK       I    between atoms: C_9  and  N_10 
ROOT
HETATM    1  N   UNL     1      -4.606   0.903 -32.650  1.00  0.00    -0.307 N 
HETATM    2  C   UNL     1      -5.245   1.881 -31.928  1.00  0.00     0.323 C 
HETATM    3  N   UNL     1      -4.442   2.938 -31.513  1.00  0.00    -0.328 N 
HETATM    4  C   UNL     1      -5.045   3.861 -30.539  1.00  0.00     0.185 C 
HETATM    5  C   UNL     1      -4.426   5.204 -30.672  1.00  0.00     0.035 A 
HETATM    6  C   UNL     1      -3.329   5.545 -31.433  1.00  0.00    -0.020 A 
HETATM    7  C   UNL     1      -2.635   4.534 -32.269  1.00  0.00     0.061 C 
HETATM    8  C   UNL     1      -2.996   3.110 -31.794  1.00  0.00     0.132 C 
HETATM    9  N   UNL     1      -4.876   6.332 -30.044  1.00  0.00    -0.357 N 
HETATM   10  H   UNL     1      -5.677   6.387 -29.430  1.00  0.00     0.166 HD
HETATM   11  C   UNL     1      -4.086   7.408 -30.392  1.00  0.00     0.043 A 
HETATM   12  C   UNL     1      -3.102   6.938 -31.266  1.00  0.00    -0.001 A 
HETATM   13  C   UNL     1      -4.176   8.751 -30.010  1.00  0.00     0.030 A 
HETATM   14  C   UNL     1      -3.232   9.639 -30.535  1.00  0.00     0.002 A 
HETATM   15  C   UNL     1      -2.240   9.200 -31.406  1.00  0.00     0.001 A 
HETATM   16  C   UNL     1      -2.163   7.852 -31.781  1.00  0.00     0.014 A 
HETATM   17  O   UNL     1      -6.441   1.840 -31.644  1.00  0.00    -0.247 OA
HETATM   18  H   UNL     1      -3.627   0.762 -32.448  1.00  0.00     0.170 HD
ENDROOT
BRANCH   1  19
HETATM   19  C   UNL     1      -5.214  -0.175 -33.343  1.00  0.00     0.058 A 
HETATM   20  C   UNL     1      -4.689  -1.468 -33.186  1.00  0.00     0.063 A 
HETATM   21  C   UNL     1      -5.263  -2.559 -33.843  1.00  0.00     0.063 A 
HETATM   22 CL   UNL     1      -3.325  -1.755 -32.157  1.00  0.00    -0.082 Cl
HETATM   23  C   UNL     1      -6.368  -2.379 -34.675  1.00  0.00     0.070 A 
HETATM   24  C   UNL     1      -6.874  -1.095 -34.866  1.00  0.00     0.039 A 
HETATM   25  C   UNL     1      -6.299  -0.001 -34.206  1.00  0.00     0.034 A 
BRANCH  23  26
HETATM   26  O   UNL     1      -6.851  -3.523 -35.248  1.00  0.00    -0.356 OA
HETATM   27  C   UNL     1      -6.018  -4.675 -35.173  1.00  0.00     0.210 C 
ENDBRANCH  23  26
ENDBRANCH   1  19
TORSDOF 2
ENDMDL
MODEL 10
REMARK VINA RESULT:      -7.7      5.986     11.327
REMARK  2 active torsions:
REMARK  status: ('A' for Active; 'I' for Inactive)
REMARK    1  A    between atoms: O_2  and  C_3 
REMARK    2  A    between atoms: C_7  and  N_8 
REMARK       I    between atoms: N_8  and  C_9 
REMARK       I    between atoms: C_9  and  N_10 
ROOT
HETATM    1  N   UNL     1      -1.442   6.537 -29.361  1.00  0.00    -0.307 N 
HETATM    2  C   UNL     1      -1.689   7.550 -28.468  1.00  0.00     0.323 C 
HETATM    3  N   UNL     1      -0.848   7.588 -27.361  1.00  0.00    -0.328 N 
HETATM    4  C   UNL     1      -1.248   8.503 -26.280  1.00  0.00     0.185 C 
HETATM    5  C   UNL     1      -0.047   8.942 -25.525  1.00  0.00     0.035 A 
HETATM    6  C   UNL     1       1.237   8.459 -25.648  1.00  0.00    -0.020 A 
HETATM    7  C   UNL     1       1.564   7.399 -26.635  1.00  0.00     0.061 C 
HETATM    8  C   UNL     1       0.279   6.668 -27.077  1.00  0.00     0.132 C 
HETATM    9  N   UNL     1      -0.043   9.927 -24.577  1.00  0.00    -0.357 N 
HETATM   10  H   UNL     1      -0.844  10.471 -24.286  1.00  0.00     0.166 HD
HETATM   11  C   UNL     1       1.234  10.095 -24.082  1.00  0.00     0.043 A 
HETATM   12  C   UNL     1       2.060   9.179 -24.741  1.00  0.00    -0.001 A 
HETATM   13  C   UNL     1       1.715  10.987 -23.117  1.00  0.00     0.030 A 
HETATM   14  C   UNL     1       3.079  10.943 -22.816  1.00  0.00     0.002 A 
HETATM   15  C   UNL     1       3.927  10.041 -23.454  1.00  0.00     0.001 A 
HETATM   16  C   UNL     1       3.431   9.154 -24.419  1.00  0.00     0.014 A 
HETATM   17  O   UNL     1      -2.594   8.371 -28.609  1.00  0.00    -0.247 OA
HETATM   18  H   UNL     1      -1.046   5.690 -28.983  1.00  0.00     0.170 HD
ENDROOT
BRANCH   1  19
HETATM   19  C   UNL     1      -2.018   6.381 -30.647  1.00  0.00     0.058 A 
HETATM   20  C   UNL     1      -1.207   6.549 -31.782  1.00  0.00     0.063 A 
HETATM   21  C   UNL     1      -1.732   6.396 -33.068  1.00  0.00     0.063 A 
HETATM   22 CL   UNL     1       0.474   6.935 -31.623  1.00  0.00    -0.082 Cl
HETATM   23  C   UNL     1      -3.078   6.077 -33.246  1.00  0.00     0.070 A 
HETATM   24  C   UNL     1      -3.899   5.943 -32.128  1.00  0.00     0.039 A 
HETATM   25  C   UNL     1      -3.373   6.097 -30.839  1.00  0.00     0.034 A 
BRANCH  23  26
HETATM   26  O   UNL     1      -3.469   5.936 -34.548  1.00  0.00    -0.356 OA
HETATM   27  C   UNL     1      -4.472   4.961 -34.811  1.00  0.00     0.210 C 
ENDBRANCH  23  26
ENDBRANCH   1  19
TORSDOF 2
ENDMDL
