MODEL 1
REMARK VINA RESULT:      -8.3      0.000      0.000
REMARK  9 active torsions:
REMARK  status: ('A' for Active; 'I' for Inactive)
REMARK    1  A    between atoms: C_6  and  C_7 
REMARK       I    between atoms: C_7  and  N_8 
REMARK    2  A    between atoms: N_8  and  C_9 
REMARK    3  A    between atoms: C_9  and  C_10 
REMARK    4  A    between atoms: N_15  and  C_17 
REMARK    5  A    between atoms: C_17  and  C_18 
REMARK    6  A    between atoms: C_21  and  C_22 
REMARK    7  A    between atoms: C_22  and  C_23 
REMARK    8  A    between atoms: C_23  and  C_24 
REMARK    9  A    between atoms: C_24  and  O_25 
ROOT
HETATM    1  C   UNL     1      -5.360   1.046 -30.307  1.00  0.00     0.140 C 
HETATM    2  O   UNL     1      -6.530   0.584 -31.014  1.00  0.00    -0.373 OA
HETATM    3  C   UNL     1      -6.935   1.570 -31.984  1.00  0.00     0.064 C 
HETATM    4  C   UNL     1      -8.365   1.989 -31.620  1.00  0.00     0.066 C 
HETATM    5  C   UNL     1      -9.322   0.807 -31.721  1.00  0.00     0.238 C 
HETATM    6  N   UNL     1      -9.277   0.186 -33.098  1.00  0.00    -0.067 N 
HETATM    7  H   UNL     1      -9.817  -0.682 -33.012  1.00  0.00     0.280 HD
HETATM    8  C   UNL     1      -7.873  -0.249 -33.456  1.00  0.00     0.238 C 
HETATM    9  C   UNL     1      -6.914   0.930 -33.375  1.00  0.00     0.066 C 
HETATM   10  C   UNL     1      -5.942   2.728 -31.873  1.00  0.00     0.041 C 
HETATM   11  C   UNL     1      -5.364   2.555 -30.487  1.00  0.00     0.036 C 
ENDROOT
BRANCH   1  12
HETATM   12  C   UNL     1      -4.095   0.373 -30.875  1.00  0.00     0.155 C 
BRANCH  12  13
HETATM   13  N   UNL     1      -4.407  -0.830 -31.627  1.00  0.00    -0.353 N 
HETATM   14  C   UNL     1      -3.867  -1.099 -32.866  1.00  0.00     0.270 C 
HETATM   15  O   UNL     1      -3.039  -0.360 -33.393  1.00  0.00    -0.266 OA
HETATM   16  H   UNL     1      -5.066  -1.484 -31.229  1.00  0.00     0.162 HD
BRANCH  14  17
HETATM   17  C   UNL     1      -4.353  -2.308 -33.492  1.00  0.00     0.122 A 
HETATM   18  N   UNL     1      -3.879  -3.570 -33.216  1.00  0.00    -0.269 N 
HETATM   19  N   UNL     1      -4.439  -4.538 -33.963  1.00  0.00    -0.177 NA
HETATM   20  C   UNL     1      -2.892  -3.945 -32.229  1.00  0.00     0.180 C 
HETATM   21  C   UNL     1      -5.338  -3.898 -34.714  1.00  0.00     0.053 A 
HETATM   22  C   UNL     1      -6.189  -4.641 -35.675  1.00  0.00     0.072 C 
HETATM   23  C   UNL     1      -5.323  -2.509 -34.462  1.00  0.00     0.065 A 
ENDBRANCH  14  17
ENDBRANCH  12  13
ENDBRANCH   1  12
BRANCH   6  24
HETATM   24  C   UNL     1      -9.964   0.963 -34.198  1.00  0.00     0.273 C 
BRANCH  24  25
HETATM   25  C   UNL     1     -11.368   1.376 -33.848  1.00  0.00    -0.033 A 
HETATM   26  C   UNL     1     -11.651   2.710 -33.510  1.00  0.00     0.010 A 
HETATM   27  C   UNL     1     -12.940   3.085 -33.126  1.00  0.00     0.021 A 
HETATM   28  C   UNL     1     -13.958   2.134 -33.079  1.00  0.00     0.017 A 
HETATM   29  C   UNL     1     -13.693   0.810 -33.431  1.00  0.00     0.021 A 
HETATM   30  C   UNL     1     -12.405   0.431 -33.815  1.00  0.00     0.010 A 
BRANCH  28  31
HETATM   31  C   UNL     1     -15.270   2.511 -32.660  1.00  0.00    -0.064 C 
BRANCH  31  32
HETATM   32  C   UNL     1     -16.461   2.884 -32.283  1.00  0.00    -0.064 C 
BRANCH  32  33
HETATM   33  C   UNL     1     -17.849   3.318 -31.844  1.00  0.00     0.114 C 
HETATM   34  C   UNL     1     -17.811   4.749 -31.317  1.00  0.00     0.060 C 
HETATM   35  C   UNL     1     -18.830   3.183 -33.003  1.00  0.00     0.060 C 
BRANCH  33  36
HETATM   36  O   UNL     1     -18.279   2.452 -30.798  1.00  0.00    -0.378 OA
HETATM   37  H   UNL     1     -17.923   2.806 -29.966  1.00  0.00     0.211 HD
ENDBRANCH  33  36
ENDBRANCH  32  33
ENDBRANCH  31  32
ENDBRANCH  28  31
ENDBRANCH  24  25
ENDBRANCH   6  24
TORSDOF 9
ENDMDL
MODEL 2
REMARK VINA RESULT:      -8.2      8.262     13.764
REMARK  9 active torsions:
REMARK  status: ('A' for Active; 'I' for Inactive)
REMARK    1  A    between atoms: C_6  and  C_7 
REMARK       I    between atoms: C_7  and  N_8 
REMARK    2  A    between atoms: N_8  and  C_9 
REMARK    3  A    between atoms: C_9  and  C_10 
REMARK    4  A    between atoms: N_15  and  C_17 
REMARK    5  A    between atoms: C_17  and  C_18 
REMARK    6  A    between atoms: C_21  and  C_22 
REMARK    7  A    between atoms: C_22  and  C_23 
REMARK    8  A    between atoms: C_23  and  C_24 
REMARK    9  A    between atoms: C_24  and  O_25 
ROOT
HETATM    1  C   UNL     1      -2.427   5.152 -33.384  1.00  0.00     0.140 C 
HETATM    2  O   UNL     1      -2.265   5.637 -32.035  1.00  0.00    -0.373 OA
HETATM    3  C   UNL     1      -1.756   6.986 -32.059  1.00  0.00     0.064 C 
HETATM    4  C   UNL     1      -0.419   6.970 -31.309  1.00  0.00     0.066 C 
HETATM    5  C   UNL     1      -0.617   6.567 -29.852  1.00  0.00     0.238 C 
HETATM    6  N   UNL     1      -1.609   7.477 -29.166  1.00  0.00    -0.067 N 
HETATM    7  H   UNL     1      -1.794   7.029 -28.260  1.00  0.00     0.280 HD
HETATM    8  C   UNL     1      -2.938   7.482 -29.888  1.00  0.00     0.238 C 
HETATM    9  C   UNL     1      -2.751   7.901 -31.339  1.00  0.00     0.066 C 
HETATM   10  C   UNL     1      -1.593   7.366 -33.532  1.00  0.00     0.041 C 
HETATM   11  C   UNL     1      -1.515   6.026 -34.227  1.00  0.00     0.036 C 
ENDROOT
BRANCH   1  12
HETATM   12  C   UNL     1      -3.907   5.238 -33.807  1.00  0.00     0.155 C 
BRANCH  12  13
HETATM   13  N   UNL     1      -4.599   3.973 -33.631  1.00  0.00    -0.353 N 
HETATM   14  C   UNL     1      -5.950   3.821 -33.860  1.00  0.00     0.270 C 
HETATM   15  O   UNL     1      -6.649   4.739 -34.283  1.00  0.00    -0.266 OA
HETATM   16  H   UNL     1      -4.066   3.179 -33.307  1.00  0.00     0.162 HD
BRANCH  14  17
HETATM   17  C   UNL     1      -6.474   2.508 -33.561  1.00  0.00     0.122 A 
HETATM   18  N   UNL     1      -6.930   2.118 -32.323  1.00  0.00    -0.269 N 
HETATM   19  N   UNL     1      -7.317   0.831 -32.265  1.00  0.00    -0.177 NA
HETATM   20  C   UNL     1      -7.050   2.927 -31.131  1.00  0.00     0.180 C 
HETATM   21  C   UNL     1      -7.154   0.380 -33.511  1.00  0.00     0.053 A 
HETATM   22  C   UNL     1      -7.496  -1.020 -33.861  1.00  0.00     0.072 C 
HETATM   23  C   UNL     1      -6.630   1.382 -34.356  1.00  0.00     0.065 A 
ENDBRANCH  14  17
ENDBRANCH  12  13
ENDBRANCH   1  12
BRANCH   6  24
HETATM   24  C   UNL     1      -1.109   8.860 -28.817  1.00  0.00     0.273 C 
BRANCH  24  25
HETATM   25  C   UNL     1      -0.154   8.873 -27.654  1.00  0.00    -0.033 A 
HETATM   26  C   UNL     1       1.216   8.641 -27.859  1.00  0.00     0.010 A 
HETATM   27  C   UNL     1       2.096   8.591 -26.776  1.00  0.00     0.021 A 
HETATM   28  C   UNL     1       1.618   8.778 -25.480  1.00  0.00     0.017 A 
HETATM   29  C   UNL     1       0.262   9.028 -25.266  1.00  0.00     0.021 A 
HETATM   30  C   UNL     1      -0.622   9.077 -26.347  1.00  0.00     0.010 A 
BRANCH  28  31
HETATM   31  C   UNL     1       2.512   8.700 -24.370  1.00  0.00    -0.064 C 
BRANCH  31  32
HETATM   32  C   UNL     1       3.351   8.623 -23.376  1.00  0.00    -0.064 C 
BRANCH  32  33
HETATM   33  C   UNL     1       4.330   8.532 -22.216  1.00  0.00     0.114 C 
HETATM   34  C   UNL     1       5.564   7.737 -22.629  1.00  0.00     0.060 C 
HETATM   35  C   UNL     1       4.708   9.931 -21.742  1.00  0.00     0.060 C 
BRANCH  33  36
HETATM   36  O   UNL     1       3.685   7.859 -21.139  1.00  0.00    -0.378 OA
HETATM   37  H   UNL     1       4.376   7.595 -20.509  1.00  0.00     0.211 HD
ENDBRANCH  33  36
ENDBRANCH  32  33
ENDBRANCH  31  32
ENDBRANCH  28  31
ENDBRANCH  24  25
ENDBRANCH   6  24
TORSDOF 9
ENDMDL
MODEL 3
REMARK VINA RESULT:      -8.0      5.755      8.607
REMARK  9 active torsions:
REMARK  status: ('A' for Active; 'I' for Inactive)
REMARK    1  A    between atoms: C_6  and  C_7 
REMARK       I    between atoms: C_7  and  N_8 
REMARK    2  A    between atoms: N_8  and  C_9 
REMARK    3  A    between atoms: C_9  and  C_10 
REMARK    4  A    between atoms: N_15  and  C_17 
REMARK    5  A    between atoms: C_17  and  C_18 
REMARK    6  A    between atoms: C_21  and  C_22 
REMARK    7  A    between atoms: C_22  and  C_23 
REMARK    8  A    between atoms: C_23  and  C_24 
REMARK    9  A    between atoms: C_24  and  O_25 
ROOT
HETATM    1  C   UNL     1      -1.911   6.844 -32.596  1.00  0.00     0.140 C 
HETATM    2  O   UNL     1      -2.815   5.796 -32.192  1.00  0.00    -0.373 OA
HETATM    3  C   UNL     1      -2.957   4.835 -33.256  1.00  0.00     0.064 C 
HETATM    4  C   UNL     1      -4.443   4.807 -33.634  1.00  0.00     0.066 C 
HETATM    5  C   UNL     1      -5.295   4.338 -32.461  1.00  0.00     0.238 C 
HETATM    6  N   UNL     1      -4.839   2.985 -31.964  1.00  0.00    -0.067 N 
HETATM    7  H   UNL     1      -5.355   2.840 -31.088  1.00  0.00     0.280 HD
HETATM    8  C   UNL     1      -3.379   3.010 -31.569  1.00  0.00     0.238 C 
HETATM    9  C   UNL     1      -2.520   3.461 -32.742  1.00  0.00     0.066 C 
HETATM   10  C   UNL     1      -2.072   5.322 -34.406  1.00  0.00     0.041 C 
HETATM   11  C   UNL     1      -1.909   6.796 -34.115  1.00  0.00     0.036 C 
ENDROOT
BRANCH   1  12
HETATM   12  C   UNL     1      -0.516   6.610 -31.982  1.00  0.00     0.155 C 
BRANCH  12  13
HETATM   13  N   UNL     1      -0.332   7.351 -30.746  1.00  0.00    -0.353 N 
HETATM   14  C   UNL     1       0.169   6.778 -29.597  1.00  0.00     0.270 C 
HETATM   15  O   UNL     1       0.547   5.609 -29.561  1.00  0.00    -0.266 OA
HETATM   16  H   UNL     1      -0.606   8.323 -30.728  1.00  0.00     0.162 HD
BRANCH  14  17
HETATM   17  C   UNL     1       0.210   7.652 -28.448  1.00  0.00     0.122 A 
HETATM   18  N   UNL     1      -0.862   7.898 -27.621  1.00  0.00    -0.269 N 
HETATM   19  N   UNL     1      -0.607   8.793 -26.649  1.00  0.00    -0.177 NA
HETATM   20  C   UNL     1      -2.176   7.300 -27.679  1.00  0.00     0.180 C 
HETATM   21  C   UNL     1       0.680   9.104 -26.815  1.00  0.00     0.053 A 
HETATM   22  C   UNL     1       1.351  10.066 -25.908  1.00  0.00     0.072 C 
HETATM   23  C   UNL     1       1.235   8.424 -27.922  1.00  0.00     0.065 A 
ENDBRANCH  14  17
ENDBRANCH  12  13
ENDBRANCH   1  12
BRANCH   6  24
HETATM   24  C   UNL     1      -5.208   1.802 -32.830  1.00  0.00     0.273 C 
BRANCH  24  25
HETATM   25  C   UNL     1      -6.693   1.624 -32.996  1.00  0.00    -0.033 A 
HETATM   26  C   UNL     1      -7.248   1.454 -34.275  1.00  0.00     0.010 A 
HETATM   27  C   UNL     1      -8.631   1.349 -34.439  1.00  0.00     0.021 A 
HETATM   28  C   UNL     1      -9.471   1.410 -33.328  1.00  0.00     0.017 A 
HETATM   29  C   UNL     1      -8.929   1.561 -32.051  1.00  0.00     0.021 A 
HETATM   30  C   UNL     1      -7.546   1.666 -31.883  1.00  0.00     0.010 A 
BRANCH  28  31
HETATM   31  C   UNL     1     -10.886   1.331 -33.497  1.00  0.00    -0.064 C 
BRANCH  31  32
HETATM   32  C   UNL     1     -12.182   1.276 -33.627  1.00  0.00    -0.064 C 
BRANCH  32  33
HETATM   33  C   UNL     1     -13.693   1.212 -33.778  1.00  0.00     0.114 C 
HETATM   34  C   UNL     1     -14.176  -0.229 -33.645  1.00  0.00     0.060 C 
HETATM   35  C   UNL     1     -14.359   2.115 -32.747  1.00  0.00     0.060 C 
BRANCH  33  36
HETATM   36  O   UNL     1     -14.033   1.695 -35.074  1.00  0.00    -0.378 OA
HETATM   37  H   UNL     1     -14.996   1.607 -35.172  1.00  0.00     0.211 HD
ENDBRANCH  33  36
ENDBRANCH  32  33
ENDBRANCH  31  32
ENDBRANCH  28  31
ENDBRANCH  24  25
ENDBRANCH   6  24
TORSDOF 9
ENDMDL
MODEL 4
REMARK VINA RESULT:      -7.9      5.661     10.652
REMARK  9 active torsions:
REMARK  status: ('A' for Active; 'I' for Inactive)
REMARK    1  A    between atoms: C_6  and  C_7 
REMARK       I    between atoms: C_7  and  N_8 
REMARK    2  A    between atoms: N_8  and  C_9 
REMARK    3  A    between atoms: C_9  and  C_10 
REMARK    4  A    between atoms: N_15  and  C_17 
REMARK    5  A    between atoms: C_17  and  C_18 
REMARK    6  A    between atoms: C_21  and  C_22 
REMARK    7  A    between atoms: C_22  and  C_23 
REMARK    8  A    between atoms: C_23  and  C_24 
REMARK    9  A    between atoms: C_24  and  O_25 
ROOT
HETATM    1  C   UNL     1      -7.172   2.392 -31.241  1.00  0.00     0.140 C 
HETATM    2  O   UNL     1      -6.621   3.673 -31.612  1.00  0.00    -0.373 OA
HETATM    3  C   UNL     1      -5.206   3.544 -31.853  1.00  0.00     0.064 C 
HETATM    4  C   UNL     1      -4.500   4.480 -30.865  1.00  0.00     0.066 C 
HETATM    5  C   UNL     1      -4.890   5.932 -31.116  1.00  0.00     0.238 C 
HETATM    6  N   UNL     1      -4.598   6.335 -32.542  1.00  0.00    -0.067 N 
HETATM    7  H   UNL     1      -5.042   7.255 -32.652  1.00  0.00     0.280 HD
HETATM    8  C   UNL     1      -5.308   5.429 -33.524  1.00  0.00     0.238 C 
HETATM    9  C   UNL     1      -4.909   3.979 -33.291  1.00  0.00     0.066 C 
HETATM   10  C   UNL     1      -4.854   2.074 -31.616  1.00  0.00     0.041 C 
HETATM   11  C   UNL     1      -5.986   1.584 -30.744  1.00  0.00     0.036 C 
ENDROOT
BRANCH   1  12
HETATM   12  C   UNL     1      -7.879   1.747 -32.449  1.00  0.00     0.155 C 
BRANCH  12  13
HETATM   13  N   UNL     1      -7.290   0.467 -32.807  1.00  0.00    -0.353 N 
HETATM   14  C   UNL     1      -6.730   0.220 -34.042  1.00  0.00     0.270 C 
HETATM   15  O   UNL     1      -6.644   1.089 -34.907  1.00  0.00    -0.266 OA
HETATM   16  H   UNL     1      -7.314  -0.276 -32.124  1.00  0.00     0.162 HD
BRANCH  14  17
HETATM   17  C   UNL     1      -6.262  -1.132 -34.238  1.00  0.00     0.122 A 
HETATM   18  N   UNL     1      -4.984  -1.559 -33.959  1.00  0.00    -0.269 N 
HETATM   19  N   UNL     1      -4.758  -2.847 -34.276  1.00  0.00    -0.177 NA
HETATM   20  C   UNL     1      -3.910  -0.798 -33.363  1.00  0.00     0.180 C 
HETATM   21  C   UNL     1      -5.933  -3.287 -34.731  1.00  0.00     0.053 A 
HETATM   22  C   UNL     1      -6.096  -4.694 -35.172  1.00  0.00     0.072 C 
HETATM   23  C   UNL     1      -6.901  -2.260 -34.731  1.00  0.00     0.065 A 
ENDBRANCH  14  17
ENDBRANCH  12  13
ENDBRANCH   1  12
BRANCH   6  24
HETATM   24  C   UNL     1      -3.143   6.566 -32.881  1.00  0.00     0.273 C 
BRANCH  24  25
HETATM   25  C   UNL     1      -2.339   7.100 -31.726  1.00  0.00    -0.033 A 
HETATM   26  C   UNL     1      -1.337   6.313 -31.136  1.00  0.00     0.010 A 
HETATM   27  C   UNL     1      -0.630   6.780 -30.026  1.00  0.00     0.021 A 
HETATM   28  C   UNL     1      -0.916   8.038 -29.497  1.00  0.00     0.017 A 
HETATM   29  C   UNL     1      -1.898   8.836 -30.086  1.00  0.00     0.021 A 
HETATM   30  C   UNL     1      -2.606   8.372 -31.197  1.00  0.00     0.010 A 
BRANCH  28  31
HETATM   31  C   UNL     1      -0.214   8.506 -28.346  1.00  0.00    -0.064 C 
BRANCH  31  32
HETATM   32  C   UNL     1       0.419   8.961 -27.300  1.00  0.00    -0.064 C 
BRANCH  32  33
HETATM   33  C   UNL     1       1.156   9.492 -26.082  1.00  0.00     0.114 C 
HETATM   34  C   UNL     1       0.196   9.630 -24.904  1.00  0.00     0.060 C 
HETATM   35  C   UNL     1       2.323   8.574 -25.737  1.00  0.00     0.060 C 
BRANCH  33  36
HETATM   36  O   UNL     1       1.682  10.776 -26.402  1.00  0.00    -0.378 OA
HETATM   37  H   UNL     1       1.808  10.804 -27.365  1.00  0.00     0.211 HD
ENDBRANCH  33  36
ENDBRANCH  32  33
ENDBRANCH  31  32
ENDBRANCH  28  31
ENDBRANCH  24  25
ENDBRANCH   6  24
TORSDOF 9
ENDMDL
MODEL 5
REMARK VINA RESULT:      -7.7      5.034     11.536
REMARK  9 active torsions:
REMARK  status: ('A' for Active; 'I' for Inactive)
REMARK    1  A    between atoms: C_6  and  C_7 
REMARK       I    between atoms: C_7  and  N_8 
REMARK    2  A    between atoms: N_8  and  C_9 
REMARK    3  A    between atoms: C_9  and  C_10 
REMARK    4  A    between atoms: N_15  and  C_17 
REMARK    5  A    between atoms: C_17  and  C_18 
REMARK    6  A    between atoms: C_21  and  C_22 
REMARK    7  A    between atoms: C_22  and  C_23 
REMARK    8  A    between atoms: C_23  and  C_24 
REMARK    9  A    between atoms: C_24  and  O_25 
ROOT
HETATM    1  C   UNL     1      -8.301   0.460 -32.912  1.00  0.00     0.140 C 
HETATM    2  O   UNL     1      -7.495   1.605 -32.569  1.00  0.00    -0.373 OA
HETATM    3  C   UNL     1      -6.202   1.499 -33.198  1.00  0.00     0.064 C 
HETATM    4  C   UNL     1      -5.160   1.495 -32.074  1.00  0.00     0.066 C 
HETATM    5  C   UNL     1      -5.196   2.803 -31.292  1.00  0.00     0.238 C 
HETATM    6  N   UNL     1      -4.997   3.989 -32.207  1.00  0.00    -0.067 N 
HETATM    7  H   UNL     1      -5.202   4.808 -31.623  1.00  0.00     0.280 HD
HETATM    8  C   UNL     1      -6.035   4.012 -33.307  1.00  0.00     0.238 C 
HETATM    9  C   UNL     1      -5.993   2.716 -34.104  1.00  0.00     0.066 C 
HETATM   10  C   UNL     1      -6.209   0.191 -33.992  1.00  0.00     0.041 C 
HETATM   11  C   UNL     1      -7.306  -0.609 -33.329  1.00  0.00     0.036 C 
ENDROOT
BRANCH   1  12
HETATM   12  C   UNL     1      -9.299   0.826 -34.028  1.00  0.00     0.155 C 
BRANCH  12  13
HETATM   13  N   UNL     1     -10.608   1.171 -33.499  1.00  0.00    -0.353 N 
HETATM   14  C   UNL     1     -11.315   2.278 -33.915  1.00  0.00     0.270 C 
HETATM   15  O   UNL     1     -10.906   3.019 -34.807  1.00  0.00    -0.266 OA
HETATM   16  H   UNL     1     -11.002   0.582 -32.779  1.00  0.00     0.162 HD
BRANCH  14  17
HETATM   17  C   UNL     1     -12.564   2.499 -33.223  1.00  0.00     0.122 A 
HETATM   18  N   UNL     1     -12.723   3.367 -32.167  1.00  0.00    -0.269 N 
HETATM   19  N   UNL     1     -13.961   3.365 -31.641  1.00  0.00    -0.177 NA
HETATM   20  C   UNL     1     -11.737   4.262 -31.604  1.00  0.00     0.180 C 
HETATM   21  C   UNL     1     -14.643   2.507 -32.403  1.00  0.00     0.053 A 
HETATM   22  C   UNL     1     -16.079   2.240 -32.146  1.00  0.00     0.072 C 
HETATM   23  C   UNL     1     -13.819   1.938 -33.400  1.00  0.00     0.065 A 
ENDBRANCH  14  17
ENDBRANCH  12  13
ENDBRANCH   1  12
BRANCH   6  24
HETATM   24  C   UNL     1      -3.588   4.213 -32.705  1.00  0.00     0.273 C 
BRANCH  24  25
HETATM   25  C   UNL     1      -2.759   5.067 -31.785  1.00  0.00    -0.033 A 
HETATM   26  C   UNL     1      -1.360   4.947 -31.774  1.00  0.00     0.010 A 
HETATM   27  C   UNL     1      -0.591   5.694 -30.879  1.00  0.00     0.021 A 
HETATM   28  C   UNL     1      -1.211   6.571 -29.991  1.00  0.00     0.017 A 
HETATM   29  C   UNL     1      -2.600   6.712 -30.005  1.00  0.00     0.021 A 
HETATM   30  C   UNL     1      -3.372   5.966 -30.898  1.00  0.00     0.010 A 
BRANCH  28  31
HETATM   31  C   UNL     1      -0.429   7.314 -29.057  1.00  0.00    -0.064 C 
BRANCH  31  32
HETATM   32  C   UNL     1       0.308   7.974 -28.207  1.00  0.00    -0.064 C 
BRANCH  32  33
HETATM   33  C   UNL     1       1.168   8.743 -27.217  1.00  0.00     0.114 C 
HETATM   34  C   UNL     1       0.347   9.842 -26.550  1.00  0.00     0.060 C 
HETATM   35  C   UNL     1       1.754   7.788 -26.183  1.00  0.00     0.060 C 
BRANCH  33  36
HETATM   36  O   UNL     1       2.246   9.339 -27.930  1.00  0.00    -0.378 OA
HETATM   37  H   UNL     1       2.011  10.269 -28.085  1.00  0.00     0.211 HD
ENDBRANCH  33  36
ENDBRANCH  32  33
ENDBRANCH  31  32
ENDBRANCH  28  31
ENDBRANCH  24  25
ENDBRANCH   6  24
TORSDOF 9
ENDMDL
MODEL 6
REMARK VINA RESULT:      -7.7      7.462     12.794
REMARK  9 active torsions:
REMARK  status: ('A' for Active; 'I' for Inactive)
REMARK    1  A    between atoms: C_6  and  C_7 
REMARK       I    between atoms: C_7  and  N_8 
REMARK    2  A    between atoms: N_8  and  C_9 
REMARK    3  A    between atoms: C_9  and  C_10 
REMARK    4  A    between atoms: N_15  and  C_17 
REMARK    5  A    between atoms: C_17  and  C_18 
REMARK    6  A    between atoms: C_21  and  C_22 
REMARK    7  A    between atoms: C_22  and  C_23 
REMARK    8  A    between atoms: C_23  and  C_24 
REMARK    9  A    between atoms: C_24  and  O_25 
ROOT
HETATM    1  C   UNL     1      -4.345   4.223 -33.257  1.00  0.00     0.140 C 
HETATM    2  O   UNL     1      -3.303   4.847 -32.479  1.00  0.00    -0.373 OA
HETATM    3  C   UNL     1      -3.736   6.148 -32.036  1.00  0.00     0.064 C 
HETATM    4  C   UNL     1      -2.746   7.167 -32.611  1.00  0.00     0.066 C 
HETATM    5  C   UNL     1      -1.342   6.928 -32.068  1.00  0.00     0.238 C 
HETATM    6  N   UNL     1      -1.330   6.960 -30.557  1.00  0.00    -0.067 N 
HETATM    7  H   UNL     1      -0.394   6.629 -30.295  1.00  0.00     0.280 HD
HETATM    8  C   UNL     1      -2.290   5.942 -29.981  1.00  0.00     0.238 C 
HETATM    9  C   UNL     1      -3.698   6.185 -30.505  1.00  0.00     0.066 C 
HETATM   10  C   UNL     1      -5.154   6.344 -32.576  1.00  0.00     0.041 C 
HETATM   11  C   UNL     1      -5.222   5.370 -33.730  1.00  0.00     0.036 C 
ENDROOT
BRANCH   1  12
HETATM   12  C   UNL     1      -5.107   3.194 -32.398  1.00  0.00     0.155 C 
BRANCH  12  13
HETATM   13  N   UNL     1      -5.021   1.852 -32.950  1.00  0.00    -0.353 N 
HETATM   14  C   UNL     1      -5.549   0.748 -32.316  1.00  0.00     0.270 C 
HETATM   15  O   UNL     1      -6.178   0.836 -31.264  1.00  0.00    -0.266 OA
HETATM   16  H   UNL     1      -4.534   1.727 -33.825  1.00  0.00     0.162 HD
BRANCH  14  17
HETATM   17  C   UNL     1      -5.302  -0.511 -32.981  1.00  0.00     0.122 A 
HETATM   18  N   UNL     1      -4.148  -1.249 -32.842  1.00  0.00    -0.269 N 
HETATM   19  N   UNL     1      -4.116  -2.358 -33.602  1.00  0.00    -0.177 NA
HETATM   20  C   UNL     1      -3.022  -0.971 -31.979  1.00  0.00     0.180 C 
HETATM   21  C   UNL     1      -5.300  -2.371 -34.219  1.00  0.00     0.053 A 
HETATM   22  C   UNL     1      -5.657  -3.470 -35.148  1.00  0.00     0.072 C 
HETATM   23  C   UNL     1      -6.074  -1.243 -33.869  1.00  0.00     0.065 A 
ENDBRANCH  14  17
ENDBRANCH  12  13
ENDBRANCH   1  12
BRANCH   6  24
HETATM   24  C   UNL     1      -1.449   8.326 -29.922  1.00  0.00     0.273 C 
BRANCH  24  25
HETATM   25  C   UNL     1      -0.510   8.529 -28.764  1.00  0.00    -0.033 A 
HETATM   26  C   UNL     1       0.665   7.766 -28.663  1.00  0.00     0.010 A 
HETATM   27  C   UNL     1       1.509   7.908 -27.559  1.00  0.00     0.021 A 
HETATM   28  C   UNL     1       1.190   8.816 -26.550  1.00  0.00     0.017 A 
HETATM   29  C   UNL     1       0.035   9.593 -26.650  1.00  0.00     0.021 A 
HETATM   30  C   UNL     1      -0.811   9.453 -27.752  1.00  0.00     0.010 A 
BRANCH  28  31
HETATM   31  C   UNL     1       2.038   8.942 -25.409  1.00  0.00    -0.064 C 
BRANCH  31  32
HETATM   32  C   UNL     1       2.814   9.087 -24.371  1.00  0.00    -0.064 C 
BRANCH  32  33
HETATM   33  C   UNL     1       3.718   9.257 -23.161  1.00  0.00     0.114 C 
HETATM   34  C   UNL     1       3.582  10.667 -22.595  1.00  0.00     0.060 C 
HETATM   35  C   UNL     1       3.385   8.205 -22.109  1.00  0.00     0.060 C 
BRANCH  33  36
HETATM   36  O   UNL     1       5.065   9.055 -23.578  1.00  0.00    -0.378 OA
HETATM   37  H   UNL     1       5.589   9.796 -23.231  1.00  0.00     0.211 HD
ENDBRANCH  33  36
ENDBRANCH  32  33
ENDBRANCH  31  32
ENDBRANCH  28  31
ENDBRANCH  24  25
ENDBRANCH   6  24
TORSDOF 9
ENDMDL
MODEL 7
REMARK VINA RESULT:      -7.7      6.733     12.769
REMARK  9 active torsions:
REMARK  status: ('A' for Active; 'I' for Inactive)
REMARK    1  A    between atoms: C_6  and  C_7 
REMARK       I    between atoms: C_7  and  N_8 
REMARK    2  A    between atoms: N_8  and  C_9 
REMARK    3  A    between atoms: C_9  and  C_10 
REMARK    4  A    between atoms: N_15  and  C_17 
REMARK    5  A    between atoms: C_17  and  C_18 
REMARK    6  A    between atoms: C_21  and  C_22 
REMARK    7  A    between atoms: C_22  and  C_23 
REMARK    8  A    between atoms: C_23  and  C_24 
REMARK    9  A    between atoms: C_24  and  O_25 
ROOT
HETATM    1  C   UNL     1      -6.252   3.647 -32.816  1.00  0.00     0.140 C 
HETATM    2  O   UNL     1      -5.187   4.068 -31.940  1.00  0.00    -0.373 OA
HETATM    3  C   UNL     1      -4.306   4.969 -32.639  1.00  0.00     0.064 C 
HETATM    4  C   UNL     1      -2.914   4.326 -32.630  1.00  0.00     0.066 C 
HETATM    5  C   UNL     1      -2.394   4.173 -31.206  1.00  0.00     0.238 C 
HETATM    6  N   UNL     1      -2.379   5.500 -30.485  1.00  0.00    -0.067 N 
HETATM    7  H   UNL     1      -2.178   5.266 -29.506  1.00  0.00     0.280 HD
HETATM    8  C   UNL     1      -3.754   6.132 -30.472  1.00  0.00     0.238 C 
HETATM    9  C   UNL     1      -4.272   6.305 -31.892  1.00  0.00     0.066 C 
HETATM   10  C   UNL     1      -4.869   5.120 -34.054  1.00  0.00     0.041 C 
HETATM   11  C   UNL     1      -5.723   3.884 -34.220  1.00  0.00     0.036 C 
ENDROOT
BRANCH   1  12
HETATM   12  C   UNL     1      -7.537   4.443 -32.512  1.00  0.00     0.155 C 
BRANCH  12  13
HETATM   13  N   UNL     1      -8.730   3.747 -32.963  1.00  0.00    -0.353 N 
HETATM   14  C   UNL     1      -9.539   3.021 -32.115  1.00  0.00     0.270 C 
HETATM   15  O   UNL     1      -9.331   2.961 -30.905  1.00  0.00    -0.266 OA
HETATM   16  H   UNL     1      -8.960   3.782 -33.946  1.00  0.00     0.162 HD
BRANCH  14  17
HETATM   17  C   UNL     1     -10.637   2.338 -32.758  1.00  0.00     0.122 A 
HETATM   18  N   UNL     1     -10.638   1.000 -33.081  1.00  0.00    -0.269 N 
HETATM   19  N   UNL     1     -11.746   0.596 -33.728  1.00  0.00    -0.177 NA
HETATM   20  C   UNL     1      -9.615   0.022 -32.789  1.00  0.00     0.180 C 
HETATM   21  C   UNL     1     -12.512   1.687 -33.786  1.00  0.00     0.053 A 
HETATM   22  C   UNL     1     -13.851   1.640 -34.422  1.00  0.00     0.072 C 
HETATM   23  C   UNL     1     -11.868   2.799 -33.200  1.00  0.00     0.065 A 
ENDBRANCH  14  17
ENDBRANCH  12  13
ENDBRANCH   1  12
BRANCH   6  24
HETATM   24  C   UNL     1      -1.281   6.459 -30.886  1.00  0.00     0.273 C 
BRANCH  24  25
HETATM   25  C   UNL     1      -0.513   7.008 -29.715  1.00  0.00    -0.033 A 
HETATM   26  C   UNL     1       0.399   6.196 -29.022  1.00  0.00     0.010 A 
HETATM   27  C   UNL     1       1.069   6.682 -27.897  1.00  0.00     0.021 A 
HETATM   28  C   UNL     1       0.839   7.984 -27.458  1.00  0.00     0.017 A 
HETATM   29  C   UNL     1      -0.051   8.807 -28.150  1.00  0.00     0.021 A 
HETATM   30  C   UNL     1      -0.724   8.324 -29.274  1.00  0.00     0.010 A 
BRANCH  28  31
HETATM   31  C   UNL     1       1.503   8.474 -26.293  1.00  0.00    -0.064 C 
BRANCH  31  32
HETATM   32  C   UNL     1       2.090   8.944 -25.228  1.00  0.00    -0.064 C 
BRANCH  32  33
HETATM   33  C   UNL     1       2.774   9.493 -23.986  1.00  0.00     0.114 C 
HETATM   34  C   UNL     1       1.860  10.487 -23.277  1.00  0.00     0.060 C 
HETATM   35  C   UNL     1       3.169   8.349 -23.060  1.00  0.00     0.060 C 
BRANCH  33  36
HETATM   36  O   UNL     1       3.962  10.165 -24.391  1.00  0.00    -0.378 OA
HETATM   37  H   UNL     1       3.970  10.178 -25.363  1.00  0.00     0.211 HD
ENDBRANCH  33  36
ENDBRANCH  32  33
ENDBRANCH  31  32
ENDBRANCH  28  31
ENDBRANCH  24  25
ENDBRANCH   6  24
TORSDOF 9
ENDMDL
MODEL 8
REMARK VINA RESULT:      -7.5      7.011      9.882
REMARK  9 active torsions:
REMARK  status: ('A' for Active; 'I' for Inactive)
REMARK    1  A    between atoms: C_6  and  C_7 
REMARK       I    between atoms: C_7  and  N_8 
REMARK    2  A    between atoms: N_8  and  C_9 
REMARK    3  A    between atoms: C_9  and  C_10 
REMARK    4  A    between atoms: N_15  and  C_17 
REMARK    5  A    between atoms: C_17  and  C_18 
REMARK    6  A    between atoms: C_21  and  C_22 
REMARK    7  A    between atoms: C_22  and  C_23 
REMARK    8  A    between atoms: C_23  and  C_24 
REMARK    9  A    between atoms: C_24  and  O_25 
ROOT
HETATM    1  C   UNL     1      -0.743   7.017 -30.302  1.00  0.00     0.140 C 
HETATM    2  O   UNL     1      -2.027   6.579 -30.792  1.00  0.00    -0.373 OA
HETATM    3  C   UNL     1      -1.844   5.654 -31.881  1.00  0.00     0.064 C 
HETATM    4  C   UNL     1      -2.537   6.265 -33.105  1.00  0.00     0.066 C 
HETATM    5  C   UNL     1      -4.034   6.418 -32.864  1.00  0.00     0.238 C 
HETATM    6  N   UNL     1      -4.663   5.095 -32.494  1.00  0.00    -0.067 N 
HETATM    7  H   UNL     1      -5.617   5.332 -32.195  1.00  0.00     0.280 HD
HETATM    8  C   UNL     1      -3.999   4.495 -31.274  1.00  0.00     0.238 C 
HETATM    9  C   UNL     1      -2.506   4.322 -31.514  1.00  0.00     0.066 C 
HETATM   10  C   UNL     1      -0.334   5.504 -32.079  1.00  0.00     0.041 C 
HETATM   11  C   UNL     1       0.222   6.758 -31.445  1.00  0.00     0.036 C 
ENDROOT
BRANCH   1  12
HETATM   12  C   UNL     1      -0.375   6.252 -29.015  1.00  0.00     0.155 C 
BRANCH  12  13
HETATM   13  N   UNL     1       0.411   7.066 -28.102  1.00  0.00    -0.353 N 
HETATM   14  C   UNL     1      -0.072   7.510 -26.890  1.00  0.00     0.270 C 
HETATM   15  O   UNL     1      -1.187   7.198 -26.477  1.00  0.00    -0.266 OA
HETATM   16  H   UNL     1       1.344   7.331 -28.383  1.00  0.00     0.162 HD
BRANCH  14  17
HETATM   17  C   UNL     1       0.827   8.367 -26.154  1.00  0.00     0.122 A 
HETATM   18  N   UNL     1       0.651   9.722 -25.992  1.00  0.00    -0.269 N 
HETATM   19  N   UNL     1       1.647  10.325 -25.318  1.00  0.00    -0.177 NA
HETATM   20  C   UNL     1      -0.465  10.526 -26.439  1.00  0.00     0.180 C 
HETATM   21  C   UNL     1       2.473   9.331 -24.989  1.00  0.00     0.053 A 
HETATM   22  C   UNL     1       3.706   9.597 -24.208  1.00  0.00     0.072 C 
HETATM   23  C   UNL     1       2.012   8.093 -25.487  1.00  0.00     0.065 A 
ENDBRANCH  14  17
ENDBRANCH  12  13
ENDBRANCH   1  12
BRANCH   6  24
HETATM   24  C   UNL     1      -4.847   4.109 -33.625  1.00  0.00     0.273 C 
BRANCH  24  25
HETATM   25  C   UNL     1      -6.263   3.617 -33.762  1.00  0.00    -0.033 A 
HETATM   26  C   UNL     1      -7.335   4.524 -33.728  1.00  0.00     0.010 A 
HETATM   27  C   UNL     1      -8.652   4.066 -33.794  1.00  0.00     0.021 A 
HETATM   28  C   UNL     1      -8.912   2.701 -33.900  1.00  0.00     0.017 A 
HETATM   29  C   UNL     1      -7.854   1.792 -33.954  1.00  0.00     0.021 A 
HETATM   30  C   UNL     1      -6.535   2.246 -33.888  1.00  0.00     0.010 A 
BRANCH  28  31
HETATM   31  C   UNL     1     -10.258   2.230 -33.941  1.00  0.00    -0.064 C 
BRANCH  31  32
HETATM   32  C   UNL     1     -11.498   1.827 -33.967  1.00  0.00    -0.064 C 
BRANCH  32  33
HETATM   33  C   UNL     1     -12.943   1.357 -33.998  1.00  0.00     0.114 C 
HETATM   34  C   UNL     1     -13.019  -0.133 -33.680  1.00  0.00     0.060 C 
HETATM   35  C   UNL     1     -13.778   2.173 -33.019  1.00  0.00     0.060 C 
BRANCH  33  36
HETATM   36  O   UNL     1     -13.456   1.576 -35.308  1.00  0.00    -0.378 OA
HETATM   37  H   UNL     1     -14.425   1.534 -35.249  1.00  0.00     0.211 HD
ENDBRANCH  33  36
ENDBRANCH  32  33
ENDBRANCH  31  32
ENDBRANCH  28  31
ENDBRANCH  24  25
ENDBRANCH   6  24
TORSDOF 9
ENDMDL
MODEL 9
REMARK VINA RESULT:      -7.5      6.598     10.792
REMARK  9 active torsions:
REMARK  status: ('A' for Active; 'I' for Inactive)
REMARK    1  A    between atoms: C_6  and  C_7 
REMARK       I    between atoms: C_7  and  N_8 
REMARK    2  A    between atoms: N_8  and  C_9 
REMARK    3  A    between atoms: C_9  and  C_10 
REMARK    4  A    between atoms: N_15  and  C_17 
REMARK    5  A    between atoms: C_17  and  C_18 
REMARK    6  A    between atoms: C_21  and  C_22 
REMARK    7  A    between atoms: C_22  and  C_23 
REMARK    8  A    between atoms: C_23  and  C_24 
REMARK    9  A    between atoms: C_24  and  O_25 
ROOT
HETATM    1  C   UNL     1       0.159   9.130 -27.568  1.00  0.00     0.140 C 
HETATM    2  O   UNL     1      -0.447   8.545 -28.739  1.00  0.00    -0.373 OA
HETATM    3  C   UNL     1      -0.021   7.176 -28.878  1.00  0.00     0.064 C 
HETATM    4  C   UNL     1       0.688   7.066 -30.233  1.00  0.00     0.066 C 
HETATM    5  C   UNL     1      -0.269   7.378 -31.376  1.00  0.00     0.238 C 
HETATM    6  N   UNL     1      -1.484   6.481 -31.330  1.00  0.00    -0.067 N 
HETATM    7  H   UNL     1      -2.129   6.875 -32.024  1.00  0.00     0.280 HD
HETATM    8  C   UNL     1      -2.202   6.599 -30.003  1.00  0.00     0.238 C 
HETATM    9  C   UNL     1      -1.256   6.270 -28.857  1.00  0.00     0.066 C 
HETATM   10  C   UNL     1       0.917   6.889 -27.703  1.00  0.00     0.041 C 
HETATM   11  C   UNL     1       1.375   8.266 -27.283  1.00  0.00     0.036 C 
ENDROOT
BRANCH   1  12
HETATM   12  C   UNL     1      -0.851   9.156 -26.403  1.00  0.00     0.155 C 
BRANCH  12  13
HETATM   13  N   UNL     1      -2.182   8.752 -26.824  1.00  0.00    -0.353 N 
HETATM   14  C   UNL     1      -3.038   8.037 -26.016  1.00  0.00     0.270 C 
HETATM   15  O   UNL     1      -2.749   7.740 -24.859  1.00  0.00    -0.266 OA
HETATM   16  H   UNL     1      -2.478   8.992 -27.760  1.00  0.00     0.162 HD
BRANCH  14  17
HETATM   17  C   UNL     1      -4.289   7.664 -26.634  1.00  0.00     0.122 A 
HETATM   18  N   UNL     1      -5.378   8.498 -26.748  1.00  0.00    -0.269 N 
HETATM   19  N   UNL     1      -6.454   7.916 -27.307  1.00  0.00    -0.177 NA
HETATM   20  C   UNL     1      -5.469   9.887 -26.361  1.00  0.00     0.180 C 
HETATM   21  C   UNL     1      -6.044   6.683 -27.611  1.00  0.00     0.053 A 
HETATM   22  C   UNL     1      -6.958   5.721 -28.272  1.00  0.00     0.072 C 
HETATM   23  C   UNL     1      -4.706   6.474 -27.211  1.00  0.00     0.065 A 
ENDBRANCH  14  17
ENDBRANCH  12  13
ENDBRANCH   1  12
BRANCH   6  24
HETATM   24  C   UNL     1      -1.268   5.051 -31.772  1.00  0.00     0.273 C 
BRANCH  24  25
HETATM   25  C   UNL     1      -2.543   4.344 -32.145  1.00  0.00    -0.033 A 
HETATM   26  C   UNL     1      -2.943   3.191 -31.451  1.00  0.00     0.010 A 
HETATM   27  C   UNL     1      -4.093   2.497 -31.834  1.00  0.00     0.021 A 
HETATM   28  C   UNL     1      -4.855   2.950 -32.909  1.00  0.00     0.017 A 
HETATM   29  C   UNL     1      -4.477   4.105 -33.595  1.00  0.00     0.021 A 
HETATM   30  C   UNL     1      -3.327   4.802 -33.215  1.00  0.00     0.010 A 
BRANCH  28  31
HETATM   31  C   UNL     1      -6.015   2.226 -33.319  1.00  0.00    -0.064 C 
BRANCH  31  32
HETATM   32  C   UNL     1      -7.070   1.574 -33.722  1.00  0.00    -0.064 C 
BRANCH  32  33
HETATM   33  C   UNL     1      -8.299   0.814 -34.191  1.00  0.00     0.114 C 
HETATM   34  C   UNL     1      -7.921  -0.170 -35.294  1.00  0.00     0.060 C 
HETATM   35  C   UNL     1      -8.951   0.098 -33.014  1.00  0.00     0.060 C 
BRANCH  33  36
HETATM   36  O   UNL     1      -9.235   1.754 -34.711  1.00  0.00    -0.378 OA
HETATM   37  H   UNL     1     -10.120   1.364 -34.613  1.00  0.00     0.211 HD
ENDBRANCH  33  36
ENDBRANCH  32  33
ENDBRANCH  31  32
ENDBRANCH  28  31
ENDBRANCH  24  25
ENDBRANCH   6  24
TORSDOF 9
ENDMDL
MODEL 10
REMARK VINA RESULT:      -7.4      3.768      6.063
REMARK  9 active torsions:
REMARK  status: ('A' for Active; 'I' for Inactive)
REMARK    1  A    between atoms: C_6  and  C_7 
REMARK       I    between atoms: C_7  and  N_8 
REMARK    2  A    between atoms: N_8  and  C_9 
REMARK    3  A    between atoms: C_9  and  C_10 
REMARK    4  A    between atoms: N_15  and  C_17 
REMARK    5  A    between atoms: C_17  and  C_18 
REMARK    6  A    between atoms: C_21  and  C_22 
REMARK    7  A    between atoms: C_22  and  C_23 
REMARK    8  A    between atoms: C_23  and  C_24 
REMARK    9  A    between atoms: C_24  and  O_25 
ROOT
HETATM    1  C   UNL     1      -3.848   2.316 -32.548  1.00  0.00     0.140 C 
HETATM    2  O   UNL     1      -5.222   2.386 -32.983  1.00  0.00    -0.373 OA
HETATM    3  C   UNL     1      -5.877   1.126 -32.735  1.00  0.00     0.064 C 
HETATM    4  C   UNL     1      -6.364   0.604 -34.092  1.00  0.00     0.066 C 
HETATM    5  C   UNL     1      -7.385   1.553 -34.706  1.00  0.00     0.238 C 
HETATM    6  N   UNL     1      -8.548   1.782 -33.769  1.00  0.00    -0.067 N 
HETATM    7  H   UNL     1      -9.083   2.548 -34.196  1.00  0.00     0.280 HD
HETATM    8  C   UNL     1      -8.078   2.318 -32.434  1.00  0.00     0.238 C 
HETATM    9  C   UNL     1      -7.071   1.366 -31.806  1.00  0.00     0.066 C 
HETATM   10  C   UNL     1      -4.833   0.208 -32.097  1.00  0.00     0.041 C 
HETATM   11  C   UNL     1      -3.522   0.832 -32.516  1.00  0.00     0.036 C 
ENDROOT
BRANCH   1  12
HETATM   12  C   UNL     1      -3.688   3.000 -31.176  1.00  0.00     0.155 C 
BRANCH  12  13
HETATM   13  N   UNL     1      -3.483   4.433 -31.301  1.00  0.00    -0.353 N 
HETATM   14  C   UNL     1      -2.232   5.009 -31.350  1.00  0.00     0.270 C 
HETATM   15  O   UNL     1      -1.202   4.337 -31.347  1.00  0.00    -0.266 OA
HETATM   16  H   UNL     1      -4.297   5.030 -31.332  1.00  0.00     0.162 HD
BRANCH  14  17
HETATM   17  C   UNL     1      -2.228   6.453 -31.401  1.00  0.00     0.122 A 
HETATM   18  N   UNL     1      -1.908   7.189 -32.518  1.00  0.00    -0.269 N 
HETATM   19  N   UNL     1      -1.915   8.519 -32.315  1.00  0.00    -0.177 NA
HETATM   20  C   UNL     1      -1.599   6.696 -33.841  1.00  0.00     0.180 C 
HETATM   21  C   UNL     1      -2.296   8.658 -31.043  1.00  0.00     0.053 A 
HETATM   22  C   UNL     1      -2.443  10.004 -30.439  1.00  0.00     0.072 C 
HETATM   23  C   UNL     1      -2.501   7.403 -30.429  1.00  0.00     0.065 A 
ENDBRANCH  14  17
ENDBRANCH  12  13
ENDBRANCH   1  12
BRANCH   6  24
HETATM   24  C   UNL     1      -9.535   0.644 -33.647  1.00  0.00     0.273 C 
BRANCH  24  25
HETATM   25  C   UNL     1     -10.954   1.103 -33.445  1.00  0.00    -0.033 A 
HETATM   26  C   UNL     1     -11.219   2.407 -32.996  1.00  0.00     0.010 A 
HETATM   27  C   UNL     1     -12.530   2.818 -32.749  1.00  0.00     0.021 A 
HETATM   28  C   UNL     1     -13.588   1.934 -32.953  1.00  0.00     0.017 A 
HETATM   29  C   UNL     1     -13.338   0.641 -33.417  1.00  0.00     0.021 A 
HETATM   30  C   UNL     1     -12.027   0.227 -33.664  1.00  0.00     0.010 A 
BRANCH  28  31
HETATM   31  C   UNL     1     -14.927   2.344 -32.675  1.00  0.00    -0.064 C 
BRANCH  31  32
HETATM   32  C   UNL     1     -16.151   2.698 -32.398  1.00  0.00    -0.064 C 
BRANCH  32  33
HETATM   33  C   UNL     1     -17.577   3.112 -32.076  1.00  0.00     0.114 C 
HETATM   34  C   UNL     1     -17.596   4.512 -31.471  1.00  0.00     0.060 C 
HETATM   35  C   UNL     1     -18.437   3.043 -33.333  1.00  0.00     0.060 C 
BRANCH  33  36
HETATM   36  O   UNL     1     -18.106   2.191 -31.127  1.00  0.00    -0.378 OA
HETATM   37  H   UNL     1     -17.353   1.797 -30.657  1.00  0.00     0.211 HD
ENDBRANCH  33  36
ENDBRANCH  32  33
ENDBRANCH  31  32
ENDBRANCH  28  31
ENDBRANCH  24  25
ENDBRANCH   6  24
TORSDOF 9
ENDMDL
