MODEL 1
REMARK VINA RESULT:      -8.6      0.000      0.000
REMARK  5 active torsions:
REMARK  status: ('A' for Active; 'I' for Inactive)
REMARK    1  A    between atoms: C_5  and  N_6 
REMARK       I    between atoms: N_6  and  C_7 
REMARK    2  A    between atoms: C_7  and  C_8 
REMARK    3  A    between atoms: C_9  and  C_10 
REMARK    4  A    between atoms: C_13  and  O_14 
REMARK    5  A    between atoms: N_20  and  C_21 
ROOT
HETATM    1  C   UNL     1      -8.105   1.383 -33.045  1.00  0.00     0.060 C 
HETATM    2  C   UNL     1      -7.428   2.695 -33.239  1.00  0.00     0.158 C 
HETATM    3  N   UNL     1      -8.337   3.645 -33.828  1.00  0.00    -0.354 N 
HETATM    4  C   UNL     1      -9.699   3.553 -33.852  1.00  0.00     0.179 C 
HETATM    5  S   UNL     1     -10.484   4.932 -34.412  1.00  0.00    -0.040 SA
HETATM    6  N   UNL     1     -10.262   2.314 -33.465  1.00  0.00    -0.292 N 
HETATM    7  C   UNL     1      -9.439   1.210 -33.138  1.00  0.00     0.030 C 
HETATM    8  C   UNL     1     -10.087  -0.127 -32.836  1.00  0.00     0.070 C 
HETATM    9  H   UNL     1      -7.963   4.546 -34.102  1.00  0.00     0.163 HD
ENDROOT
BRANCH   1  10
HETATM   10  C   UNL     1      -7.195   0.214 -32.895  1.00  0.00     0.257 C 
HETATM   11  N   UNL     1      -6.776  -0.303 -34.097  1.00  0.00    -0.306 N 
HETATM   12  H   UNL     1      -7.064   0.134 -34.961  1.00  0.00     0.170 HD
HETATM   13  O   UNL     1      -6.919  -0.174 -31.768  1.00  0.00    -0.267 OA
BRANCH  11  14
HETATM   14  C   UNL     1      -6.025  -1.459 -34.222  1.00  0.00     0.160 A 
HETATM   15  N   UNL     1      -4.717  -1.573 -33.984  1.00  0.00    -0.110 NA
HETATM   16  O   UNL     1      -4.391  -2.894 -34.208  1.00  0.00    -0.216 OA
HETATM   17  C   UNL     1      -5.506  -3.577 -34.572  1.00  0.00     0.078 A 
HETATM   18  C   UNL     1      -5.343  -5.020 -34.831  1.00  0.00     0.079 C 
HETATM   19  C   UNL     1      -6.570  -2.710 -34.605  1.00  0.00     0.087 A 
ENDBRANCH  11  14
ENDBRANCH   1  10
BRANCH   2  20
HETATM   20  C   UNL     1      -6.859   3.273 -31.948  1.00  0.00    -0.031 A 
HETATM   21  C   UNL     1      -5.507   3.650 -31.880  1.00  0.00     0.012 A 
HETATM   22  C   UNL     1      -4.966   4.155 -30.694  1.00  0.00     0.037 A 
HETATM   23  C   UNL     1      -5.777   4.282 -29.572  1.00  0.00     0.065 A 
HETATM   24  C   UNL     1      -7.116   3.918 -29.615  1.00  0.00     0.037 A 
HETATM   25  C   UNL     1      -7.658   3.420 -30.800  1.00  0.00     0.012 A 
BRANCH  23  26
HETATM   26  O   UNL     1      -5.290   4.767 -28.395  1.00  0.00    -0.361 OA
HETATM   27  H   UNL     1      -4.327   4.868 -28.470  1.00  0.00     0.217 HD
ENDBRANCH  23  26
ENDBRANCH   2  20
BRANCH   6  28
HETATM   28  C   UNL     1     -11.688   2.161 -33.558  1.00  0.00     0.042 A 
HETATM   29  C   UNL     1     -12.524   2.692 -32.567  1.00  0.00     0.030 A 
HETATM   30  C   UNL     1     -13.908   2.534 -32.658  1.00  0.00     0.002 A 
HETATM   31  C   UNL     1     -14.463   1.841 -33.733  1.00  0.00     0.000 A 
HETATM   32  C   UNL     1     -13.637   1.308 -34.721  1.00  0.00     0.002 A 
HETATM   33  C   UNL     1     -12.252   1.467 -34.637  1.00  0.00     0.030 A 
ENDBRANCH   6  28
TORSDOF 5
ENDMDL
MODEL 2
REMARK VINA RESULT:      -8.5      2.554      6.332
REMARK  5 active torsions:
REMARK  status: ('A' for Active; 'I' for Inactive)
REMARK    1  A    between atoms: C_5  and  N_6 
REMARK       I    between atoms: N_6  and  C_7 
REMARK    2  A    between atoms: C_7  and  C_8 
REMARK    3  A    between atoms: C_9  and  C_10 
REMARK    4  A    between atoms: C_13  and  O_14 
REMARK    5  A    between atoms: N_20  and  C_21 
ROOT
HETATM    1  C   UNL     1      -5.654   1.745 -31.872  1.00  0.00     0.060 C 
HETATM    2  C   UNL     1      -6.989   1.992 -31.260  1.00  0.00     0.158 C 
HETATM    3  N   UNL     1      -7.013   3.279 -30.614  1.00  0.00    -0.354 N 
HETATM    4  C   UNL     1      -6.146   4.311 -30.833  1.00  0.00     0.179 C 
HETATM    5  S   UNL     1      -6.577   5.759 -30.092  1.00  0.00    -0.040 SA
HETATM    6  N   UNL     1      -4.989   4.021 -31.594  1.00  0.00    -0.292 N 
HETATM    7  C   UNL     1      -4.721   2.705 -32.041  1.00  0.00     0.030 C 
HETATM    8  C   UNL     1      -3.415   2.421 -32.757  1.00  0.00     0.070 C 
HETATM    9  H   UNL     1      -7.836   3.519 -30.074  1.00  0.00     0.163 HD
ENDROOT
BRANCH   1  10
HETATM   10  C   UNL     1      -5.336   0.318 -32.150  1.00  0.00     0.257 C 
HETATM   11  N   UNL     1      -5.535  -0.035 -33.464  1.00  0.00    -0.306 N 
HETATM   12  H   UNL     1      -5.833   0.661 -34.132  1.00  0.00     0.170 HD
HETATM   13  O   UNL     1      -4.953  -0.389 -31.228  1.00  0.00    -0.267 OA
BRANCH  11  14
HETATM   14  C   UNL     1      -5.424  -1.328 -33.943  1.00  0.00     0.160 A 
HETATM   15  N   UNL     1      -4.305  -2.054 -33.987  1.00  0.00    -0.110 NA
HETATM   16  O   UNL     1      -4.655  -3.282 -34.509  1.00  0.00    -0.216 OA
HETATM   17  C   UNL     1      -5.987  -3.297 -34.772  1.00  0.00     0.078 A 
HETATM   18  C   UNL     1      -6.539  -4.549 -35.320  1.00  0.00     0.079 C 
HETATM   19  C   UNL     1      -6.521  -2.077 -34.438  1.00  0.00     0.087 A 
ENDBRANCH  11  14
ENDBRANCH   1  10
BRANCH   2  20
HETATM   20  C   UNL     1      -8.133   1.908 -32.263  1.00  0.00    -0.031 A 
HETATM   21  C   UNL     1      -9.049   0.844 -32.201  1.00  0.00     0.012 A 
HETATM   22  C   UNL     1     -10.087   0.740 -33.132  1.00  0.00     0.037 A 
HETATM   23  C   UNL     1     -10.209   1.700 -34.131  1.00  0.00     0.065 A 
HETATM   24  C   UNL     1      -9.317   2.761 -34.212  1.00  0.00     0.037 A 
HETATM   25  C   UNL     1      -8.286   2.869 -33.279  1.00  0.00     0.012 A 
BRANCH  23  26
HETATM   26  O   UNL     1     -11.203   1.636 -35.060  1.00  0.00    -0.361 OA
HETATM   27  H   UNL     1     -10.825   1.337 -35.904  1.00  0.00     0.217 HD
ENDBRANCH  23  26
ENDBRANCH   2  20
BRANCH   6  28
HETATM   28  C   UNL     1      -4.018   5.065 -31.772  1.00  0.00     0.042 A 
HETATM   29  C   UNL     1      -4.031   5.856 -32.929  1.00  0.00     0.030 A 
HETATM   30  C   UNL     1      -3.081   6.863 -33.102  1.00  0.00     0.002 A 
HETATM   31  C   UNL     1      -2.111   7.083 -32.125  1.00  0.00     0.000 A 
HETATM   32  C   UNL     1      -2.089   6.299 -30.973  1.00  0.00     0.002 A 
HETATM   33  C   UNL     1      -3.041   5.292 -30.793  1.00  0.00     0.030 A 
ENDBRANCH   6  28
TORSDOF 5
ENDMDL
MODEL 3
REMARK VINA RESULT:      -8.3      2.483      6.888
REMARK  5 active torsions:
REMARK  status: ('A' for Active; 'I' for Inactive)
REMARK    1  A    between atoms: C_5  and  N_6 
REMARK       I    between atoms: N_6  and  C_7 
REMARK    2  A    between atoms: C_7  and  C_8 
REMARK    3  A    between atoms: C_9  and  C_10 
REMARK    4  A    between atoms: C_13  and  O_14 
REMARK    5  A    between atoms: N_20  and  C_21 
ROOT
HETATM    1  C   UNL     1      -8.361   2.136 -33.150  1.00  0.00     0.060 C 
HETATM    2  C   UNL     1      -7.367   1.913 -34.236  1.00  0.00     0.158 C 
HETATM    3  N   UNL     1      -6.338   2.920 -34.186  1.00  0.00    -0.354 N 
HETATM    4  C   UNL     1      -6.037   3.718 -33.120  1.00  0.00     0.179 C 
HETATM    5  S   UNL     1      -4.635   4.631 -33.300  1.00  0.00    -0.040 SA
HETATM    6  N   UNL     1      -6.956   3.717 -32.044  1.00  0.00    -0.292 N 
HETATM    7  C   UNL     1      -8.159   2.974 -32.113  1.00  0.00     0.030 C 
HETATM    8  C   UNL     1      -9.163   3.092 -30.984  1.00  0.00     0.070 C 
HETATM    9  H   UNL     1      -5.657   2.935 -34.937  1.00  0.00     0.163 HD
ENDROOT
BRANCH   1  10
HETATM   10  C   UNL     1      -9.685   1.489 -33.358  1.00  0.00     0.257 C 
HETATM   11  N   UNL     1     -10.574   2.282 -34.043  1.00  0.00    -0.306 N 
HETATM   12  H   UNL     1     -10.285   3.191 -34.376  1.00  0.00     0.170 HD
HETATM   13  O   UNL     1      -9.864   0.362 -32.915  1.00  0.00    -0.267 OA
BRANCH  11  14
HETATM   14  C   UNL     1     -11.901   1.952 -34.254  1.00  0.00     0.160 A 
HETATM   15  N   UNL     1     -12.417   1.461 -35.383  1.00  0.00    -0.110 NA
HETATM   16  O   UNL     1     -13.760   1.256 -35.144  1.00  0.00    -0.216 OA
HETATM   17  C   UNL     1     -14.050   1.616 -33.868  1.00  0.00     0.078 A 
HETATM   18  C   UNL     1     -15.449   1.442 -33.434  1.00  0.00     0.079 C 
HETATM   19  C   UNL     1     -12.907   2.074 -33.262  1.00  0.00     0.087 A 
ENDBRANCH  11  14
ENDBRANCH   1  10
BRANCH   2  20
HETATM   20  C   UNL     1      -6.725   0.532 -34.188  1.00  0.00    -0.031 A 
HETATM   21  C   UNL     1      -5.682   0.270 -33.283  1.00  0.00     0.012 A 
HETATM   22  C   UNL     1      -5.066  -0.984 -33.248  1.00  0.00     0.037 A 
HETATM   23  C   UNL     1      -5.491  -1.980 -34.120  1.00  0.00     0.065 A 
HETATM   24  C   UNL     1      -6.521  -1.746 -35.022  1.00  0.00     0.037 A 
HETATM   25  C   UNL     1      -7.140  -0.497 -35.053  1.00  0.00     0.012 A 
BRANCH  23  26
HETATM   26  O   UNL     1      -4.917  -3.216 -34.122  1.00  0.00    -0.361 OA
HETATM   27  H   UNL     1      -5.069  -3.635 -33.259  1.00  0.00     0.217 HD
ENDBRANCH  23  26
ENDBRANCH   2  20
BRANCH   6  28
HETATM   28  C   UNL     1      -6.710   4.609 -30.943  1.00  0.00     0.042 A 
HETATM   29  C   UNL     1      -7.202   5.920 -30.970  1.00  0.00     0.030 A 
HETATM   30  C   UNL     1      -6.953   6.785 -29.903  1.00  0.00     0.002 A 
HETATM   31  C   UNL     1      -6.207   6.348 -28.809  1.00  0.00     0.000 A 
HETATM   32  C   UNL     1      -5.711   5.045 -28.777  1.00  0.00     0.002 A 
HETATM   33  C   UNL     1      -5.962   4.174 -29.841  1.00  0.00     0.030 A 
ENDBRANCH   6  28
TORSDOF 5
ENDMDL
MODEL 4
REMARK VINA RESULT:      -8.1      2.351      5.778
REMARK  5 active torsions:
REMARK  status: ('A' for Active; 'I' for Inactive)
REMARK    1  A    between atoms: C_5  and  N_6 
REMARK       I    between atoms: N_6  and  C_7 
REMARK    2  A    between atoms: C_7  and  C_8 
REMARK    3  A    between atoms: C_9  and  C_10 
REMARK    4  A    between atoms: C_13  and  O_14 
REMARK    5  A    between atoms: N_20  and  C_21 
ROOT
HETATM    1  C   UNL     1      -7.613   1.707 -32.989  1.00  0.00     0.060 C 
HETATM    2  C   UNL     1      -8.858   1.468 -32.207  1.00  0.00     0.158 C 
HETATM    3  N   UNL     1      -8.907   2.343 -31.065  1.00  0.00    -0.354 N 
HETATM    4  C   UNL     1      -8.185   3.490 -30.892  1.00  0.00     0.179 C 
HETATM    5  S   UNL     1      -8.635   4.407 -29.555  1.00  0.00    -0.040 SA
HETATM    6  N   UNL     1      -7.134   3.726 -31.809  1.00  0.00    -0.292 N 
HETATM    7  C   UNL     1      -6.812   2.777 -32.810  1.00  0.00     0.030 C 
HETATM    8  C   UNL     1      -5.609   3.023 -33.698  1.00  0.00     0.070 C 
HETATM    9  H   UNL     1      -9.658   2.206 -30.399  1.00  0.00     0.163 HD
ENDROOT
BRANCH   1  10
HETATM   10  C   UNL     1      -7.207   0.596 -33.892  1.00  0.00     0.257 C 
HETATM   11  N   UNL     1      -6.668  -0.477 -33.222  1.00  0.00    -0.306 N 
HETATM   12  H   UNL     1      -6.615  -0.465 -32.214  1.00  0.00     0.170 HD
HETATM   13  O   UNL     1      -7.369   0.729 -35.098  1.00  0.00    -0.267 OA
BRANCH  11  14
HETATM   14  C   UNL     1      -6.109  -1.577 -33.847  1.00  0.00     0.160 A 
HETATM   15  N   UNL     1      -4.804  -1.801 -34.022  1.00  0.00    -0.110 NA
HETATM   16  O   UNL     1      -4.698  -3.017 -34.664  1.00  0.00    -0.216 OA
HETATM   17  C   UNL     1      -5.938  -3.529 -34.867  1.00  0.00     0.078 A 
HETATM   18  C   UNL     1      -6.009  -4.846 -35.528  1.00  0.00     0.079 C 
HETATM   19  C   UNL     1      -6.870  -2.650 -34.375  1.00  0.00     0.087 A 
ENDBRANCH  11  14
ENDBRANCH   1  10
BRANCH   2  20
HETATM   20  C   UNL     1     -10.127   1.642 -33.032  1.00  0.00    -0.031 A 
HETATM   21  C   UNL     1     -10.385   2.863 -33.681  1.00  0.00     0.012 A 
HETATM   22  C   UNL     1     -11.558   3.045 -34.417  1.00  0.00     0.037 A 
HETATM   23  C   UNL     1     -12.480   2.008 -34.506  1.00  0.00     0.065 A 
HETATM   24  C   UNL     1     -12.247   0.793 -33.875  1.00  0.00     0.037 A 
HETATM   25  C   UNL     1     -11.073   0.607 -33.146  1.00  0.00     0.012 A 
BRANCH  23  26
HETATM   26  O   UNL     1     -13.638   2.144 -35.210  1.00  0.00    -0.361 OA
HETATM   27  H   UNL     1     -14.088   2.955 -34.923  1.00  0.00     0.217 HD
ENDBRANCH  23  26
ENDBRANCH   2  20
BRANCH   6  28
HETATM   28  C   UNL     1      -6.304   4.882 -31.604  1.00  0.00     0.042 A 
HETATM   29  C   UNL     1      -5.180   4.809 -30.771  1.00  0.00     0.030 A 
HETATM   30  C   UNL     1      -4.383   5.936 -30.568  1.00  0.00     0.002 A 
HETATM   31  C   UNL     1      -4.706   7.141 -31.190  1.00  0.00     0.000 A 
HETATM   32  C   UNL     1      -5.824   7.222 -32.017  1.00  0.00     0.002 A 
HETATM   33  C   UNL     1      -6.623   6.096 -32.228  1.00  0.00     0.030 A 
ENDBRANCH   6  28
TORSDOF 5
ENDMDL
MODEL 5
REMARK VINA RESULT:      -8.1      4.119      7.666
REMARK  5 active torsions:
REMARK  status: ('A' for Active; 'I' for Inactive)
REMARK    1  A    between atoms: C_5  and  N_6 
REMARK       I    between atoms: N_6  and  C_7 
REMARK    2  A    between atoms: C_7  and  C_8 
REMARK    3  A    between atoms: C_9  and  C_10 
REMARK    4  A    between atoms: C_13  and  O_14 
REMARK    5  A    between atoms: N_20  and  C_21 
ROOT
HETATM    1  C   UNL     1      -5.042   4.172 -31.009  1.00  0.00     0.060 C 
HETATM    2  C   UNL     1      -3.711   3.524 -31.169  1.00  0.00     0.158 C 
HETATM    3  N   UNL     1      -3.869   2.134 -31.512  1.00  0.00    -0.354 N 
HETATM    4  C   UNL     1      -4.995   1.548 -32.019  1.00  0.00     0.179 C 
HETATM    5  S   UNL     1      -4.789  -0.042 -32.528  1.00  0.00    -0.040 SA
HETATM    6  N   UNL     1      -6.180   2.321 -31.996  1.00  0.00    -0.292 N 
HETATM    7  C   UNL     1      -6.200   3.610 -31.412  1.00  0.00     0.030 C 
HETATM    8  C   UNL     1      -7.517   4.354 -31.313  1.00  0.00     0.070 C 
HETATM    9  H   UNL     1      -3.035   1.560 -31.550  1.00  0.00     0.163 HD
ENDROOT
BRANCH   1  10
HETATM   10  C   UNL     1      -5.043   5.434 -30.219  1.00  0.00     0.257 C 
HETATM   11  N   UNL     1      -5.035   5.223 -28.861  1.00  0.00    -0.306 N 
HETATM   12  H   UNL     1      -4.995   4.281 -28.498  1.00  0.00     0.170 HD
HETATM   13  O   UNL     1      -5.061   6.501 -30.818  1.00  0.00    -0.267 OA
BRANCH  11  14
HETATM   14  C   UNL     1      -5.154   6.231 -27.921  1.00  0.00     0.160 A 
HETATM   15  N   UNL     1      -6.265   6.917 -27.643  1.00  0.00    -0.110 NA
HETATM   16  O   UNL     1      -5.939   7.798 -26.634  1.00  0.00    -0.216 OA
HETATM   17  C   UNL     1      -4.634   7.638 -26.299  1.00  0.00     0.078 A 
HETATM   18  C   UNL     1      -4.120   8.493 -25.214  1.00  0.00     0.079 C 
HETATM   19  C   UNL     1      -4.087   6.660 -27.093  1.00  0.00     0.087 A 
ENDBRANCH  11  14
ENDBRANCH   1  10
BRANCH   2  20
HETATM   20  C   UNL     1      -2.833   4.205 -32.212  1.00  0.00    -0.031 A 
HETATM   21  C   UNL     1      -1.613   4.790 -31.834  1.00  0.00     0.012 A 
HETATM   22  C   UNL     1      -0.812   5.443 -32.775  1.00  0.00     0.037 A 
HETATM   23  C   UNL     1      -1.232   5.514 -34.099  1.00  0.00     0.065 A 
HETATM   24  C   UNL     1      -2.433   4.943 -34.497  1.00  0.00     0.037 A 
HETATM   25  C   UNL     1      -3.229   4.286 -33.559  1.00  0.00     0.012 A 
BRANCH  23  26
HETATM   26  O   UNL     1      -0.484   6.143 -35.049  1.00  0.00    -0.361 OA
HETATM   27  H   UNL     1      -1.068   6.700 -35.590  1.00  0.00     0.217 HD
ENDBRANCH  23  26
ENDBRANCH   2  20
BRANCH   6  28
HETATM   28  C   UNL     1      -7.398   1.703 -32.446  1.00  0.00     0.042 A 
HETATM   29  C   UNL     1      -8.205   0.992 -31.548  1.00  0.00     0.030 A 
HETATM   30  C   UNL     1      -9.382   0.387 -31.991  1.00  0.00     0.002 A 
HETATM   31  C   UNL     1      -9.756   0.483 -33.331  1.00  0.00     0.000 A 
HETATM   32  C   UNL     1      -8.956   1.186 -34.230  1.00  0.00     0.002 A 
HETATM   33  C   UNL     1      -7.779   1.798 -33.791  1.00  0.00     0.030 A 
ENDBRANCH   6  28
TORSDOF 5
ENDMDL
MODEL 6
REMARK VINA RESULT:      -8.0      2.456      5.332
REMARK  5 active torsions:
REMARK  status: ('A' for Active; 'I' for Inactive)
REMARK    1  A    between atoms: C_5  and  N_6 
REMARK       I    between atoms: N_6  and  C_7 
REMARK    2  A    between atoms: C_7  and  C_8 
REMARK    3  A    between atoms: C_9  and  C_10 
REMARK    4  A    between atoms: C_13  and  O_14 
REMARK    5  A    between atoms: N_20  and  C_21 
ROOT
HETATM    1  C   UNL     1      -7.958   2.181 -32.344  1.00  0.00     0.060 C 
HETATM    2  C   UNL     1      -8.214   0.735 -32.097  1.00  0.00     0.158 C 
HETATM    3  N   UNL     1      -9.603   0.427 -32.324  1.00  0.00    -0.354 N 
HETATM    4  C   UNL     1     -10.494   1.181 -33.034  1.00  0.00     0.179 C 
HETATM    5  S   UNL     1     -11.978   0.438 -33.309  1.00  0.00    -0.040 SA
HETATM    6  N   UNL     1     -10.082   2.487 -33.390  1.00  0.00    -0.292 N 
HETATM    7  C   UNL     1      -8.832   2.999 -32.966  1.00  0.00     0.030 C 
HETATM    8  C   UNL     1      -8.482   4.440 -33.278  1.00  0.00     0.070 C 
HETATM    9  H   UNL     1      -9.922  -0.506 -32.091  1.00  0.00     0.163 HD
ENDROOT
BRANCH   1  10
HETATM   10  C   UNL     1      -6.723   2.724 -31.715  1.00  0.00     0.257 C 
HETATM   11  N   UNL     1      -5.657   2.785 -32.580  1.00  0.00    -0.306 N 
HETATM   12  H   UNL     1      -5.774   2.508 -33.544  1.00  0.00     0.170 HD
HETATM   13  O   UNL     1      -6.758   3.045 -30.534  1.00  0.00    -0.267 OA
BRANCH  11  14
HETATM   14  C   UNL     1      -4.374   3.140 -32.202  1.00  0.00     0.160 A 
HETATM   15  N   UNL     1      -3.610   2.495 -31.318  1.00  0.00    -0.110 NA
HETATM   16  O   UNL     1      -2.411   3.174 -31.266  1.00  0.00    -0.216 OA
HETATM   17  C   UNL     1      -2.450   4.224 -32.126  1.00  0.00     0.078 A 
HETATM   18  C   UNL     1      -1.234   5.052 -32.214  1.00  0.00     0.079 C 
HETATM   19  C   UNL     1      -3.678   4.252 -32.739  1.00  0.00     0.087 A 
ENDBRANCH  11  14
ENDBRANCH   1  10
BRANCH   2  20
HETATM   20  C   UNL     1      -7.347  -0.183 -32.951  1.00  0.00    -0.031 A 
HETATM   21  C   UNL     1      -7.753  -0.529 -34.251  1.00  0.00     0.012 A 
HETATM   22  C   UNL     1      -6.982  -1.392 -35.034  1.00  0.00     0.037 A 
HETATM   23  C   UNL     1      -5.801  -1.913 -34.518  1.00  0.00     0.065 A 
HETATM   24  C   UNL     1      -5.377  -1.585 -33.236  1.00  0.00     0.037 A 
HETATM   25  C   UNL     1      -6.144  -0.719 -32.457  1.00  0.00     0.012 A 
BRANCH  23  26
HETATM   26  O   UNL     1      -5.019  -2.760 -35.245  1.00  0.00    -0.361 OA
HETATM   27  H   UNL     1      -4.477  -3.289 -34.636  1.00  0.00     0.217 HD
ENDBRANCH  23  26
ENDBRANCH   2  20
BRANCH   6  28
HETATM   28  C   UNL     1     -11.027   3.333 -34.065  1.00  0.00     0.042 A 
HETATM   29  C   UNL     1     -11.867   4.182 -33.333  1.00  0.00     0.030 A 
HETATM   30  C   UNL     1     -12.790   4.996 -33.992  1.00  0.00     0.002 A 
HETATM   31  C   UNL     1     -12.883   4.962 -35.382  1.00  0.00     0.000 A 
HETATM   32  C   UNL     1     -12.053   4.117 -36.118  1.00  0.00     0.002 A 
HETATM   33  C   UNL     1     -11.125   3.304 -35.463  1.00  0.00     0.030 A 
ENDBRANCH   6  28
TORSDOF 5
ENDMDL
MODEL 7
REMARK VINA RESULT:      -7.9      3.395      6.927
REMARK  5 active torsions:
REMARK  status: ('A' for Active; 'I' for Inactive)
REMARK    1  A    between atoms: C_5  and  N_6 
REMARK       I    between atoms: N_6  and  C_7 
REMARK    2  A    between atoms: C_7  and  C_8 
REMARK    3  A    between atoms: C_9  and  C_10 
REMARK    4  A    between atoms: C_13  and  O_14 
REMARK    5  A    between atoms: N_20  and  C_21 
ROOT
HETATM    1  C   UNL     1      -5.000   2.910 -31.169  1.00  0.00     0.060 C 
HETATM    2  C   UNL     1      -5.992   3.414 -30.180  1.00  0.00     0.158 C 
HETATM    3  N   UNL     1      -5.522   4.635 -29.577  1.00  0.00    -0.354 N 
HETATM    4  C   UNL     1      -4.548   5.457 -30.068  1.00  0.00     0.179 C 
HETATM    5  S   UNL     1      -4.388   6.920 -29.251  1.00  0.00    -0.040 SA
HETATM    6  N   UNL     1      -3.776   4.959 -31.144  1.00  0.00    -0.292 N 
HETATM    7  C   UNL     1      -3.968   3.644 -31.632  1.00  0.00     0.030 C 
HETATM    8  C   UNL     1      -3.043   3.117 -32.711  1.00  0.00     0.070 C 
HETATM    9  H   UNL     1      -6.063   5.022 -28.813  1.00  0.00     0.163 HD
ENDROOT
BRANCH   1  10
HETATM   10  C   UNL     1      -5.121   1.466 -31.511  1.00  0.00     0.257 C 
HETATM   11  N   UNL     1      -5.727   1.246 -32.725  1.00  0.00    -0.306 N 
HETATM   12  H   UNL     1      -6.006   2.029 -33.298  1.00  0.00     0.170 HD
HETATM   13  O   UNL     1      -4.700   0.637 -30.715  1.00  0.00    -0.267 OA
BRANCH  11  14
HETATM   14  C   UNL     1      -6.059  -0.008 -33.207  1.00  0.00     0.160 A 
HETATM   15  N   UNL     1      -7.270  -0.567 -33.167  1.00  0.00    -0.110 NA
HETATM   16  O   UNL     1      -7.153  -1.799 -33.776  1.00  0.00    -0.216 OA
HETATM   17  C   UNL     1      -5.873  -1.978 -34.189  1.00  0.00     0.078 A 
HETATM   18  C   UNL     1      -5.572  -3.243 -34.884  1.00  0.00     0.079 C 
HETATM   19  C   UNL     1      -5.134  -0.872 -33.845  1.00  0.00     0.087 A 
ENDBRANCH  11  14
ENDBRANCH   1  10
BRANCH   2  20
HETATM   20  C   UNL     1      -7.374   3.647 -30.780  1.00  0.00    -0.031 A 
HETATM   21  C   UNL     1      -7.506   4.334 -31.999  1.00  0.00     0.012 A 
HETATM   22  C   UNL     1      -8.768   4.579 -32.547  1.00  0.00     0.037 A 
HETATM   23  C   UNL     1      -9.903   4.139 -31.875  1.00  0.00     0.065 A 
HETATM   24  C   UNL     1      -9.798   3.457 -30.670  1.00  0.00     0.037 A 
HETATM   25  C   UNL     1      -8.538   3.206 -30.126  1.00  0.00     0.012 A 
BRANCH  23  26
HETATM   26  O   UNL     1     -11.153   4.359 -32.371  1.00  0.00    -0.361 OA
HETATM   27  H   UNL     1     -11.790   4.346 -31.637  1.00  0.00     0.217 HD
ENDBRANCH  23  26
ENDBRANCH   2  20
BRANCH   6  28
HETATM   28  C   UNL     1      -2.691   5.768 -31.628  1.00  0.00     0.042 A 
HETATM   29  C   UNL     1      -2.898   6.682 -32.669  1.00  0.00     0.030 A 
HETATM   30  C   UNL     1      -1.840   7.459 -33.142  1.00  0.00     0.002 A 
HETATM   31  C   UNL     1      -0.569   7.324 -32.583  1.00  0.00     0.000 A 
HETATM   32  C   UNL     1      -0.355   6.413 -31.550  1.00  0.00     0.002 A 
HETATM   33  C   UNL     1      -1.412   5.636 -31.070  1.00  0.00     0.030 A 
ENDBRANCH   6  28
TORSDOF 5
ENDMDL
MODEL 8
REMARK VINA RESULT:      -7.7      4.346      7.569
REMARK  5 active torsions:
REMARK  status: ('A' for Active; 'I' for Inactive)
REMARK    1  A    between atoms: C_5  and  N_6 
REMARK       I    between atoms: N_6  and  C_7 
REMARK    2  A    between atoms: C_7  and  C_8 
REMARK    3  A    between atoms: C_9  and  C_10 
REMARK    4  A    between atoms: C_13  and  O_14 
REMARK    5  A    between atoms: N_20  and  C_21 
ROOT
HETATM    1  C   UNL     1      -5.308   3.942 -31.480  1.00  0.00     0.060 C 
HETATM    2  C   UNL     1      -3.861   3.723 -31.205  1.00  0.00     0.158 C 
HETATM    3  N   UNL     1      -3.506   2.350 -31.460  1.00  0.00    -0.354 N 
HETATM    4  C   UNL     1      -4.216   1.456 -32.209  1.00  0.00     0.179 C 
HETATM    5  S   UNL     1      -3.422   0.002 -32.503  1.00  0.00    -0.040 SA
HETATM    6  N   UNL     1      -5.525   1.838 -32.586  1.00  0.00    -0.292 N 
HETATM    7  C   UNL     1      -6.084   3.060 -32.143  1.00  0.00     0.030 C 
HETATM    8  C   UNL     1      -7.528   3.375 -32.480  1.00  0.00     0.070 C 
HETATM    9  H   UNL     1      -2.569   2.053 -31.213  1.00  0.00     0.163 HD
ENDROOT
BRANCH   1  10
HETATM   10  C   UNL     1      -5.902   5.144 -30.834  1.00  0.00     0.257 C 
HETATM   11  N   UNL     1      -6.296   4.921 -29.536  1.00  0.00    -0.306 N 
HETATM   12  H   UNL     1      -6.137   4.019 -29.109  1.00  0.00     0.170 HD
HETATM   13  O   UNL     1      -5.996   6.176 -31.485  1.00  0.00    -0.267 OA
BRANCH  11  14
HETATM   14  C   UNL     1      -6.982   5.844 -28.767  1.00  0.00     0.160 A 
HETATM   15  N   UNL     1      -6.455   6.621 -27.818  1.00  0.00    -0.110 NA
HETATM   16  O   UNL     1      -7.484   7.399 -27.331  1.00  0.00    -0.216 OA
HETATM   17  C   UNL     1      -8.630   7.096 -27.993  1.00  0.00     0.078 A 
HETATM   18  C   UNL     1      -9.835   7.854 -27.610  1.00  0.00     0.079 C 
HETATM   19  C   UNL     1      -8.367   6.108 -28.909  1.00  0.00     0.087 A 
ENDBRANCH  11  14
ENDBRANCH   1  10
BRANCH   2  20
HETATM   20  C   UNL     1      -2.951   4.639 -32.015  1.00  0.00    -0.031 A 
HETATM   21  C   UNL     1      -3.132   4.765 -33.403  1.00  0.00     0.012 A 
HETATM   22  C   UNL     1      -2.287   5.579 -34.162  1.00  0.00     0.037 A 
HETATM   23  C   UNL     1      -1.255   6.269 -33.534  1.00  0.00     0.065 A 
HETATM   24  C   UNL     1      -1.057   6.162 -32.164  1.00  0.00     0.037 A 
HETATM   25  C   UNL     1      -1.905   5.354 -31.405  1.00  0.00     0.012 A 
BRANCH  23  26
HETATM   26  O   UNL     1      -0.406   7.071 -34.235  1.00  0.00    -0.361 OA
HETATM   27  H   UNL     1       0.331   6.534 -34.569  1.00  0.00     0.217 HD
ENDBRANCH  23  26
ENDBRANCH   2  20
BRANCH   6  28
HETATM   28  C   UNL     1      -6.326   0.885 -33.304  1.00  0.00     0.042 A 
HETATM   29  C   UNL     1      -6.892  -0.210 -32.638  1.00  0.00     0.030 A 
HETATM   30  C   UNL     1      -7.662  -1.138 -33.341  1.00  0.00     0.002 A 
HETATM   31  C   UNL     1      -7.867  -0.980 -34.711  1.00  0.00     0.000 A 
HETATM   32  C   UNL     1      -7.305   0.105 -35.381  1.00  0.00     0.002 A 
HETATM   33  C   UNL     1      -6.536   1.039 -34.681  1.00  0.00     0.030 A 
ENDBRANCH   6  28
TORSDOF 5
ENDMDL
MODEL 9
REMARK VINA RESULT:      -7.5      4.150      6.907
REMARK  5 active torsions:
REMARK  status: ('A' for Active; 'I' for Inactive)
REMARK    1  A    between atoms: C_5  and  N_6 
REMARK       I    between atoms: N_6  and  C_7 
REMARK    2  A    between atoms: C_7  and  C_8 
REMARK    3  A    between atoms: C_9  and  C_10 
REMARK    4  A    between atoms: C_13  and  O_14 
REMARK    5  A    between atoms: N_20  and  C_21 
ROOT
HETATM    1  C   UNL     1      -4.764   5.050 -32.516  1.00  0.00     0.060 C 
HETATM    2  C   UNL     1      -5.709   6.200 -32.547  1.00  0.00     0.158 C 
HETATM    3  N   UNL     1      -6.931   5.826 -33.211  1.00  0.00    -0.354 N 
HETATM    4  C   UNL     1      -7.375   4.553 -33.432  1.00  0.00     0.179 C 
HETATM    5  S   UNL     1      -8.945   4.452 -34.028  1.00  0.00    -0.040 SA
HETATM    6  N   UNL     1      -6.455   3.506 -33.190  1.00  0.00    -0.292 N 
HETATM    7  C   UNL     1      -5.121   3.782 -32.804  1.00  0.00     0.030 C 
HETATM    8  C   UNL     1      -4.142   2.633 -32.664  1.00  0.00     0.070 C 
HETATM    9  H   UNL     1      -7.615   6.553 -33.384  1.00  0.00     0.163 HD
ENDROOT
BRANCH   1  10
HETATM   10  C   UNL     1      -3.335   5.407 -32.297  1.00  0.00     0.257 C 
HETATM   11  N   UNL     1      -2.917   5.196 -31.005  1.00  0.00    -0.306 N 
HETATM   12  H   UNL     1      -3.553   4.802 -30.327  1.00  0.00     0.170 HD
HETATM   13  O   UNL     1      -2.689   5.847 -33.238  1.00  0.00    -0.267 OA
BRANCH  11  14
HETATM   14  C   UNL     1      -1.671   5.562 -30.526  1.00  0.00     0.160 A 
HETATM   15  N   UNL     1      -0.537   4.876 -30.687  1.00  0.00    -0.110 NA
HETATM   16  O   UNL     1       0.456   5.613 -30.076  1.00  0.00    -0.216 OA
HETATM   17  C   UNL     1      -0.079   6.746 -29.554  1.00  0.00     0.078 A 
HETATM   18  C   UNL     1       0.853   7.667 -28.878  1.00  0.00     0.079 C 
HETATM   19  C   UNL     1      -1.429   6.758 -29.806  1.00  0.00     0.087 A 
ENDBRANCH  11  14
ENDBRANCH   1  10
BRANCH   2  20
HETATM   20  C   UNL     1      -6.033   6.748 -31.162  1.00  0.00    -0.031 A 
HETATM   21  C   UNL     1      -5.628   8.045 -30.803  1.00  0.00     0.012 A 
HETATM   22  C   UNL     1      -5.894   8.548 -29.527  1.00  0.00     0.037 A 
HETATM   23  C   UNL     1      -6.566   7.754 -28.604  1.00  0.00     0.065 A 
HETATM   24  C   UNL     1      -6.978   6.470 -28.935  1.00  0.00     0.037 A 
HETATM   25  C   UNL     1      -6.718   5.970 -30.211  1.00  0.00     0.012 A 
BRANCH  23  26
HETATM   26  O   UNL     1      -6.843   8.204 -27.348  1.00  0.00    -0.361 OA
HETATM   27  H   UNL     1      -7.705   8.653 -27.358  1.00  0.00     0.217 HD
ENDBRANCH  23  26
ENDBRANCH   2  20
BRANCH   6  28
HETATM   28  C   UNL     1      -6.866   2.162 -33.491  1.00  0.00     0.042 A 
HETATM   29  C   UNL     1      -6.726   1.653 -34.789  1.00  0.00     0.030 A 
HETATM   30  C   UNL     1      -7.134   0.351 -35.080  1.00  0.00     0.002 A 
HETATM   31  C   UNL     1      -7.688  -0.447 -34.080  1.00  0.00     0.000 A 
HETATM   32  C   UNL     1      -7.834   0.054 -32.787  1.00  0.00     0.002 A 
HETATM   33  C   UNL     1      -7.422   1.355 -32.490  1.00  0.00     0.030 A 
ENDBRANCH   6  28
TORSDOF 5
ENDMDL
MODEL 10
REMARK VINA RESULT:      -7.5      2.466      2.841
REMARK  5 active torsions:
REMARK  status: ('A' for Active; 'I' for Inactive)
REMARK    1  A    between atoms: C_5  and  N_6 
REMARK       I    between atoms: N_6  and  C_7 
REMARK    2  A    between atoms: C_7  and  C_8 
REMARK    3  A    between atoms: C_9  and  C_10 
REMARK    4  A    between atoms: C_13  and  O_14 
REMARK    5  A    between atoms: N_20  and  C_21 
ROOT
HETATM    1  C   UNL     1      -9.161   2.397 -33.875  1.00  0.00     0.060 C 
HETATM    2  C   UNL     1      -8.864   3.784 -34.328  1.00  0.00     0.158 C 
HETATM    3  N   UNL     1     -10.065   4.424 -34.799  1.00  0.00    -0.354 N 
HETATM    4  C   UNL     1     -11.347   4.039 -34.528  1.00  0.00     0.179 C 
HETATM    5  S   UNL     1     -12.528   5.125 -35.037  1.00  0.00    -0.040 SA
HETATM    6  N   UNL     1     -11.517   2.774 -33.918  1.00  0.00    -0.292 N 
HETATM    7  C   UNL     1     -10.409   1.929 -33.669  1.00  0.00     0.030 C 
HETATM    8  C   UNL     1     -10.652   0.539 -33.115  1.00  0.00     0.070 C 
HETATM    9  H   UNL     1      -9.975   5.337 -35.228  1.00  0.00     0.163 HD
ENDROOT
BRANCH   1  10
HETATM   10  C   UNL     1      -7.987   1.484 -33.811  1.00  0.00     0.257 C 
HETATM   11  N   UNL     1      -7.552   1.251 -32.528  1.00  0.00    -0.306 N 
HETATM   12  H   UNL     1      -8.045   1.659 -31.747  1.00  0.00     0.170 HD
HETATM   13  O   UNL     1      -7.524   1.048 -34.857  1.00  0.00    -0.267 OA
BRANCH  11  14
HETATM   14  C   UNL     1      -6.409   0.536 -32.218  1.00  0.00     0.160 A 
HETATM   15  N   UNL     1      -6.264  -0.788 -32.306  1.00  0.00    -0.110 NA
HETATM   16  O   UNL     1      -4.968  -1.067 -31.926  1.00  0.00    -0.216 OA
HETATM   17  C   UNL     1      -4.330   0.090 -31.617  1.00  0.00     0.078 A 
HETATM   18  C   UNL     1      -2.918  -0.022 -31.208  1.00  0.00     0.079 C 
HETATM   19  C   UNL     1      -5.203   1.137 -31.778  1.00  0.00     0.087 A 
ENDBRANCH  11  14
ENDBRANCH   1  10
BRANCH   2  20
HETATM   20  C   UNL     1      -8.224   4.644 -33.245  1.00  0.00    -0.031 A 
HETATM   21  C   UNL     1      -8.798   4.708 -31.964  1.00  0.00     0.012 A 
HETATM   22  C   UNL     1      -8.237   5.515 -30.970  1.00  0.00     0.037 A 
HETATM   23  C   UNL     1      -7.101   6.264 -31.257  1.00  0.00     0.065 A 
HETATM   24  C   UNL     1      -6.515   6.217 -32.515  1.00  0.00     0.037 A 
HETATM   25  C   UNL     1      -7.070   5.406 -33.505  1.00  0.00     0.012 A 
BRANCH  23  26
HETATM   26  O   UNL     1      -6.523   7.066 -30.319  1.00  0.00    -0.361 OA
HETATM   27  H   UNL     1      -6.965   6.922 -29.466  1.00  0.00     0.217 HD
ENDBRANCH  23  26
ENDBRANCH   2  20
BRANCH   6  28
HETATM   28  C   UNL     1     -12.858   2.306 -33.695  1.00  0.00     0.042 A 
HETATM   29  C   UNL     1     -13.583   2.738 -32.576  1.00  0.00     0.030 A 
HETATM   30  C   UNL     1     -14.881   2.274 -32.359  1.00  0.00     0.002 A 
HETATM   31  C   UNL     1     -15.460   1.374 -33.253  1.00  0.00     0.000 A 
HETATM   32  C   UNL     1     -14.744   0.937 -34.367  1.00  0.00     0.002 A 
HETATM   33  C   UNL     1     -13.445   1.402 -34.591  1.00  0.00     0.030 A 
ENDBRANCH   6  28
TORSDOF 5
ENDMDL
