MODEL 1
REMARK VINA RESULT:      -8.9      0.000      0.000
REMARK  2 active torsions:
REMARK  status: ('A' for Active; 'I' for Inactive)
REMARK    1  A    between atoms: C_2  and  N_3 
REMARK    2  A    between atoms: N_3  and  C_4 
ROOT
HETATM    1  C   UNL     1      -5.999   1.698 -31.617  1.00  0.00     0.143 A 
HETATM    2  N   UNL     1      -5.385   2.829 -31.191  1.00  0.00    -0.223 NA
HETATM    3  C   UNL     1      -4.050   2.894 -31.168  1.00  0.00     0.236 A 
HETATM    4  N   UNL     1      -3.195   1.938 -31.515  1.00  0.00    -0.234 NA
HETATM    5  C   UNL     1      -3.814   0.835 -31.963  1.00  0.00     0.114 A 
HETATM    6  C   UNL     1      -5.182   0.631 -32.087  1.00  0.00     0.053 A 
HETATM    7  S   UNL     1      -2.892  -0.513 -32.421  1.00  0.00    -0.073 SA
HETATM    8  C   UNL     1      -4.277  -1.403 -32.857  1.00  0.00    -0.008 C 
HETATM    9  C   UNL     1      -5.446  -0.668 -32.711  1.00  0.00    -0.028 C 
HETATM   10  C   UNL     1      -6.784  -1.191 -33.163  1.00  0.00     0.041 C 
HETATM   11  C   UNL     1      -6.809  -1.626 -34.632  1.00  0.00     0.005 C 
HETATM   12  C   UNL     1      -6.148  -2.975 -34.911  1.00  0.00     0.001 C 
HETATM   13  C   UNL     1      -4.624  -2.981 -34.785  1.00  0.00     0.005 C 
HETATM   14  C   UNL     1      -4.124  -2.810 -33.352  1.00  0.00     0.047 C 
ENDROOT
BRANCH   1  15
HETATM   15  N   UNL     1      -7.396   1.577 -31.508  1.00  0.00    -0.340 N 
HETATM   16  H   UNL     1      -7.691   1.573 -30.542  1.00  0.00     0.167 HD
BRANCH  15  17
HETATM   17  C   UNL     1      -8.432   1.917 -32.401  1.00  0.00     0.036 A 
HETATM   18  C   UNL     1      -8.397   3.040 -33.236  1.00  0.00     0.032 A 
HETATM   19  C   UNL     1      -9.441   3.318 -34.126  1.00  0.00     0.042 A 
HETATM   20  C   UNL     1     -10.531   2.459 -34.209  1.00  0.00     0.102 A 
HETATM   21  C   UNL     1     -10.586   1.334 -33.386  1.00  0.00     0.104 A 
HETATM   22  O   UNL     1     -11.509   2.782 -35.111  1.00  0.00    -0.346 OA
HETATM   23  C   UNL     1      -9.536   1.054 -32.509  1.00  0.00     0.069 A 
HETATM   24  O   UNL     1     -11.637   0.451 -33.389  1.00  0.00    -0.346 OA
HETATM   25  C   UNL     1     -12.784   1.014 -34.038  1.00  0.00     0.202 C 
HETATM   26  C   UNL     1     -12.388   1.676 -35.347  1.00  0.00     0.202 C 
ENDBRANCH  15  17
ENDBRANCH   1  15
TORSDOF 2
ENDMDL
MODEL 2
REMARK VINA RESULT:      -8.4      3.723      6.061
REMARK  2 active torsions:
REMARK  status: ('A' for Active; 'I' for Inactive)
REMARK    1  A    between atoms: C_2  and  N_3 
REMARK    2  A    between atoms: N_3  and  C_4 
ROOT
HETATM    1  C   UNL     1      -7.248   2.083 -32.234  1.00  0.00     0.143 A 
HETATM    2  N   UNL     1      -8.590   2.278 -32.253  1.00  0.00    -0.223 NA
HETATM    3  C   UNL     1      -9.392   1.338 -32.760  1.00  0.00     0.236 A 
HETATM    4  N   UNL     1      -9.030   0.175 -33.291  1.00  0.00    -0.234 NA
HETATM    5  C   UNL     1      -7.703  -0.020 -33.239  1.00  0.00     0.114 A 
HETATM    6  C   UNL     1      -6.748   0.837 -32.708  1.00  0.00     0.053 A 
HETATM    7  S   UNL     1      -7.041  -1.434 -33.900  1.00  0.00    -0.073 SA
HETATM    8  C   UNL     1      -5.459  -0.987 -33.455  1.00  0.00    -0.008 C 
HETATM    9  C   UNL     1      -5.425   0.211 -32.753  1.00  0.00    -0.028 C 
HETATM   10  C   UNL     1      -4.158   0.742 -32.135  1.00  0.00     0.041 C 
HETATM   11  C   UNL     1      -3.472  -0.252 -31.191  1.00  0.00     0.005 C 
HETATM   12  C   UNL     1      -2.702  -1.371 -31.891  1.00  0.00     0.001 C 
HETATM   13  C   UNL     1      -3.577  -2.414 -32.587  1.00  0.00     0.005 C 
HETATM   14  C   UNL     1      -4.309  -1.881 -33.816  1.00  0.00     0.047 C 
ENDROOT
BRANCH   1  15
HETATM   15  N   UNL     1      -6.395   3.126 -31.833  1.00  0.00    -0.340 N 
HETATM   16  H   UNL     1      -6.160   3.054 -30.853  1.00  0.00     0.167 HD
BRANCH  15  17
HETATM   17  C   UNL     1      -5.484   3.916 -32.561  1.00  0.00     0.036 A 
HETATM   18  C   UNL     1      -5.601   4.166 -33.934  1.00  0.00     0.032 A 
HETATM   19  C   UNL     1      -4.684   4.983 -34.606  1.00  0.00     0.042 A 
HETATM   20  C   UNL     1      -3.642   5.581 -33.906  1.00  0.00     0.102 A 
HETATM   21  C   UNL     1      -3.507   5.345 -32.537  1.00  0.00     0.104 A 
HETATM   22  O   UNL     1      -2.790   6.379 -34.621  1.00  0.00    -0.346 OA
HETATM   23  C   UNL     1      -4.432   4.541 -31.869  1.00  0.00     0.069 A 
HETATM   24  O   UNL     1      -2.494   5.878 -31.779  1.00  0.00    -0.346 OA
HETATM   25  C   UNL     1      -1.432   6.369 -32.606  1.00  0.00     0.202 C 
HETATM   26  C   UNL     1      -1.987   7.192 -33.758  1.00  0.00     0.202 C 
ENDBRANCH  15  17
ENDBRANCH   1  15
TORSDOF 2
ENDMDL
MODEL 3
REMARK VINA RESULT:      -8.4      3.803      6.306
REMARK  2 active torsions:
REMARK  status: ('A' for Active; 'I' for Inactive)
REMARK    1  A    between atoms: C_2  and  N_3 
REMARK    2  A    between atoms: N_3  and  C_4 
ROOT
HETATM    1  C   UNL     1      -6.517   2.363 -31.062  1.00  0.00     0.143 A 
HETATM    2  N   UNL     1      -7.434   3.008 -30.299  1.00  0.00    -0.223 NA
HETATM    3  C   UNL     1      -8.737   2.789 -30.497  1.00  0.00     0.236 A 
HETATM    4  N   UNL     1      -9.287   1.986 -31.402  1.00  0.00    -0.234 NA
HETATM    5  C   UNL     1      -8.370   1.330 -32.129  1.00  0.00     0.114 A 
HETATM    6  C   UNL     1      -6.989   1.417 -32.015  1.00  0.00     0.053 A 
HETATM    7  S   UNL     1      -8.876   0.283 -33.363  1.00  0.00    -0.073 SA
HETATM    8  C   UNL     1      -7.275  -0.141 -33.759  1.00  0.00    -0.008 C 
HETATM    9  C   UNL     1      -6.345   0.465 -32.924  1.00  0.00    -0.028 C 
HETATM   10  C   UNL     1      -4.876   0.138 -32.988  1.00  0.00     0.041 C 
HETATM   11  C   UNL     1      -4.574  -1.358 -32.844  1.00  0.00     0.005 C 
HETATM   12  C   UNL     1      -4.849  -2.190 -34.097  1.00  0.00     0.001 C 
HETATM   13  C   UNL     1      -6.330  -2.374 -34.431  1.00  0.00     0.005 C 
HETATM   14  C   UNL     1      -7.021  -1.092 -34.891  1.00  0.00     0.047 C 
ENDROOT
BRANCH   1  15
HETATM   15  N   UNL     1      -5.155   2.697 -30.951  1.00  0.00    -0.340 N 
HETATM   16  H   UNL     1      -4.582   1.873 -30.844  1.00  0.00     0.167 HD
BRANCH  15  17
HETATM   17  C   UNL     1      -4.432   3.818 -31.405  1.00  0.00     0.036 A 
HETATM   18  C   UNL     1      -4.528   5.088 -30.823  1.00  0.00     0.032 A 
HETATM   19  C   UNL     1      -3.765   6.163 -31.294  1.00  0.00     0.042 A 
HETATM   20  C   UNL     1      -2.876   5.977 -32.347  1.00  0.00     0.102 A 
HETATM   21  C   UNL     1      -2.765   4.718 -32.940  1.00  0.00     0.104 A 
HETATM   22  O   UNL     1      -2.151   7.067 -32.748  1.00  0.00    -0.346 OA
HETATM   23  C   UNL     1      -3.518   3.646 -32.459  1.00  0.00     0.069 A 
HETATM   24  O   UNL     1      -1.930   4.459 -33.998  1.00  0.00    -0.346 OA
HETATM   25  C   UNL     1      -1.495   5.671 -34.626  1.00  0.00     0.202 C 
HETATM   26  C   UNL     1      -1.051   6.684 -33.583  1.00  0.00     0.202 C 
ENDBRANCH  15  17
ENDBRANCH   1  15
TORSDOF 2
ENDMDL
MODEL 4
REMARK VINA RESULT:      -8.4      2.595      3.994
REMARK  2 active torsions:
REMARK  status: ('A' for Active; 'I' for Inactive)
REMARK    1  A    between atoms: C_2  and  N_3 
REMARK    2  A    between atoms: N_3  and  C_4 
ROOT
HETATM    1  C   UNL     1      -9.093   3.697 -34.135  1.00  0.00     0.143 A 
HETATM    2  N   UNL     1      -8.973   5.036 -33.960  1.00  0.00    -0.223 NA
HETATM    3  C   UNL     1      -8.042   5.518 -33.132  1.00  0.00     0.236 A 
HETATM    4  N   UNL     1      -7.176   4.820 -32.406  1.00  0.00    -0.234 NA
HETATM    5  C   UNL     1      -7.283   3.499 -32.611  1.00  0.00     0.114 A 
HETATM    6  C   UNL     1      -8.165   2.850 -33.466  1.00  0.00     0.053 A 
HETATM    7  S   UNL     1      -6.285   2.435 -31.746  1.00  0.00    -0.073 SA
HETATM    8  C   UNL     1      -6.949   1.070 -32.517  1.00  0.00    -0.008 C 
HETATM    9  C   UNL     1      -7.894   1.411 -33.476  1.00  0.00    -0.028 C 
HETATM   10  C   UNL     1      -8.519   0.386 -34.385  1.00  0.00     0.041 C 
HETATM   11  C   UNL     1      -7.496  -0.449 -35.164  1.00  0.00     0.005 C 
HETATM   12  C   UNL     1      -6.809  -1.543 -34.346  1.00  0.00     0.001 C 
HETATM   13  C   UNL     1      -5.815  -1.034 -33.303  1.00  0.00     0.005 C 
HETATM   14  C   UNL     1      -6.470  -0.300 -32.135  1.00  0.00     0.047 C 
ENDROOT
BRANCH   1  15
HETATM   15  N   UNL     1     -10.160   3.183 -34.894  1.00  0.00    -0.340 N 
HETATM   16  H   UNL     1      -9.832   2.749 -35.745  1.00  0.00     0.167 HD
BRANCH  15  17
HETATM   17  C   UNL     1     -11.449   2.755 -34.517  1.00  0.00     0.036 A 
HETATM   18  C   UNL     1     -12.072   1.619 -35.048  1.00  0.00     0.032 A 
HETATM   19  C   UNL     1     -13.344   1.220 -34.618  1.00  0.00     0.042 A 
HETATM   20  C   UNL     1     -14.003   1.943 -33.631  1.00  0.00     0.102 A 
HETATM   21  C   UNL     1     -13.398   3.078 -33.088  1.00  0.00     0.104 A 
HETATM   22  O   UNL     1     -15.236   1.488 -33.246  1.00  0.00    -0.346 OA
HETATM   23  C   UNL     1     -12.125   3.464 -33.510  1.00  0.00     0.069 A 
HETATM   24  O   UNL     1     -13.993   3.859 -32.128  1.00  0.00    -0.346 OA
HETATM   25  C   UNL     1     -15.397   3.590 -32.038  1.00  0.00     0.202 C 
HETATM   26  C   UNL     1     -15.656   2.092 -32.018  1.00  0.00     0.202 C 
ENDBRANCH  15  17
ENDBRANCH   1  15
TORSDOF 2
ENDMDL
MODEL 5
REMARK VINA RESULT:      -8.4      1.259      1.314
REMARK  2 active torsions:
REMARK  status: ('A' for Active; 'I' for Inactive)
REMARK    1  A    between atoms: C_2  and  N_3 
REMARK    2  A    between atoms: N_3  and  C_4 
ROOT
HETATM    1  C   UNL     1      -6.807   1.877 -31.089  1.00  0.00     0.143 A 
HETATM    2  N   UNL     1      -6.381   3.054 -30.567  1.00  0.00    -0.223 NA
HETATM    3  C   UNL     1      -5.073   3.320 -30.505  1.00  0.00     0.236 A 
HETATM    4  N   UNL     1      -4.076   2.534 -30.897  1.00  0.00    -0.234 NA
HETATM    5  C   UNL     1      -4.510   1.387 -31.439  1.00  0.00     0.114 A 
HETATM    6  C   UNL     1      -5.828   0.986 -31.614  1.00  0.00     0.053 A 
HETATM    7  S   UNL     1      -3.384   0.234 -31.969  1.00  0.00    -0.073 SA
HETATM    8  C   UNL     1      -4.609  -0.822 -32.503  1.00  0.00    -0.008 C 
HETATM    9  C   UNL     1      -5.879  -0.287 -32.335  1.00  0.00    -0.028 C 
HETATM   10  C   UNL     1      -7.114  -0.974 -32.859  1.00  0.00     0.041 C 
HETATM   11  C   UNL     1      -7.049  -1.295 -34.356  1.00  0.00     0.005 C 
HETATM   12  C   UNL     1      -6.183  -2.503 -34.714  1.00  0.00     0.001 C 
HETATM   13  C   UNL     1      -4.679  -2.285 -34.549  1.00  0.00     0.005 C 
HETATM   14  C   UNL     1      -4.233  -2.148 -33.095  1.00  0.00     0.047 C 
ENDROOT
BRANCH   1  15
HETATM   15  N   UNL     1      -8.170   1.536 -31.026  1.00  0.00    -0.340 N 
HETATM   16  H   UNL     1      -8.392   1.062 -30.163  1.00  0.00     0.167 HD
BRANCH  15  17
HETATM   17  C   UNL     1      -9.300   2.098 -31.653  1.00  0.00     0.036 A 
HETATM   18  C   UNL     1      -9.953   3.246 -31.186  1.00  0.00     0.032 A 
HETATM   19  C   UNL     1     -11.056   3.781 -31.863  1.00  0.00     0.042 A 
HETATM   20  C   UNL     1     -11.511   3.184 -33.033  1.00  0.00     0.102 A 
HETATM   21  C   UNL     1     -10.873   2.040 -33.516  1.00  0.00     0.104 A 
HETATM   22  O   UNL     1     -12.584   3.767 -33.652  1.00  0.00    -0.346 OA
HETATM   23  C   UNL     1      -9.766   1.518 -32.845  1.00  0.00     0.069 A 
HETATM   24  O   UNL     1     -11.275   1.378 -34.650  1.00  0.00    -0.346 OA
HETATM   25  C   UNL     1     -12.596   1.772 -35.039  1.00  0.00     0.202 C 
HETATM   26  C   UNL     1     -12.741   3.285 -34.991  1.00  0.00     0.202 C 
ENDBRANCH  15  17
ENDBRANCH   1  15
TORSDOF 2
ENDMDL
MODEL 6
REMARK VINA RESULT:      -8.3      3.139      6.758
REMARK  2 active torsions:
REMARK  status: ('A' for Active; 'I' for Inactive)
REMARK    1  A    between atoms: C_2  and  N_3 
REMARK    2  A    between atoms: N_3  and  C_4 
ROOT
HETATM    1  C   UNL     1      -7.931   1.614 -32.276  1.00  0.00     0.143 A 
HETATM    2  N   UNL     1      -6.990   1.729 -31.306  1.00  0.00    -0.223 NA
HETATM    3  C   UNL     1      -7.209   2.528 -30.258  1.00  0.00     0.236 A 
HETATM    4  N   UNL     1      -8.281   3.280 -30.032  1.00  0.00    -0.234 NA
HETATM    5  C   UNL     1      -9.216   3.135 -30.983  1.00  0.00     0.114 A 
HETATM    6  C   UNL     1      -9.157   2.316 -32.103  1.00  0.00     0.053 A 
HETATM    7  S   UNL     1     -10.647   4.041 -30.891  1.00  0.00    -0.073 SA
HETATM    8  C   UNL     1     -11.270   3.337 -32.311  1.00  0.00    -0.008 C 
HETATM    9  C   UNL     1     -10.424   2.369 -32.837  1.00  0.00    -0.028 C 
HETATM   10  C   UNL     1     -10.818   1.511 -34.010  1.00  0.00     0.041 C 
HETATM   11  C   UNL     1     -12.142   0.764 -33.807  1.00  0.00     0.005 C 
HETATM   12  C   UNL     1     -13.393   1.626 -33.972  1.00  0.00     0.001 C 
HETATM   13  C   UNL     1     -13.626   2.640 -32.851  1.00  0.00     0.005 C 
HETATM   14  C   UNL     1     -12.607   3.777 -32.829  1.00  0.00     0.047 C 
ENDROOT
BRANCH   1  15
HETATM   15  N   UNL     1      -7.645   0.887 -33.445  1.00  0.00    -0.340 N 
HETATM   16  H   UNL     1      -7.845   1.428 -34.274  1.00  0.00     0.167 HD
BRANCH  15  17
HETATM   17  C   UNL     1      -6.756  -0.180 -33.684  1.00  0.00     0.036 A 
HETATM   18  C   UNL     1      -5.370  -0.086 -33.509  1.00  0.00     0.032 A 
HETATM   19  C   UNL     1      -4.532  -1.185 -33.733  1.00  0.00     0.042 A 
HETATM   20  C   UNL     1      -5.075  -2.406 -34.118  1.00  0.00     0.102 A 
HETATM   21  C   UNL     1      -6.454  -2.521 -34.297  1.00  0.00     0.104 A 
HETATM   22  O   UNL     1      -4.200  -3.443 -34.305  1.00  0.00    -0.346 OA
HETATM   23  C   UNL     1      -7.286  -1.426 -34.060  1.00  0.00     0.069 A 
HETATM   24  O   UNL     1      -7.064  -3.684 -34.699  1.00  0.00    -0.346 OA
HETATM   25  C   UNL     1      -6.115  -4.605 -35.249  1.00  0.00     0.202 C 
HETATM   26  C   UNL     1      -4.885  -4.700 -34.360  1.00  0.00     0.202 C 
ENDBRANCH  15  17
ENDBRANCH   1  15
TORSDOF 2
ENDMDL
MODEL 7
REMARK VINA RESULT:      -8.1      1.983      2.659
REMARK  2 active torsions:
REMARK  status: ('A' for Active; 'I' for Inactive)
REMARK    1  A    between atoms: C_2  and  N_3 
REMARK    2  A    between atoms: N_3  and  C_4 
ROOT
HETATM    1  C   UNL     1      -7.747   2.923 -34.087  1.00  0.00     0.143 A 
HETATM    2  N   UNL     1      -7.552   4.265 -34.062  1.00  0.00    -0.223 NA
HETATM    3  C   UNL     1      -6.457   4.768 -33.484  1.00  0.00     0.236 A 
HETATM    4  N   UNL     1      -5.484   4.091 -32.884  1.00  0.00    -0.234 NA
HETATM    5  C   UNL     1      -5.673   2.764 -32.942  1.00  0.00     0.114 A 
HETATM    6  C   UNL     1      -6.730   2.091 -33.541  1.00  0.00     0.053 A 
HETATM    7  S   UNL     1      -4.554   1.728 -32.199  1.00  0.00    -0.073 SA
HETATM    8  C   UNL     1      -5.404   0.337 -32.695  1.00  0.00    -0.008 C 
HETATM    9  C   UNL     1      -6.512   0.644 -33.473  1.00  0.00    -0.028 C 
HETATM   10  C   UNL     1      -7.341  -0.421 -34.142  1.00  0.00     0.041 C 
HETATM   11  C   UNL     1      -6.524  -1.368 -35.029  1.00  0.00     0.005 C 
HETATM   12  C   UNL     1      -5.721  -2.422 -34.268  1.00  0.00     0.001 C 
HETATM   13  C   UNL     1      -4.520  -1.878 -33.495  1.00  0.00     0.005 C 
HETATM   14  C   UNL     1      -4.901  -1.018 -32.292  1.00  0.00     0.047 C 
ENDROOT
BRANCH   1  15
HETATM   15  N   UNL     1      -8.962   2.402 -34.567  1.00  0.00    -0.340 N 
HETATM   16  H   UNL     1      -8.806   1.637 -35.209  1.00  0.00     0.167 HD
BRANCH  15  17
HETATM   17  C   UNL     1     -10.259   2.405 -34.017  1.00  0.00     0.036 A 
HETATM   18  C   UNL     1     -10.711   3.368 -33.106  1.00  0.00     0.032 A 
HETATM   19  C   UNL     1     -12.020   3.342 -32.610  1.00  0.00     0.042 A 
HETATM   20  C   UNL     1     -12.906   2.360 -33.038  1.00  0.00     0.102 A 
HETATM   21  C   UNL     1     -12.476   1.392 -33.946  1.00  0.00     0.104 A 
HETATM   22  O   UNL     1     -14.175   2.403 -32.525  1.00  0.00    -0.346 OA
HETATM   23  C   UNL     1     -11.174   1.429 -34.447  1.00  0.00     0.069 A 
HETATM   24  O   UNL     1     -13.282   0.376 -34.398  1.00  0.00    -0.346 OA
HETATM   25  C   UNL     1     -14.440   0.225 -33.568  1.00  0.00     0.202 C 
HETATM   26  C   UNL     1     -15.071   1.577 -33.277  1.00  0.00     0.202 C 
ENDBRANCH  15  17
ENDBRANCH   1  15
TORSDOF 2
ENDMDL
MODEL 8
REMARK VINA RESULT:      -7.9      3.360      6.415
REMARK  2 active torsions:
REMARK  status: ('A' for Active; 'I' for Inactive)
REMARK    1  A    between atoms: C_2  and  N_3 
REMARK    2  A    between atoms: N_3  and  C_4 
ROOT
HETATM    1  C   UNL     1      -7.692   1.837 -32.760  1.00  0.00     0.143 A 
HETATM    2  N   UNL     1      -8.870   1.462 -32.203  1.00  0.00    -0.223 NA
HETATM    3  C   UNL     1      -9.286   2.041 -31.073  1.00  0.00     0.236 A 
HETATM    4  N   UNL     1      -8.657   2.979 -30.374  1.00  0.00    -0.234 NA
HETATM    5  C   UNL     1      -7.509   3.363 -30.951  1.00  0.00     0.114 A 
HETATM    6  C   UNL     1      -6.966   2.892 -32.139  1.00  0.00     0.053 A 
HETATM    7  S   UNL     1      -6.542   4.530 -30.189  1.00  0.00    -0.073 SA
HETATM    8  C   UNL     1      -5.387   4.495 -31.441  1.00  0.00    -0.008 C 
HETATM    9  C   UNL     1      -5.751   3.639 -32.473  1.00  0.00    -0.028 C 
HETATM   10  C   UNL     1      -4.961   3.543 -33.751  1.00  0.00     0.041 C 
HETATM   11  C   UNL     1      -4.759   4.892 -34.451  1.00  0.00     0.005 C 
HETATM   12  C   UNL     1      -3.693   5.787 -33.819  1.00  0.00     0.001 C 
HETATM   13  C   UNL     1      -4.079   6.384 -32.465  1.00  0.00     0.005 C 
HETATM   14  C   UNL     1      -4.162   5.355 -31.340  1.00  0.00     0.047 C 
ENDROOT
BRANCH   1  15
HETATM   15  N   UNL     1      -7.186   1.132 -33.867  1.00  0.00    -0.340 N 
HETATM   16  H   UNL     1      -7.074   1.737 -34.668  1.00  0.00     0.167 HD
BRANCH  15  17
HETATM   17  C   UNL     1      -6.410  -0.041 -33.949  1.00  0.00     0.036 A 
HETATM   18  C   UNL     1      -5.080  -0.121 -33.520  1.00  0.00     0.032 A 
HETATM   19  C   UNL     1      -4.361  -1.320 -33.597  1.00  0.00     0.042 A 
HETATM   20  C   UNL     1      -4.973  -2.467 -34.088  1.00  0.00     0.102 A 
HETATM   21  C   UNL     1      -6.299  -2.409 -34.520  1.00  0.00     0.104 A 
HETATM   22  O   UNL     1      -4.218  -3.609 -34.122  1.00  0.00    -0.346 OA
HETATM   23  C   UNL     1      -7.016  -1.215 -34.429  1.00  0.00     0.069 A 
HETATM   24  O   UNL     1      -6.967  -3.491 -35.039  1.00  0.00    -0.346 OA
HETATM   25  C   UNL     1      -6.057  -4.531 -35.414  1.00  0.00     0.202 C 
HETATM   26  C   UNL     1      -5.034  -4.770 -34.315  1.00  0.00     0.202 C 
ENDBRANCH  15  17
ENDBRANCH   1  15
TORSDOF 2
ENDMDL
MODEL 9
REMARK VINA RESULT:      -7.9      3.209      6.566
REMARK  2 active torsions:
REMARK  status: ('A' for Active; 'I' for Inactive)
REMARK    1  A    between atoms: C_2  and  N_3 
REMARK    2  A    between atoms: N_3  and  C_4 
ROOT
HETATM    1  C   UNL     1      -6.123   1.710 -33.051  1.00  0.00     0.143 A 
HETATM    2  N   UNL     1      -5.027   1.897 -32.276  1.00  0.00    -0.223 NA
HETATM    3  C   UNL     1      -5.037   2.833 -31.322  1.00  0.00     0.236 A 
HETATM    4  N   UNL     1      -6.032   3.661 -31.022  1.00  0.00    -0.234 NA
HETATM    5  C   UNL     1      -7.122   3.446 -31.774  1.00  0.00     0.114 A 
HETATM    6  C   UNL     1      -7.280   2.490 -32.769  1.00  0.00     0.053 A 
HETATM    7  S   UNL     1      -8.488   4.429 -31.565  1.00  0.00    -0.073 SA
HETATM    8  C   UNL     1      -9.367   3.584 -32.754  1.00  0.00    -0.008 C 
HETATM    9  C   UNL     1      -8.653   2.516 -33.281  1.00  0.00    -0.028 C 
HETATM   10  C   UNL     1      -9.269   1.537 -34.247  1.00  0.00     0.041 C 
HETATM   11  C   UNL     1     -10.558   0.892 -33.727  1.00  0.00     0.005 C 
HETATM   12  C   UNL     1     -11.794   1.789 -33.794  1.00  0.00     0.001 C 
HETATM   13  C   UNL     1     -11.800   2.946 -32.794  1.00  0.00     0.005 C 
HETATM   14  C   UNL     1     -10.760   4.023 -33.094  1.00  0.00     0.047 C 
ENDROOT
BRANCH   1  15
HETATM   15  N   UNL     1      -6.065   0.827 -34.144  1.00  0.00    -0.340 N 
HETATM   16  H   UNL     1      -5.693   1.282 -34.965  1.00  0.00     0.167 HD
BRANCH  15  17
HETATM   17  C   UNL     1      -5.974  -0.578 -34.202  1.00  0.00     0.036 A 
HETATM   18  C   UNL     1      -6.974  -1.396 -34.742  1.00  0.00     0.032 A 
HETATM   19  C   UNL     1      -6.822  -2.786 -34.802  1.00  0.00     0.042 A 
HETATM   20  C   UNL     1      -5.652  -3.379 -34.339  1.00  0.00     0.102 A 
HETATM   21  C   UNL     1      -4.643  -2.581 -33.799  1.00  0.00     0.104 A 
HETATM   22  O   UNL     1      -5.563  -4.742 -34.442  1.00  0.00    -0.346 OA
HETATM   23  C   UNL     1      -4.794  -1.194 -33.753  1.00  0.00     0.069 A 
HETATM   24  O   UNL     1      -3.470  -3.090 -33.299  1.00  0.00    -0.346 OA
HETATM   25  C   UNL     1      -3.573  -4.500 -33.068  1.00  0.00     0.202 C 
HETATM   26  C   UNL     1      -4.216  -5.192 -34.260  1.00  0.00     0.202 C 
ENDBRANCH  15  17
ENDBRANCH   1  15
TORSDOF 2
ENDMDL
MODEL 10
REMARK VINA RESULT:      -7.8      3.622      6.625
REMARK  2 active torsions:
REMARK  status: ('A' for Active; 'I' for Inactive)
REMARK    1  A    between atoms: C_2  and  N_3 
REMARK    2  A    between atoms: N_3  and  C_4 
ROOT
HETATM    1  C   UNL     1      -5.808   3.248 -31.207  1.00  0.00     0.143 A 
HETATM    2  N   UNL     1      -7.136   3.178 -30.944  1.00  0.00    -0.223 NA
HETATM    3  C   UNL     1      -7.878   4.290 -30.960  1.00  0.00     0.236 A 
HETATM    4  N   UNL     1      -7.461   5.528 -31.200  1.00  0.00    -0.234 NA
HETATM    5  C   UNL     1      -6.152   5.581 -31.488  1.00  0.00     0.114 A 
HETATM    6  C   UNL     1      -5.263   4.516 -31.554  1.00  0.00     0.053 A 
HETATM    7  S   UNL     1      -5.423   7.082 -31.790  1.00  0.00    -0.073 SA
HETATM    8  C   UNL     1      -3.904   6.368 -32.076  1.00  0.00    -0.008 C 
HETATM    9  C   UNL     1      -3.947   4.982 -31.999  1.00  0.00    -0.028 C 
HETATM   10  C   UNL     1      -2.761   4.122 -32.349  1.00  0.00     0.041 C 
HETATM   11  C   UNL     1      -2.200   4.392 -33.750  1.00  0.00     0.005 C 
HETATM   12  C   UNL     1      -1.357   5.662 -33.868  1.00  0.00     0.001 C 
HETATM   13  C   UNL     1      -2.149   6.967 -33.777  1.00  0.00     0.005 C 
HETATM   14  C   UNL     1      -2.725   7.242 -32.390  1.00  0.00     0.047 C 
ENDROOT
BRANCH   1  15
HETATM   15  N   UNL     1      -5.003   2.105 -31.052  1.00  0.00    -0.340 N 
HETATM   16  H   UNL     1      -4.843   1.897 -30.076  1.00  0.00     0.167 HD
BRANCH  15  17
HETATM   17  C   UNL     1      -4.786   0.998 -31.895  1.00  0.00     0.036 A 
HETATM   18  C   UNL     1      -3.515   0.547 -32.269  1.00  0.00     0.032 A 
HETATM   19  C   UNL     1      -3.353  -0.577 -33.087  1.00  0.00     0.042 A 
HETATM   20  C   UNL     1      -4.467  -1.282 -33.529  1.00  0.00     0.102 A 
HETATM   21  C   UNL     1      -5.744  -0.849 -33.167  1.00  0.00     0.104 A 
HETATM   22  O   UNL     1      -4.237  -2.381 -34.314  1.00  0.00    -0.346 OA
HETATM   23  C   UNL     1      -5.899   0.264 -32.340  1.00  0.00     0.069 A 
HETATM   24  O   UNL     1      -6.894  -1.475 -33.581  1.00  0.00    -0.346 OA
HETATM   25  C   UNL     1      -6.638  -2.353 -34.684  1.00  0.00     0.202 C 
HETATM   26  C   UNL     1      -5.406  -3.202 -34.418  1.00  0.00     0.202 C 
ENDBRANCH  15  17
ENDBRANCH   1  15
TORSDOF 2
ENDMDL
