MODEL 1
REMARK VINA RESULT:      -7.8      0.000      0.000
REMARK  8 active torsions:
REMARK  status: ('A' for Active; 'I' for Inactive)
REMARK    1  A    between atoms: C_2  and  N_3 
REMARK    2  A    between atoms: C_2  and  C_17 
REMARK    3  A    between atoms: N_3  and  N_4 
REMARK       I    between atoms: N_4  and  C_5 
REMARK    4  A    between atoms: C_5  and  C_6 
REMARK    5  A    between atoms: C_6  and  N_7 
REMARK    6  A    between atoms: N_7  and  C_8 
REMARK    7  A    between atoms: C_9  and  O_10 
REMARK       I    between atoms: C_17  and  N_18 
REMARK    8  A    between atoms: N_18  and  C_19 
ROOT
HETATM    1  N   UNL     1      -5.499   0.550 -30.530  1.00  0.00    -0.225 NA
HETATM    2  H   UNL     1      -6.345   0.347 -29.977  1.00  0.00     0.147 HD
ENDROOT
BRANCH   1   3
HETATM    3  C   UNL     1      -5.114   1.949 -30.180  1.00  0.00     0.165 C 
HETATM    4  C   UNL     1      -6.207   2.976 -30.469  1.00  0.00     0.038 C 
BRANCH   3   5
HETATM    5  C   UNL     1      -3.852   2.333 -30.998  1.00  0.00     0.241 C 
HETATM    6  N   UNL     1      -3.745   3.699 -31.207  1.00  0.00    -0.326 N 
HETATM    7  H   UNL     1      -4.526   4.231 -30.829  1.00  0.00     0.169 HD
HETATM    8  O   UNL     1      -3.049   1.481 -31.366  1.00  0.00    -0.271 OA
BRANCH   6   9
HETATM    9  C   UNL     1      -2.760   4.407 -31.916  1.00  0.00     0.036 A 
HETATM   10  C   UNL     1      -1.736   5.138 -31.311  1.00  0.00     0.053 A 
HETATM   11  C   UNL     1      -0.797   5.804 -32.102  1.00  0.00     0.036 A 
HETATM   12 CL   UNL     1       0.460   6.714 -31.353  1.00  0.00    -0.084 Cl
HETATM   13  C   UNL     1      -0.861   5.745 -33.493  1.00  0.00     0.024 A 
HETATM   14  C   UNL     1      -1.881   5.020 -34.102  1.00  0.00     0.004 A 
HETATM   15  C   UNL     1      -2.829   4.360 -33.316  1.00  0.00     0.029 A 
ENDBRANCH   6   9
ENDBRANCH   3   5
ENDBRANCH   1   3
BRANCH   1  16
HETATM   16  N   UNL     1      -5.867   0.404 -31.891  1.00  0.00    -0.290 N 
HETATM   17  C   UNL     1      -7.185   0.091 -32.217  1.00  0.00     0.245 C 
HETATM   18  O   UNL     1      -8.126   0.194 -31.433  1.00  0.00    -0.271 OA
HETATM   19  H   UNL     1      -5.180   0.012 -32.546  1.00  0.00     0.183 HD
BRANCH  17  20
HETATM   20  C   UNL     1      -7.337  -0.390 -33.664  1.00  0.00     0.196 C 
BRANCH  20  21
HETATM   21  N   UNL     1      -6.033  -0.751 -34.249  1.00  0.00    -0.282 NA
HETATM   22  H   UNL     1      -5.850  -0.281 -35.140  1.00  0.00     0.128 HD
BRANCH  21  23
HETATM   23  C   UNL     1      -5.704  -2.118 -34.412  1.00  0.00     0.042 A 
HETATM   24  C   UNL     1      -4.510  -2.597 -33.819  1.00  0.00     0.089 A 
HETATM   25  C   UNL     1      -4.190  -3.959 -33.870  1.00  0.00     0.038 A 
HETATM   26  C   UNL     1      -5.058  -4.860 -34.487  1.00  0.00     0.003 A 
HETATM   27  C   UNL     1      -6.246  -4.406 -35.048  1.00  0.00     0.002 A 
HETATM   28  C   UNL     1      -6.572  -3.048 -35.001  1.00  0.00     0.026 A 
BRANCH  24  29
HETATM   29  O   UNL     1      -3.718  -1.630 -33.239  1.00  0.00    -0.354 OA
HETATM   30  C   UNL     1      -3.124  -1.950 -31.987  1.00  0.00     0.210 C 
ENDBRANCH  24  29
ENDBRANCH  21  23
ENDBRANCH  20  21
ENDBRANCH  17  20
ENDBRANCH   1  16
TORSDOF 8
ENDMDL
MODEL 2
REMARK VINA RESULT:      -7.8      3.324      7.810
REMARK  8 active torsions:
REMARK  status: ('A' for Active; 'I' for Inactive)
REMARK    1  A    between atoms: C_2  and  N_3 
REMARK    2  A    between atoms: C_2  and  C_17 
REMARK    3  A    between atoms: N_3  and  N_4 
REMARK       I    between atoms: N_4  and  C_5 
REMARK    4  A    between atoms: C_5  and  C_6 
REMARK    5  A    between atoms: C_6  and  N_7 
REMARK    6  A    between atoms: N_7  and  C_8 
REMARK    7  A    between atoms: C_9  and  O_10 
REMARK       I    between atoms: C_17  and  N_18 
REMARK    8  A    between atoms: N_18  and  C_19 
ROOT
HETATM    1  N   UNL     1      -6.899   3.002 -32.149  1.00  0.00    -0.225 NA
HETATM    2  H   UNL     1      -7.080   2.998 -31.135  1.00  0.00     0.147 HD
ENDROOT
BRANCH   1   3
HETATM    3  C   UNL     1      -7.870   2.034 -32.738  1.00  0.00     0.165 C 
HETATM    4  C   UNL     1      -8.645   1.233 -31.694  1.00  0.00     0.038 C 
BRANCH   3   5
HETATM    5  C   UNL     1      -7.092   1.040 -33.640  1.00  0.00     0.241 C 
HETATM    6  N   UNL     1      -6.882  -0.187 -33.029  1.00  0.00    -0.326 N 
HETATM    7  H   UNL     1      -7.233  -0.231 -32.075  1.00  0.00     0.169 HD
HETATM    8  O   UNL     1      -6.752   1.346 -34.779  1.00  0.00    -0.271 OA
BRANCH   6   9
HETATM    9  C   UNL     1      -6.202  -1.313 -33.523  1.00  0.00     0.036 A 
HETATM   10  C   UNL     1      -6.805  -2.317 -34.283  1.00  0.00     0.053 A 
HETATM   11  C   UNL     1      -6.044  -3.396 -34.737  1.00  0.00     0.036 A 
HETATM   12 CL   UNL     1      -6.791  -4.640 -35.666  1.00  0.00    -0.084 Cl
HETATM   13  C   UNL     1      -4.683  -3.485 -34.449  1.00  0.00     0.024 A 
HETATM   14  C   UNL     1      -4.077  -2.488 -33.689  1.00  0.00     0.004 A 
HETATM   15  C   UNL     1      -4.836  -1.411 -33.224  1.00  0.00     0.029 A 
ENDBRANCH   6   9
ENDBRANCH   3   5
ENDBRANCH   1   3
BRANCH   1  16
HETATM   16  N   UNL     1      -5.550   2.599 -32.315  1.00  0.00    -0.290 N 
HETATM   17  C   UNL     1      -4.751   2.393 -31.192  1.00  0.00     0.245 C 
HETATM   18  O   UNL     1      -5.193   2.271 -30.052  1.00  0.00    -0.271 OA
HETATM   19  H   UNL     1      -5.029   2.948 -33.128  1.00  0.00     0.183 HD
BRANCH  17  20
HETATM   20  C   UNL     1      -3.258   2.328 -31.533  1.00  0.00     0.196 C 
BRANCH  20  21
HETATM   21  N   UNL     1      -2.567   3.575 -31.156  1.00  0.00    -0.282 NA
HETATM   22  H   UNL     1      -3.068   4.110 -30.442  1.00  0.00     0.128 HD
BRANCH  21  23
HETATM   23  C   UNL     1      -2.173   4.480 -32.170  1.00  0.00     0.042 A 
HETATM   24  C   UNL     1      -1.351   5.577 -31.809  1.00  0.00     0.089 A 
HETATM   25  C   UNL     1      -0.857   6.444 -32.791  1.00  0.00     0.038 A 
HETATM   26  C   UNL     1      -1.152   6.222 -34.135  1.00  0.00     0.003 A 
HETATM   27  C   UNL     1      -1.933   5.133 -34.504  1.00  0.00     0.002 A 
HETATM   28  C   UNL     1      -2.430   4.263 -33.531  1.00  0.00     0.026 A 
BRANCH  24  29
HETATM   29  O   UNL     1      -1.122   5.714 -30.458  1.00  0.00    -0.354 OA
HETATM   30  C   UNL     1       0.195   5.436 -29.997  1.00  0.00     0.210 C 
ENDBRANCH  24  29
ENDBRANCH  21  23
ENDBRANCH  20  21
ENDBRANCH  17  20
ENDBRANCH   1  16
TORSDOF 8
ENDMDL
MODEL 3
REMARK VINA RESULT:      -7.5      2.903      4.315
REMARK  8 active torsions:
REMARK  status: ('A' for Active; 'I' for Inactive)
REMARK    1  A    between atoms: C_2  and  N_3 
REMARK    2  A    between atoms: C_2  and  C_17 
REMARK    3  A    between atoms: N_3  and  N_4 
REMARK       I    between atoms: N_4  and  C_5 
REMARK    4  A    between atoms: C_5  and  C_6 
REMARK    5  A    between atoms: C_6  and  N_7 
REMARK    6  A    between atoms: N_7  and  C_8 
REMARK    7  A    between atoms: C_9  and  O_10 
REMARK       I    between atoms: C_17  and  N_18 
REMARK    8  A    between atoms: N_18  and  C_19 
ROOT
HETATM    1  N   UNL     1      -2.347   3.784 -31.162  1.00  0.00    -0.225 NA
HETATM    2  H   UNL     1      -2.141   4.152 -30.221  1.00  0.00     0.147 HD
ENDROOT
BRANCH   1   3
HETATM    3  C   UNL     1      -2.384   4.975 -32.061  1.00  0.00     0.165 C 
HETATM    4  C   UNL     1      -1.837   4.703 -33.461  1.00  0.00     0.038 C 
BRANCH   3   5
HETATM    5  C   UNL     1      -1.540   6.107 -31.417  1.00  0.00     0.241 C 
HETATM    6  N   UNL     1      -1.402   5.957 -30.045  1.00  0.00    -0.326 N 
HETATM    7  H   UNL     1      -1.906   5.157 -29.671  1.00  0.00     0.169 HD
HETATM    8  O   UNL     1      -1.042   6.997 -32.100  1.00  0.00    -0.271 OA
BRANCH   6   9
HETATM    9  C   UNL     1      -0.735   6.790 -29.131  1.00  0.00     0.036 A 
HETATM   10  C   UNL     1      -1.111   8.105 -28.856  1.00  0.00     0.053 A 
HETATM   11  C   UNL     1      -0.390   8.854 -27.924  1.00  0.00     0.036 A 
HETATM   12 CL   UNL     1      -0.850  10.481 -27.592  1.00  0.00    -0.084 Cl
HETATM   13  C   UNL     1       0.703   8.305 -27.255  1.00  0.00     0.024 A 
HETATM   14  C   UNL     1       1.086   6.995 -27.528  1.00  0.00     0.004 A 
HETATM   15  C   UNL     1       0.373   6.244 -28.467  1.00  0.00     0.029 A 
ENDBRANCH   6   9
ENDBRANCH   3   5
ENDBRANCH   1   3
BRANCH   1  16
HETATM   16  N   UNL     1      -3.598   3.125 -31.068  1.00  0.00    -0.290 N 
HETATM   17  C   UNL     1      -3.657   1.740 -31.203  1.00  0.00     0.245 C 
HETATM   18  O   UNL     1      -2.676   1.003 -31.130  1.00  0.00    -0.271 OA
HETATM   19  H   UNL     1      -4.434   3.606 -31.421  1.00  0.00     0.183 HD
BRANCH  17  20
HETATM   20  C   UNL     1      -5.082   1.230 -31.447  1.00  0.00     0.196 C 
BRANCH  20  21
HETATM   21  N   UNL     1      -5.134  -0.243 -31.434  1.00  0.00    -0.282 NA
HETATM   22  H   UNL     1      -4.318  -0.668 -30.987  1.00  0.00     0.128 HD
BRANCH  21  23
HETATM   23  C   UNL     1      -5.369  -0.936 -32.645  1.00  0.00     0.042 A 
HETATM   24  C   UNL     1      -4.421  -1.905 -33.060  1.00  0.00     0.089 A 
HETATM   25  C   UNL     1      -4.656  -2.683 -34.199  1.00  0.00     0.038 A 
HETATM   26  C   UNL     1      -5.838  -2.528 -34.923  1.00  0.00     0.003 A 
HETATM   27  C   UNL     1      -6.788  -1.601 -34.510  1.00  0.00     0.002 A 
HETATM   28  C   UNL     1      -6.560  -0.820 -33.374  1.00  0.00     0.026 A 
BRANCH  24  29
HETATM   29  O   UNL     1      -3.285  -1.978 -32.283  1.00  0.00    -0.354 OA
HETATM   30  C   UNL     1      -2.908  -3.268 -31.816  1.00  0.00     0.210 C 
ENDBRANCH  24  29
ENDBRANCH  21  23
ENDBRANCH  20  21
ENDBRANCH  17  20
ENDBRANCH   1  16
TORSDOF 8
ENDMDL
MODEL 4
REMARK VINA RESULT:      -7.5      3.355      7.409
REMARK  8 active torsions:
REMARK  status: ('A' for Active; 'I' for Inactive)
REMARK    1  A    between atoms: C_2  and  N_3 
REMARK    2  A    between atoms: C_2  and  C_17 
REMARK    3  A    between atoms: N_3  and  N_4 
REMARK       I    between atoms: N_4  and  C_5 
REMARK    4  A    between atoms: C_5  and  C_6 
REMARK    5  A    between atoms: C_6  and  N_7 
REMARK    6  A    between atoms: N_7  and  C_8 
REMARK    7  A    between atoms: C_9  and  O_10 
REMARK       I    between atoms: C_17  and  N_18 
REMARK    8  A    between atoms: N_18  and  C_19 
ROOT
HETATM    1  N   UNL     1      -8.315   2.218 -31.596  1.00  0.00    -0.225 NA
HETATM    2  H   UNL     1      -8.249   1.327 -31.083  1.00  0.00     0.147 HD
ENDROOT
BRANCH   1   3
HETATM    3  C   UNL     1      -8.744   1.857 -32.979  1.00  0.00     0.165 C 
HETATM    4  C   UNL     1      -9.991   0.978 -33.024  1.00  0.00     0.038 C 
BRANCH   3   5
HETATM    5  C   UNL     1      -7.582   1.097 -33.673  1.00  0.00     0.241 C 
HETATM    6  N   UNL     1      -7.498  -0.229 -33.277  1.00  0.00    -0.326 N 
HETATM    7  H   UNL     1      -8.180  -0.485 -32.567  1.00  0.00     0.169 HD
HETATM    8  O   UNL     1      -6.866   1.649 -34.504  1.00  0.00    -0.271 OA
BRANCH   6   9
HETATM    9  C   UNL     1      -6.569  -1.208 -33.669  1.00  0.00     0.036 A 
HETATM   10  C   UNL     1      -6.901  -2.348 -34.403  1.00  0.00     0.053 A 
HETATM   11  C   UNL     1      -5.905  -3.262 -34.753  1.00  0.00     0.036 A 
HETATM   12 CL   UNL     1      -6.318  -4.675 -35.650  1.00  0.00    -0.084 Cl
HETATM   13  C   UNL     1      -4.577  -3.052 -34.385  1.00  0.00     0.024 A 
HETATM   14  C   UNL     1      -4.241  -1.918 -33.651  1.00  0.00     0.004 A 
HETATM   15  C   UNL     1      -5.235  -1.005 -33.290  1.00  0.00     0.029 A 
ENDBRANCH   6   9
ENDBRANCH   3   5
ENDBRANCH   1   3
BRANCH   1  16
HETATM   16  N   UNL     1      -7.023   2.800 -31.553  1.00  0.00    -0.290 N 
HETATM   17  C   UNL     1      -6.673   3.618 -30.481  1.00  0.00     0.245 C 
HETATM   18  O   UNL     1      -7.298   3.666 -29.424  1.00  0.00    -0.271 OA
HETATM   19  H   UNL     1      -6.578   3.073 -32.438  1.00  0.00     0.183 HD
BRANCH  17  20
HETATM   20  C   UNL     1      -5.415   4.450 -30.759  1.00  0.00     0.196 C 
BRANCH  20  21
HETATM   21  N   UNL     1      -4.433   3.688 -31.553  1.00  0.00    -0.282 NA
HETATM   22  H   UNL     1      -3.681   3.290 -30.983  1.00  0.00     0.128 HD
BRANCH  21  23
HETATM   23  C   UNL     1      -3.838   4.297 -32.683  1.00  0.00     0.042 A 
HETATM   24  C   UNL     1      -2.429   4.447 -32.702  1.00  0.00     0.089 A 
HETATM   25  C   UNL     1      -1.786   4.955 -33.836  1.00  0.00     0.038 A 
HETATM   26  C   UNL     1      -2.526   5.296 -34.968  1.00  0.00     0.003 A 
HETATM   27  C   UNL     1      -3.906   5.126 -34.973  1.00  0.00     0.002 A 
HETATM   28  C   UNL     1      -4.555   4.620 -33.844  1.00  0.00     0.026 A 
BRANCH  24  29
HETATM   29  O   UNL     1      -1.789   4.088 -31.536  1.00  0.00    -0.354 OA
HETATM   30  C   UNL     1      -0.939   5.062 -30.942  1.00  0.00     0.210 C 
ENDBRANCH  24  29
ENDBRANCH  21  23
ENDBRANCH  20  21
ENDBRANCH  17  20
ENDBRANCH   1  16
TORSDOF 8
ENDMDL
MODEL 5
REMARK VINA RESULT:      -7.4      2.118      2.907
REMARK  8 active torsions:
REMARK  status: ('A' for Active; 'I' for Inactive)
REMARK    1  A    between atoms: C_2  and  N_3 
REMARK    2  A    between atoms: C_2  and  C_17 
REMARK    3  A    between atoms: N_3  and  N_4 
REMARK       I    between atoms: N_4  and  C_5 
REMARK    4  A    between atoms: C_5  and  C_6 
REMARK    5  A    between atoms: C_6  and  N_7 
REMARK    6  A    between atoms: N_7  and  C_8 
REMARK    7  A    between atoms: C_9  and  O_10 
REMARK       I    between atoms: C_17  and  N_18 
REMARK    8  A    between atoms: N_18  and  C_19 
ROOT
HETATM    1  N   UNL     1      -5.435   3.797 -28.913  1.00  0.00    -0.225 NA
HETATM    2  H   UNL     1      -5.688   3.638 -27.926  1.00  0.00     0.147 HD
ENDROOT
BRANCH   1   3
HETATM    3  C   UNL     1      -6.010   5.128 -29.267  1.00  0.00     0.165 C 
HETATM    4  C   UNL     1      -7.468   5.065 -29.717  1.00  0.00     0.038 C 
BRANCH   3   5
HETATM    5  C   UNL     1      -5.168   5.739 -30.419  1.00  0.00     0.241 C 
HETATM    6  N   UNL     1      -3.822   5.424 -30.323  1.00  0.00    -0.326 N 
HETATM    7  H   UNL     1      -3.590   4.879 -29.496  1.00  0.00     0.169 HD
HETATM    8  O   UNL     1      -5.694   6.396 -31.313  1.00  0.00    -0.271 OA
BRANCH   6   9
HETATM    9  C   UNL     1      -2.763   5.815 -31.161  1.00  0.00     0.036 A 
HETATM   10  C   UNL     1      -2.604   5.371 -32.474  1.00  0.00     0.053 A 
HETATM   11  C   UNL     1      -1.522   5.823 -33.234  1.00  0.00     0.036 A 
HETATM   12 CL   UNL     1      -1.321   5.266 -34.852  1.00  0.00    -0.084 Cl
HETATM   13  C   UNL     1      -0.597   6.719 -32.701  1.00  0.00     0.024 A 
HETATM   14  C   UNL     1      -0.749   7.163 -31.390  1.00  0.00     0.004 A 
HETATM   15  C   UNL     1      -1.825   6.707 -30.623  1.00  0.00     0.029 A 
ENDBRANCH   6   9
ENDBRANCH   3   5
ENDBRANCH   1   3
BRANCH   1  16
HETATM   16  N   UNL     1      -6.013   2.733 -29.650  1.00  0.00    -0.290 N 
HETATM   17  C   UNL     1      -5.319   2.188 -30.728  1.00  0.00     0.245 C 
HETATM   18  O   UNL     1      -4.121   2.372 -30.934  1.00  0.00    -0.271 OA
HETATM   19  H   UNL     1      -7.032   2.715 -29.769  1.00  0.00     0.183 HD
BRANCH  17  20
HETATM   20  C   UNL     1      -6.211   1.326 -31.629  1.00  0.00     0.196 C 
BRANCH  20  21
HETATM   21  N   UNL     1      -5.619   1.161 -32.970  1.00  0.00    -0.282 NA
HETATM   22  H   UNL     1      -5.985   1.830 -33.653  1.00  0.00     0.128 HD
BRANCH  21  23
HETATM   23  C   UNL     1      -5.627  -0.117 -33.575  1.00  0.00     0.042 A 
HETATM   24  C   UNL     1      -4.440  -0.891 -33.527  1.00  0.00     0.089 A 
HETATM   25  C   UNL     1      -4.427  -2.198 -34.027  1.00  0.00     0.038 A 
HETATM   26  C   UNL     1      -5.589  -2.758 -34.557  1.00  0.00     0.003 A 
HETATM   27  C   UNL     1      -6.766  -2.019 -34.584  1.00  0.00     0.002 A 
HETATM   28  C   UNL     1      -6.787  -0.714 -34.087  1.00  0.00     0.026 A 
BRANCH  24  29
HETATM   29  O   UNL     1      -3.347  -0.248 -32.990  1.00  0.00    -0.354 OA
HETATM   30  C   UNL     1      -2.747  -0.844 -31.846  1.00  0.00     0.210 C 
ENDBRANCH  24  29
ENDBRANCH  21  23
ENDBRANCH  20  21
ENDBRANCH  17  20
ENDBRANCH   1  16
TORSDOF 8
ENDMDL
MODEL 6
REMARK VINA RESULT:      -7.3      4.942      8.111
REMARK  8 active torsions:
REMARK  status: ('A' for Active; 'I' for Inactive)
REMARK    1  A    between atoms: C_2  and  N_3 
REMARK    2  A    between atoms: C_2  and  C_17 
REMARK    3  A    between atoms: N_3  and  N_4 
REMARK       I    between atoms: N_4  and  C_5 
REMARK    4  A    between atoms: C_5  and  C_6 
REMARK    5  A    between atoms: C_6  and  N_7 
REMARK    6  A    between atoms: N_7  and  C_8 
REMARK    7  A    between atoms: C_9  and  O_10 
REMARK       I    between atoms: C_17  and  N_18 
REMARK    8  A    between atoms: N_18  and  C_19 
ROOT
HETATM    1  N   UNL     1      -7.388   1.984 -31.696  1.00  0.00    -0.225 NA
HETATM    2  H   UNL     1      -7.244   2.908 -31.264  1.00  0.00     0.147 HD
ENDROOT
BRANCH   1   3
HETATM    3  C   UNL     1      -6.098   1.647 -32.368  1.00  0.00     0.165 C 
HETATM    4  C   UNL     1      -6.021   2.120 -33.818  1.00  0.00     0.038 C 
BRANCH   3   5
HETATM    5  C   UNL     1      -5.917   0.106 -32.345  1.00  0.00     0.241 C 
HETATM    6  N   UNL     1      -5.840  -0.443 -33.615  1.00  0.00    -0.326 N 
HETATM    7  H   UNL     1      -5.954   0.239 -34.361  1.00  0.00     0.169 HD
HETATM    8  O   UNL     1      -5.823  -0.508 -31.286  1.00  0.00    -0.271 OA
BRANCH   6   9
HETATM    9  C   UNL     1      -5.703  -1.792 -33.985  1.00  0.00     0.036 A 
HETATM   10  C   UNL     1      -4.544  -2.542 -33.781  1.00  0.00     0.053 A 
HETATM   11  C   UNL     1      -4.504  -3.881 -34.176  1.00  0.00     0.036 A 
HETATM   12 CL   UNL     1      -3.069  -4.804 -33.933  1.00  0.00    -0.084 Cl
HETATM   13  C   UNL     1      -5.611  -4.487 -34.769  1.00  0.00     0.024 A 
HETATM   14  C   UNL     1      -6.769  -3.742 -34.978  1.00  0.00     0.004 A 
HETATM   15  C   UNL     1      -6.810  -2.400 -34.593  1.00  0.00     0.029 A 
ENDBRANCH   6   9
ENDBRANCH   3   5
ENDBRANCH   1   3
BRANCH   1  16
HETATM   16  N   UNL     1      -8.462   2.132 -32.609  1.00  0.00    -0.290 N 
HETATM   17  C   UNL     1      -9.409   1.117 -32.727  1.00  0.00     0.245 C 
HETATM   18  O   UNL     1      -9.544   0.209 -31.909  1.00  0.00    -0.271 OA
HETATM   19  H   UNL     1      -8.295   2.639 -33.486  1.00  0.00     0.183 HD
BRANCH  17  20
HETATM   20  C   UNL     1     -10.270   1.257 -33.987  1.00  0.00     0.196 C 
BRANCH  20  21
HETATM   21  N   UNL     1     -11.295   2.304 -33.823  1.00  0.00    -0.282 NA
HETATM   22  H   UNL     1     -11.061   2.982 -33.093  1.00  0.00     0.128 HD
BRANCH  21  23
HETATM   23  C   UNL     1     -12.646   1.925 -33.637  1.00  0.00     0.042 A 
HETATM   24  C   UNL     1     -13.443   2.690 -32.749  1.00  0.00     0.089 A 
HETATM   25  C   UNL     1     -14.808   2.413 -32.606  1.00  0.00     0.038 A 
HETATM   26  C   UNL     1     -15.399   1.396 -33.354  1.00  0.00     0.003 A 
HETATM   27  C   UNL     1     -14.634   0.658 -34.250  1.00  0.00     0.002 A 
HETATM   28  C   UNL     1     -13.272   0.928 -34.398  1.00  0.00     0.026 A 
BRANCH  24  29
HETATM   29  O   UNL     1     -12.766   3.666 -32.053  1.00  0.00    -0.354 OA
HETATM   30  C   UNL     1     -13.317   4.065 -30.804  1.00  0.00     0.210 C 
ENDBRANCH  24  29
ENDBRANCH  21  23
ENDBRANCH  20  21
ENDBRANCH  17  20
ENDBRANCH   1  16
TORSDOF 8
ENDMDL
MODEL 7
REMARK VINA RESULT:      -7.2      3.088      8.357
REMARK  8 active torsions:
REMARK  status: ('A' for Active; 'I' for Inactive)
REMARK    1  A    between atoms: C_2  and  N_3 
REMARK    2  A    between atoms: C_2  and  C_17 
REMARK    3  A    between atoms: N_3  and  N_4 
REMARK       I    between atoms: N_4  and  C_5 
REMARK    4  A    between atoms: C_5  and  C_6 
REMARK    5  A    between atoms: C_6  and  N_7 
REMARK    6  A    between atoms: N_7  and  C_8 
REMARK    7  A    between atoms: C_9  and  O_10 
REMARK       I    between atoms: C_17  and  N_18 
REMARK    8  A    between atoms: N_18  and  C_19 
ROOT
HETATM    1  N   UNL     1      -6.274   2.476 -33.654  1.00  0.00    -0.225 NA
HETATM    2  H   UNL     1      -6.731   3.368 -33.413  1.00  0.00     0.147 HD
ENDROOT
BRANCH   1   3
HETATM    3  C   UNL     1      -7.317   1.425 -33.465  1.00  0.00     0.165 C 
HETATM    4  C   UNL     1      -7.473   0.970 -32.015  1.00  0.00     0.038 C 
BRANCH   3   5
HETATM    5  C   UNL     1      -6.938   0.192 -34.327  1.00  0.00     0.241 C 
HETATM    6  N   UNL     1      -6.593  -0.911 -33.562  1.00  0.00    -0.326 N 
HETATM    7  H   UNL     1      -6.603  -0.731 -32.561  1.00  0.00     0.169 HD
HETATM    8  O   UNL     1      -6.988   0.233 -35.553  1.00  0.00    -0.271 OA
BRANCH   6   9
HETATM    9  C   UNL     1      -6.175  -2.183 -33.989  1.00  0.00     0.036 A 
HETATM   10  C   UNL     1      -4.906  -2.710 -33.743  1.00  0.00     0.053 A 
HETATM   11  C   UNL     1      -4.584  -3.989 -34.201  1.00  0.00     0.036 A 
HETATM   12 CL   UNL     1      -3.013  -4.634 -33.907  1.00  0.00    -0.084 Cl
HETATM   13  C   UNL     1      -5.516  -4.757 -34.898  1.00  0.00     0.024 A 
HETATM   14  C   UNL     1      -6.782  -4.236 -35.148  1.00  0.00     0.004 A 
HETATM   15  C   UNL     1      -7.106  -2.952 -34.700  1.00  0.00     0.029 A 
ENDBRANCH   6   9
ENDBRANCH   3   5
ENDBRANCH   1   3
BRANCH   1  16
HETATM   16  N   UNL     1      -5.181   2.334 -32.762  1.00  0.00    -0.290 N 
HETATM   17  C   UNL     1      -4.688   3.453 -32.096  1.00  0.00     0.245 C 
HETATM   18  O   UNL     1      -5.293   4.519 -32.009  1.00  0.00    -0.271 OA
HETATM   19  H   UNL     1      -4.460   1.635 -32.977  1.00  0.00     0.183 HD
BRANCH  17  20
HETATM   20  C   UNL     1      -3.307   3.211 -31.475  1.00  0.00     0.196 C 
BRANCH  20  21
HETATM   21  N   UNL     1      -2.227   3.603 -32.399  1.00  0.00    -0.282 NA
HETATM   22  H   UNL     1      -1.392   3.018 -32.310  1.00  0.00     0.128 HD
BRANCH  21  23
HETATM   23  C   UNL     1      -1.802   4.952 -32.432  1.00  0.00     0.042 A 
HETATM   24  C   UNL     1      -1.980   5.685 -33.632  1.00  0.00     0.089 A 
HETATM   25  C   UNL     1      -1.664   7.047 -33.683  1.00  0.00     0.038 A 
HETATM   26  C   UNL     1      -1.193   7.701 -32.545  1.00  0.00     0.003 A 
HETATM   27  C   UNL     1      -1.041   7.001 -31.354  1.00  0.00     0.002 A 
HETATM   28  C   UNL     1      -1.354   5.640 -31.295  1.00  0.00     0.026 A 
BRANCH  24  29
HETATM   29  O   UNL     1      -2.444   4.949 -34.699  1.00  0.00    -0.354 OA
HETATM   30  C   UNL     1      -3.745   5.265 -35.181  1.00  0.00     0.210 C 
ENDBRANCH  24  29
ENDBRANCH  21  23
ENDBRANCH  20  21
ENDBRANCH  17  20
ENDBRANCH   1  16
TORSDOF 8
ENDMDL
MODEL 8
REMARK VINA RESULT:      -7.2      4.543      7.799
REMARK  8 active torsions:
REMARK  status: ('A' for Active; 'I' for Inactive)
REMARK    1  A    between atoms: C_2  and  N_3 
REMARK    2  A    between atoms: C_2  and  C_17 
REMARK    3  A    between atoms: N_3  and  N_4 
REMARK       I    between atoms: N_4  and  C_5 
REMARK    4  A    between atoms: C_5  and  C_6 
REMARK    5  A    between atoms: C_6  and  N_7 
REMARK    6  A    between atoms: N_7  and  C_8 
REMARK    7  A    between atoms: C_9  and  O_10 
REMARK       I    between atoms: C_17  and  N_18 
REMARK    8  A    between atoms: N_18  and  C_19 
ROOT
HETATM    1  N   UNL     1      -7.264   1.930 -31.631  1.00  0.00    -0.225 NA
HETATM    2  H   UNL     1      -7.110   2.860 -31.214  1.00  0.00     0.147 HD
ENDROOT
BRANCH   1   3
HETATM    3  C   UNL     1      -6.018   1.619 -32.392  1.00  0.00     0.165 C 
HETATM    4  C   UNL     1      -6.057   2.082 -33.846  1.00  0.00     0.038 C 
BRANCH   3   5
HETATM    5  C   UNL     1      -5.798   0.083 -32.373  1.00  0.00     0.241 C 
HETATM    6  N   UNL     1      -5.858  -0.482 -33.637  1.00  0.00    -0.326 N 
HETATM    7  H   UNL     1      -6.076   0.187 -34.371  1.00  0.00     0.169 HD
HETATM    8  O   UNL     1      -5.565  -0.514 -31.325  1.00  0.00    -0.271 OA
BRANCH   6   9
HETATM    9  C   UNL     1      -5.733  -1.833 -34.005  1.00  0.00     0.036 A 
HETATM   10  C   UNL     1      -4.580  -2.592 -33.803  1.00  0.00     0.053 A 
HETATM   11  C   UNL     1      -4.552  -3.932 -34.196  1.00  0.00     0.036 A 
HETATM   12 CL   UNL     1      -3.123  -4.865 -33.956  1.00  0.00    -0.084 Cl
HETATM   13  C   UNL     1      -5.665  -4.529 -34.784  1.00  0.00     0.024 A 
HETATM   14  C   UNL     1      -6.818  -3.776 -34.991  1.00  0.00     0.004 A 
HETATM   15  C   UNL     1      -6.847  -2.433 -34.608  1.00  0.00     0.029 A 
ENDBRANCH   6   9
ENDBRANCH   3   5
ENDBRANCH   1   3
BRANCH   1  16
HETATM   16  N   UNL     1      -8.404   2.049 -32.465  1.00  0.00    -0.290 N 
HETATM   17  C   UNL     1      -9.346   1.023 -32.492  1.00  0.00     0.245 C 
HETATM   18  O   UNL     1      -9.411   0.133 -31.647  1.00  0.00    -0.271 OA
HETATM   19  H   UNL     1      -8.306   2.538 -33.362  1.00  0.00     0.183 HD
BRANCH  17  20
HETATM   20  C   UNL     1     -10.298   1.128 -33.688  1.00  0.00     0.196 C 
BRANCH  20  21
HETATM   21  N   UNL     1      -9.833   2.135 -34.658  1.00  0.00    -0.282 NA
HETATM   22  H   UNL     1      -8.858   2.410 -34.512  1.00  0.00     0.128 HD
BRANCH  21  23
HETATM   23  C   UNL     1     -10.588   3.317 -34.844  1.00  0.00     0.042 A 
HETATM   24  C   UNL     1      -9.939   4.564 -34.668  1.00  0.00     0.089 A 
HETATM   25  C   UNL     1     -10.618   5.759 -34.933  1.00  0.00     0.038 A 
HETATM   26  C   UNL     1     -11.933   5.731 -35.396  1.00  0.00     0.003 A 
HETATM   27  C   UNL     1     -12.571   4.513 -35.600  1.00  0.00     0.002 A 
HETATM   28  C   UNL     1     -11.900   3.316 -35.337  1.00  0.00     0.026 A 
BRANCH  24  29
HETATM   29  O   UNL     1      -8.644   4.487 -34.203  1.00  0.00    -0.354 OA
HETATM   30  C   UNL     1      -8.189   5.559 -33.387  1.00  0.00     0.210 C 
ENDBRANCH  24  29
ENDBRANCH  21  23
ENDBRANCH  20  21
ENDBRANCH  17  20
ENDBRANCH   1  16
TORSDOF 8
ENDMDL
MODEL 9
REMARK VINA RESULT:      -7.1      3.248      6.814
REMARK  8 active torsions:
REMARK  status: ('A' for Active; 'I' for Inactive)
REMARK    1  A    between atoms: C_2  and  N_3 
REMARK    2  A    between atoms: C_2  and  C_17 
REMARK    3  A    between atoms: N_3  and  N_4 
REMARK       I    between atoms: N_4  and  C_5 
REMARK    4  A    between atoms: C_5  and  C_6 
REMARK    5  A    between atoms: C_6  and  N_7 
REMARK    6  A    between atoms: N_7  and  C_8 
REMARK    7  A    between atoms: C_9  and  O_10 
REMARK       I    between atoms: C_17  and  N_18 
REMARK    8  A    between atoms: N_18  and  C_19 
ROOT
HETATM    1  N   UNL     1      -8.976   2.559 -34.158  1.00  0.00    -0.225 NA
HETATM    2  H   UNL     1      -9.569   2.865 -33.371  1.00  0.00     0.147 HD
ENDROOT
BRANCH   1   3
HETATM    3  C   UNL     1      -9.235   1.097 -34.315  1.00  0.00     0.165 C 
HETATM    4  C   UNL     1      -9.779   0.433 -33.052  1.00  0.00     0.038 C 
BRANCH   3   5
HETATM    5  C   UNL     1      -7.905   0.399 -34.702  1.00  0.00     0.241 C 
HETATM    6  N   UNL     1      -7.621  -0.695 -33.899  1.00  0.00    -0.326 N 
HETATM    7  H   UNL     1      -8.303  -0.844 -33.160  1.00  0.00     0.169 HD
HETATM    8  O   UNL     1      -7.232   0.793 -35.650  1.00  0.00    -0.271 OA
BRANCH   6   9
HETATM    9  C   UNL     1      -6.505  -1.548 -33.935  1.00  0.00     0.036 A 
HETATM   10  C   UNL     1      -5.407  -1.433 -33.081  1.00  0.00     0.053 A 
HETATM   11  C   UNL     1      -4.346  -2.334 -33.187  1.00  0.00     0.036 A 
HETATM   12 CL   UNL     1      -2.987  -2.185 -32.139  1.00  0.00    -0.084 Cl
HETATM   13  C   UNL     1      -4.367  -3.357 -34.134  1.00  0.00     0.024 A 
HETATM   14  C   UNL     1      -5.458  -3.475 -34.992  1.00  0.00     0.004 A 
HETATM   15  C   UNL     1      -6.518  -2.569 -34.895  1.00  0.00     0.029 A 
ENDBRANCH   6   9
ENDBRANCH   3   5
ENDBRANCH   1   3
BRANCH   1  16
HETATM   16  N   UNL     1      -7.639   2.845 -33.784  1.00  0.00    -0.290 N 
HETATM   17  C   UNL     1      -7.116   4.115 -34.018  1.00  0.00     0.245 C 
HETATM   18  O   UNL     1      -7.804   5.100 -34.280  1.00  0.00    -0.271 OA
HETATM   19  H   UNL     1      -6.940   2.096 -33.853  1.00  0.00     0.183 HD
BRANCH  17  20
HETATM   20  C   UNL     1      -5.588   4.154 -33.907  1.00  0.00     0.196 C 
BRANCH  20  21
HETATM   21  N   UNL     1      -5.155   4.279 -32.504  1.00  0.00    -0.282 NA
HETATM   22  H   UNL     1      -4.397   4.955 -32.378  1.00  0.00     0.128 HD
BRANCH  21  23
HETATM   23  C   UNL     1      -4.813   3.113 -31.780  1.00  0.00     0.042 A 
HETATM   24  C   UNL     1      -5.794   2.532 -30.937  1.00  0.00     0.089 A 
HETATM   25  C   UNL     1      -5.535   1.326 -30.275  1.00  0.00     0.038 A 
HETATM   26  C   UNL     1      -4.316   0.673 -30.459  1.00  0.00     0.003 A 
HETATM   27  C   UNL     1      -3.358   1.217 -31.306  1.00  0.00     0.002 A 
HETATM   28  C   UNL     1      -3.608   2.421 -31.969  1.00  0.00     0.026 A 
BRANCH  24  29
HETATM   29  O   UNL     1      -6.960   3.256 -30.817  1.00  0.00    -0.354 OA
HETATM   30  C   UNL     1      -7.464   3.450 -29.500  1.00  0.00     0.210 C 
ENDBRANCH  24  29
ENDBRANCH  21  23
ENDBRANCH  20  21
ENDBRANCH  17  20
ENDBRANCH   1  16
TORSDOF 8
ENDMDL
MODEL 10
REMARK VINA RESULT:      -7.1      4.091      9.507
REMARK  8 active torsions:
REMARK  status: ('A' for Active; 'I' for Inactive)
REMARK    1  A    between atoms: C_2  and  N_3 
REMARK    2  A    between atoms: C_2  and  C_17 
REMARK    3  A    between atoms: N_3  and  N_4 
REMARK       I    between atoms: N_4  and  C_5 
REMARK    4  A    between atoms: C_5  and  C_6 
REMARK    5  A    between atoms: C_6  and  N_7 
REMARK    6  A    between atoms: N_7  and  C_8 
REMARK    7  A    between atoms: C_9  and  O_10 
REMARK       I    between atoms: C_17  and  N_18 
REMARK    8  A    between atoms: N_18  and  C_19 
ROOT
HETATM    1  N   UNL     1      -3.854   3.619 -30.831  1.00  0.00    -0.225 NA
HETATM    2  H   UNL     1      -3.365   3.193 -31.632  1.00  0.00     0.147 HD
ENDROOT
BRANCH   1   3
HETATM    3  C   UNL     1      -5.289   3.705 -31.233  1.00  0.00     0.165 C 
HETATM    4  C   UNL     1      -6.192   4.300 -30.155  1.00  0.00     0.038 C 
BRANCH   3   5
HETATM    5  C   UNL     1      -5.796   2.276 -31.564  1.00  0.00     0.241 C 
HETATM    6  N   UNL     1      -5.359   1.826 -32.800  1.00  0.00    -0.326 N 
HETATM    7  H   UNL     1      -4.811   2.513 -33.312  1.00  0.00     0.169 HD
HETATM    8  O   UNL     1      -6.480   1.642 -30.765  1.00  0.00    -0.271 OA
BRANCH   6   9
HETATM    9  C   UNL     1      -5.633   0.606 -33.441  1.00  0.00     0.036 A 
HETATM   10  C   UNL     1      -4.838  -0.535 -33.317  1.00  0.00     0.053 A 
HETATM   11  C   UNL     1      -5.196  -1.707 -33.987  1.00  0.00     0.036 A 
HETATM   12 CL   UNL     1      -4.209  -3.112 -33.843  1.00  0.00    -0.084 Cl
HETATM   13  C   UNL     1      -6.344  -1.759 -34.777  1.00  0.00     0.024 A 
HETATM   14  C   UNL     1      -7.139  -0.623 -34.906  1.00  0.00     0.004 A 
HETATM   15  C   UNL     1      -6.780   0.555 -34.245  1.00  0.00     0.029 A 
ENDBRANCH   6   9
ENDBRANCH   3   5
ENDBRANCH   1   3
BRANCH   1  16
HETATM   16  N   UNL     1      -3.260   4.891 -30.632  1.00  0.00    -0.290 N 
HETATM   17  C   UNL     1      -1.938   5.100 -31.017  1.00  0.00     0.245 C 
HETATM   18  O   UNL     1      -1.317   4.349 -31.767  1.00  0.00    -0.271 OA
HETATM   19  H   UNL     1      -3.537   5.438 -29.808  1.00  0.00     0.183 HD
BRANCH  17  20
HETATM   20  C   UNL     1      -1.341   6.374 -30.410  1.00  0.00     0.196 C 
BRANCH  20  21
HETATM   21  N   UNL     1      -1.282   6.291 -28.939  1.00  0.00    -0.282 NA
HETATM   22  H   UNL     1      -2.188   6.458 -28.493  1.00  0.00     0.128 HD
BRANCH  21  23
HETATM   23  C   UNL     1      -0.315   7.054 -28.242  1.00  0.00     0.042 A 
HETATM   24  C   UNL     1      -0.130   6.803 -26.860  1.00  0.00     0.089 A 
HETATM   25  C   UNL     1       0.879   7.463 -26.149  1.00  0.00     0.038 A 
HETATM   26  C   UNL     1       1.727   8.357 -26.803  1.00  0.00     0.003 A 
HETATM   27  C   UNL     1       1.574   8.590 -28.165  1.00  0.00     0.002 A 
HETATM   28  C   UNL     1       0.568   7.935 -28.880  1.00  0.00     0.026 A 
BRANCH  24  29
HETATM   29  O   UNL     1      -1.019   5.909 -26.306  1.00  0.00    -0.354 OA
HETATM   30  C   UNL     1      -2.124   6.457 -25.596  1.00  0.00     0.210 C 
ENDBRANCH  24  29
ENDBRANCH  21  23
ENDBRANCH  20  21
ENDBRANCH  17  20
ENDBRANCH   1  16
TORSDOF 8
ENDMDL
