MODEL 1
REMARK VINA RESULT:      -8.2      0.000      0.000
REMARK  5 active torsions:
REMARK  status: ('A' for Active; 'I' for Inactive)
REMARK    1  A    between atoms: C_2  and  C_3 
REMARK       I    between atoms: C_3  and  N_4 
REMARK    2  A    between atoms: N_4  and  C_5 
REMARK    3  A    between atoms: C_5  and  C_6 
REMARK    4  A    between atoms: C_5  and  C_17 
REMARK    5  A    between atoms: C_7  and  O_8 
ROOT
HETATM    1  C   UNL     1      -5.979   1.487 -32.138  1.00  0.00     0.154 C 
ENDROOT
BRANCH   1   2
HETATM    2  N   UNL     1      -7.341   1.941 -31.916  1.00  0.00    -0.348 N 
HETATM    3  C   UNL     1      -7.765   2.501 -30.743  1.00  0.00     0.218 C 
HETATM    4  O   UNL     1      -7.013   2.734 -29.799  1.00  0.00    -0.274 OA
HETATM    5  H   UNL     1      -7.997   1.677 -32.639  1.00  0.00     0.163 HD
BRANCH   3   6
HETATM    6  C   UNL     1      -9.218   2.939 -30.713  1.00  0.00     0.098 C 
HETATM    7  C   UNL     1      -9.965   2.792 -32.026  1.00  0.00     0.014 C 
ENDBRANCH   3   6
ENDBRANCH   1   2
BRANCH   1   8
HETATM    8  C   UNL     1      -5.178   2.621 -32.770  1.00  0.00     0.005 A 
HETATM    9  C   UNL     1      -3.878   2.949 -32.355  1.00  0.00     0.103 A 
HETATM   10  C   UNL     1      -3.145   3.998 -32.909  1.00  0.00     0.100 A 
HETATM   11  C   UNL     1      -3.735   4.745 -33.946  1.00  0.00    -0.004 A 
HETATM   12  N   UNL     1      -1.904   4.251 -32.439  1.00  0.00    -0.257 NA
HETATM   13  C   UNL     1      -5.029   4.427 -34.393  1.00  0.00     0.014 A 
HETATM   14  C   UNL     1      -2.988   5.790 -34.505  1.00  0.00     0.015 A 
HETATM   15  C   UNL     1      -5.741   3.378 -33.807  1.00  0.00     0.013 A 
HETATM   16  C   UNL     1      -1.712   6.061 -34.024  1.00  0.00     0.020 A 
HETATM   17  C   UNL     1      -1.220   5.273 -33.000  1.00  0.00     0.117 A 
BRANCH   9  18
HETATM   18  O   UNL     1      -3.265   2.193 -31.375  1.00  0.00    -0.358 OA
HETATM   19  H   UNL     1      -2.323   2.174 -31.657  1.00  0.00     0.218 HD
ENDBRANCH   9  18
ENDBRANCH   1   8
BRANCH   1  20
HETATM   20  C   UNL     1      -5.877   0.182 -32.929  1.00  0.00    -0.031 A 
HETATM   21  C   UNL     1      -6.986  -0.256 -33.676  1.00  0.00     0.010 A 
HETATM   22  C   UNL     1      -6.941  -1.447 -34.406  1.00  0.00     0.007 A 
HETATM   23  C   UNL     1      -5.787  -2.235 -34.407  1.00  0.00    -0.062 A 
HETATM   24  C   UNL     1      -5.718  -3.501 -35.207  1.00  0.00     0.048 C 
HETATM   25  C   UNL     1      -4.675  -1.803 -33.678  1.00  0.00     0.007 A 
HETATM   26  C   UNL     1      -4.721  -0.613 -32.943  1.00  0.00     0.010 A 
ENDBRANCH   1  20
TORSDOF 5
ENDMDL
MODEL 2
REMARK VINA RESULT:      -8.1      2.290      5.892
REMARK  5 active torsions:
REMARK  status: ('A' for Active; 'I' for Inactive)
REMARK    1  A    between atoms: C_2  and  C_3 
REMARK       I    between atoms: C_3  and  N_4 
REMARK    2  A    between atoms: N_4  and  C_5 
REMARK    3  A    between atoms: C_5  and  C_6 
REMARK    4  A    between atoms: C_5  and  C_17 
REMARK    5  A    between atoms: C_7  and  O_8 
ROOT
HETATM    1  C   UNL     1      -6.753   1.085 -32.805  1.00  0.00     0.154 C 
ENDROOT
BRANCH   1   2
HETATM    2  N   UNL     1      -5.933   2.164 -33.329  1.00  0.00    -0.348 N 
HETATM    3  C   UNL     1      -5.140   2.955 -32.545  1.00  0.00     0.218 C 
HETATM    4  O   UNL     1      -4.997   2.776 -31.337  1.00  0.00    -0.274 OA
HETATM    5  H   UNL     1      -6.103   2.391 -34.300  1.00  0.00     0.163 HD
BRANCH   3   6
HETATM    6  C   UNL     1      -4.335   4.011 -33.280  1.00  0.00     0.098 C 
HETATM    7  C   UNL     1      -5.102   4.797 -34.328  1.00  0.00     0.014 C 
ENDBRANCH   3   6
ENDBRANCH   1   2
BRANCH   1   8
HETATM    8  C   UNL     1      -6.122  -0.247 -33.194  1.00  0.00     0.005 A 
HETATM    9  C   UNL     1      -5.124  -0.864 -32.423  1.00  0.00     0.103 A 
HETATM   10  C   UNL     1      -4.524  -2.070 -32.780  1.00  0.00     0.100 A 
HETATM   11  C   UNL     1      -4.958  -2.704 -33.959  1.00  0.00    -0.004 A 
HETATM   12  N   UNL     1      -3.561  -2.585 -31.983  1.00  0.00    -0.257 NA
HETATM   13  C   UNL     1      -5.967  -2.118 -34.742  1.00  0.00     0.014 A 
HETATM   14  C   UNL     1      -4.357  -3.921 -34.306  1.00  0.00     0.015 A 
HETATM   15  C   UNL     1      -6.539  -0.901 -34.362  1.00  0.00     0.013 A 
HETATM   16  C   UNL     1      -3.362  -4.457 -33.495  1.00  0.00     0.020 A 
HETATM   17  C   UNL     1      -3.002  -3.758 -32.357  1.00  0.00     0.117 A 
BRANCH   9  18
HETATM   18  O   UNL     1      -4.725  -0.282 -31.236  1.00  0.00    -0.358 OA
HETATM   19  H   UNL     1      -5.549   0.133 -30.895  1.00  0.00     0.218 HD
ENDBRANCH   9  18
ENDBRANCH   1   8
BRANCH   1  20
HETATM   20  C   UNL     1      -8.228   1.176 -33.198  1.00  0.00    -0.031 A 
HETATM   21  C   UNL     1      -9.134   0.229 -32.685  1.00  0.00     0.010 A 
HETATM   22  C   UNL     1     -10.490   0.268 -33.024  1.00  0.00     0.007 A 
HETATM   23  C   UNL     1     -10.977   1.253 -33.887  1.00  0.00    -0.062 A 
HETATM   24  C   UNL     1     -12.433   1.320 -34.237  1.00  0.00     0.048 C 
HETATM   25  C   UNL     1     -10.088   2.205 -34.392  1.00  0.00     0.007 A 
HETATM   26  C   UNL     1      -8.730   2.164 -34.058  1.00  0.00     0.010 A 
ENDBRANCH   1  20
TORSDOF 5
ENDMDL
MODEL 3
REMARK VINA RESULT:      -7.9      3.173      6.305
REMARK  5 active torsions:
REMARK  status: ('A' for Active; 'I' for Inactive)
REMARK    1  A    between atoms: C_2  and  C_3 
REMARK       I    between atoms: C_3  and  N_4 
REMARK    2  A    between atoms: N_4  and  C_5 
REMARK    3  A    between atoms: C_5  and  C_6 
REMARK    4  A    between atoms: C_5  and  C_17 
REMARK    5  A    between atoms: C_7  and  O_8 
ROOT
HETATM    1  C   UNL     1      -7.273   1.250 -33.445  1.00  0.00     0.154 C 
ENDROOT
BRANCH   1   2
HETATM    2  N   UNL     1      -6.967   1.968 -32.220  1.00  0.00    -0.348 N 
HETATM    3  C   UNL     1      -6.838   3.328 -32.159  1.00  0.00     0.218 C 
HETATM    4  O   UNL     1      -7.039   4.067 -33.119  1.00  0.00    -0.274 OA
HETATM    5  H   UNL     1      -6.705   1.380 -31.440  1.00  0.00     0.163 HD
BRANCH   3   6
HETATM    6  C   UNL     1      -6.544   3.897 -30.782  1.00  0.00     0.098 C 
HETATM    7  C   UNL     1      -5.546   3.107 -29.955  1.00  0.00     0.014 C 
ENDBRANCH   3   6
ENDBRANCH   1   2
BRANCH   1   8
HETATM    8  C   UNL     1      -8.777   1.005 -33.510  1.00  0.00     0.005 A 
HETATM    9  C   UNL     1      -9.647   1.841 -34.226  1.00  0.00     0.103 A 
HETATM   10  C   UNL     1     -11.026   1.641 -34.274  1.00  0.00     0.100 A 
HETATM   11  C   UNL     1     -11.561   0.534 -33.587  1.00  0.00    -0.004 A 
HETATM   12  N   UNL     1     -11.791   2.504 -34.978  1.00  0.00    -0.257 NA
HETATM   13  C   UNL     1     -10.710  -0.329 -32.877  1.00  0.00     0.014 A 
HETATM   14  C   UNL     1     -12.945   0.334 -33.649  1.00  0.00     0.015 A 
HETATM   15  C   UNL     1      -9.334  -0.093 -32.838  1.00  0.00     0.013 A 
HETATM   16  C   UNL     1     -13.741   1.220 -34.367  1.00  0.00     0.020 A 
HETATM   17  C   UNL     1     -13.124   2.279 -35.006  1.00  0.00     0.117 A 
BRANCH   9  18
HETATM   18  O   UNL     1      -9.134   2.900 -34.948  1.00  0.00    -0.358 OA
HETATM   19  H   UNL     1      -9.792   3.029 -35.667  1.00  0.00     0.218 HD
ENDBRANCH   9  18
ENDBRANCH   1   8
BRANCH   1  20
HETATM   20  C   UNL     1      -6.458  -0.030 -33.639  1.00  0.00    -0.031 A 
HETATM   21  C   UNL     1      -6.799  -0.909 -34.683  1.00  0.00     0.010 A 
HETATM   22  C   UNL     1      -6.088  -2.095 -34.892  1.00  0.00     0.007 A 
HETATM   23  C   UNL     1      -5.018  -2.436 -34.059  1.00  0.00    -0.062 A 
HETATM   24  C   UNL     1      -4.232  -3.691 -34.289  1.00  0.00     0.048 C 
HETATM   25  C   UNL     1      -4.664  -1.563 -33.027  1.00  0.00     0.007 A 
HETATM   26  C   UNL     1      -5.378  -0.379 -32.814  1.00  0.00     0.010 A 
ENDBRANCH   1  20
TORSDOF 5
ENDMDL
MODEL 4
REMARK VINA RESULT:      -7.9      1.213      1.994
REMARK  5 active torsions:
REMARK  status: ('A' for Active; 'I' for Inactive)
REMARK    1  A    between atoms: C_2  and  C_3 
REMARK       I    between atoms: C_3  and  N_4 
REMARK    2  A    between atoms: N_4  and  C_5 
REMARK    3  A    between atoms: C_5  and  C_6 
REMARK    4  A    between atoms: C_5  and  C_17 
REMARK    5  A    between atoms: C_7  and  O_8 
ROOT
HETATM    1  C   UNL     1      -6.191   1.265 -31.757  1.00  0.00     0.154 C 
ENDROOT
BRANCH   1   2
HETATM    2  N   UNL     1      -7.467   1.960 -31.775  1.00  0.00    -0.348 N 
HETATM    3  C   UNL     1      -7.949   2.673 -30.713  1.00  0.00     0.218 C 
HETATM    4  O   UNL     1      -7.313   2.848 -29.676  1.00  0.00    -0.274 OA
HETATM    5  H   UNL     1      -8.048   1.755 -32.577  1.00  0.00     0.163 HD
BRANCH   3   6
HETATM    6  C   UNL     1      -9.288   3.353 -30.933  1.00  0.00     0.098 C 
HETATM    7  C   UNL     1     -10.058   2.886 -32.155  1.00  0.00     0.014 C 
ENDBRANCH   3   6
ENDBRANCH   1   2
BRANCH   1   8
HETATM    8  C   UNL     1      -5.082   2.262 -32.078  1.00  0.00     0.005 A 
HETATM    9  C   UNL     1      -5.143   3.128 -33.181  1.00  0.00     0.103 A 
HETATM   10  C   UNL     1      -4.126   4.027 -33.498  1.00  0.00     0.100 A 
HETATM   11  C   UNL     1      -2.998   4.078 -32.658  1.00  0.00    -0.004 A 
HETATM   12  N   UNL     1      -4.263   4.815 -34.588  1.00  0.00    -0.257 NA
HETATM   13  C   UNL     1      -2.920   3.234 -31.537  1.00  0.00     0.014 A 
HETATM   14  C   UNL     1      -1.986   4.991 -32.977  1.00  0.00     0.015 A 
HETATM   15  C   UNL     1      -3.950   2.335 -31.255  1.00  0.00     0.013 A 
HETATM   16  C   UNL     1      -2.116   5.803 -34.099  1.00  0.00     0.020 A 
HETATM   17  C   UNL     1      -3.260   5.678 -34.865  1.00  0.00     0.117 A 
BRANCH   9  18
HETATM   18  O   UNL     1      -6.266   3.128 -33.985  1.00  0.00    -0.358 OA
HETATM   19  H   UNL     1      -5.899   3.241 -34.891  1.00  0.00     0.218 HD
ENDBRANCH   9  18
ENDBRANCH   1   8
BRANCH   1  20
HETATM   20  C   UNL     1      -6.144   0.023 -32.649  1.00  0.00    -0.031 A 
HETATM   21  C   UNL     1      -4.941  -0.699 -32.757  1.00  0.00     0.010 A 
HETATM   22  C   UNL     1      -4.850  -1.834 -33.567  1.00  0.00     0.007 A 
HETATM   23  C   UNL     1      -5.958  -2.278 -34.294  1.00  0.00    -0.062 A 
HETATM   24  C   UNL     1      -5.880  -3.509 -35.145  1.00  0.00     0.048 C 
HETATM   25  C   UNL     1      -7.161  -1.575 -34.184  1.00  0.00     0.007 A 
HETATM   26  C   UNL     1      -7.252  -0.436 -33.377  1.00  0.00     0.010 A 
ENDBRANCH   1  20
TORSDOF 5
ENDMDL
MODEL 5
REMARK VINA RESULT:      -7.7      3.585      6.625
REMARK  5 active torsions:
REMARK  status: ('A' for Active; 'I' for Inactive)
REMARK    1  A    between atoms: C_2  and  C_3 
REMARK       I    between atoms: C_3  and  N_4 
REMARK    2  A    between atoms: N_4  and  C_5 
REMARK    3  A    between atoms: C_5  and  C_6 
REMARK    4  A    between atoms: C_5  and  C_17 
REMARK    5  A    between atoms: C_7  and  O_8 
ROOT
HETATM    1  C   UNL     1      -8.058   1.785 -33.153  1.00  0.00     0.154 C 
ENDROOT
BRANCH   1   2
HETATM    2  N   UNL     1      -8.001   2.059 -31.727  1.00  0.00    -0.348 N 
HETATM    3  C   UNL     1      -7.417   3.177 -31.200  1.00  0.00     0.218 C 
HETATM    4  O   UNL     1      -6.951   4.082 -31.890  1.00  0.00    -0.274 OA
HETATM    5  H   UNL     1      -8.291   1.291 -31.137  1.00  0.00     0.163 HD
BRANCH   3   6
HETATM    6  C   UNL     1      -7.483   3.302 -29.689  1.00  0.00     0.098 C 
HETATM    7  C   UNL     1      -7.457   4.723 -29.155  1.00  0.00     0.014 C 
ENDBRANCH   3   6
ENDBRANCH   1   2
BRANCH   1   8
HETATM    8  C   UNL     1      -9.518   1.758 -33.592  1.00  0.00     0.005 A 
HETATM    9  C   UNL     1     -10.407   0.749 -33.193  1.00  0.00     0.103 A 
HETATM   10  C   UNL     1     -11.738   0.701 -33.606  1.00  0.00     0.100 A 
HETATM   11  C   UNL     1     -12.210   1.728 -34.445  1.00  0.00    -0.004 A 
HETATM   12  N   UNL     1     -12.521  -0.316 -33.183  1.00  0.00    -0.257 NA
HETATM   13  C   UNL     1     -11.345   2.761 -34.846  1.00  0.00     0.014 A 
HETATM   14  C   UNL     1     -13.551   1.679 -34.848  1.00  0.00     0.015 A 
HETATM   15  C   UNL     1     -10.014   2.772 -34.424  1.00  0.00     0.013 A 
HETATM   16  C   UNL     1     -14.362   0.633 -34.421  1.00  0.00     0.020 A 
HETATM   17  C   UNL     1     -13.807  -0.331 -33.600  1.00  0.00     0.117 A 
BRANCH   9  18
HETATM   18  O   UNL     1      -9.975  -0.237 -32.328  1.00  0.00    -0.358 OA
HETATM   19  H   UNL     1     -10.608  -0.177 -31.577  1.00  0.00     0.218 HD
ENDBRANCH   9  18
ENDBRANCH   1   8
BRANCH   1  20
HETATM   20  C   UNL     1      -7.292   0.531 -33.577  1.00  0.00    -0.031 A 
HETATM   21  C   UNL     1      -6.387  -0.059 -32.676  1.00  0.00     0.010 A 
HETATM   22  C   UNL     1      -5.659  -1.200 -33.024  1.00  0.00     0.007 A 
HETATM   23  C   UNL     1      -5.812  -1.781 -34.285  1.00  0.00    -0.062 A 
HETATM   24  C   UNL     1      -5.056  -3.020 -34.661  1.00  0.00     0.048 C 
HETATM   25  C   UNL     1      -6.717  -1.210 -35.184  1.00  0.00     0.007 A 
HETATM   26  C   UNL     1      -7.443  -0.066 -34.838  1.00  0.00     0.010 A 
ENDBRANCH   1  20
TORSDOF 5
ENDMDL
MODEL 6
REMARK VINA RESULT:      -7.6      1.807      6.353
REMARK  5 active torsions:
REMARK  status: ('A' for Active; 'I' for Inactive)
REMARK    1  A    between atoms: C_2  and  C_3 
REMARK       I    between atoms: C_3  and  N_4 
REMARK    2  A    between atoms: N_4  and  C_5 
REMARK    3  A    between atoms: C_5  and  C_6 
REMARK    4  A    between atoms: C_5  and  C_17 
REMARK    5  A    between atoms: C_7  and  O_8 
ROOT
HETATM    1  C   UNL     1      -5.360   2.365 -32.060  1.00  0.00     0.154 C 
ENDROOT
BRANCH   1   2
HETATM    2  N   UNL     1      -4.441   3.160 -32.856  1.00  0.00    -0.348 N 
HETATM    3  C   UNL     1      -3.161   3.443 -32.467  1.00  0.00     0.218 C 
HETATM    4  O   UNL     1      -2.654   2.992 -31.442  1.00  0.00    -0.274 OA
HETATM    5  H   UNL     1      -4.860   3.618 -33.654  1.00  0.00     0.163 HD
BRANCH   3   6
HETATM    6  C   UNL     1      -2.343   4.263 -33.448  1.00  0.00     0.098 C 
HETATM    7  C   UNL     1      -3.050   5.479 -34.021  1.00  0.00     0.014 C 
ENDBRANCH   3   6
ENDBRANCH   1   2
BRANCH   1   8
HETATM    8  C   UNL     1      -5.660   1.067 -32.801  1.00  0.00     0.005 A 
HETATM    9  C   UNL     1      -4.762  -0.011 -32.827  1.00  0.00     0.103 A 
HETATM   10  C   UNL     1      -5.014  -1.194 -33.520  1.00  0.00     0.100 A 
HETATM   11  C   UNL     1      -6.237  -1.314 -34.206  1.00  0.00    -0.004 A 
HETATM   12  N   UNL     1      -4.086  -2.177 -33.501  1.00  0.00    -0.257 NA
HETATM   13  C   UNL     1      -7.162  -0.257 -34.183  1.00  0.00     0.014 A 
HETATM   14  C   UNL     1      -6.488  -2.510 -34.891  1.00  0.00     0.015 A 
HETATM   15  C   UNL     1      -6.872   0.921 -33.489  1.00  0.00     0.013 A 
HETATM   16  C   UNL     1      -5.537  -3.525 -34.881  1.00  0.00     0.020 A 
HETATM   17  C   UNL     1      -4.364  -3.312 -34.181  1.00  0.00     0.117 A 
BRANCH   9  18
HETATM   18  O   UNL     1      -3.580   0.069 -32.116  1.00  0.00    -0.358 OA
HETATM   19  H   UNL     1      -3.080  -0.725 -32.411  1.00  0.00     0.218 HD
ENDBRANCH   9  18
ENDBRANCH   1   8
BRANCH   1  20
HETATM   20  C   UNL     1      -6.628   3.111 -31.642  1.00  0.00    -0.031 A 
HETATM   21  C   UNL     1      -6.991   4.286 -32.327  1.00  0.00     0.010 A 
HETATM   22  C   UNL     1      -8.136   5.005 -31.974  1.00  0.00     0.007 A 
HETATM   23  C   UNL     1      -8.949   4.572 -30.923  1.00  0.00    -0.062 A 
HETATM   24  C   UNL     1     -10.194   5.320 -30.552  1.00  0.00     0.048 C 
HETATM   25  C   UNL     1      -8.605   3.400 -30.244  1.00  0.00     0.007 A 
HETATM   26  C   UNL     1      -7.456   2.682 -30.594  1.00  0.00     0.010 A 
ENDBRANCH   1  20
TORSDOF 5
ENDMDL
MODEL 7
REMARK VINA RESULT:      -7.4      1.637      5.716
REMARK  5 active torsions:
REMARK  status: ('A' for Active; 'I' for Inactive)
REMARK    1  A    between atoms: C_2  and  C_3 
REMARK       I    between atoms: C_3  and  N_4 
REMARK    2  A    between atoms: N_4  and  C_5 
REMARK    3  A    between atoms: C_5  and  C_6 
REMARK    4  A    between atoms: C_5  and  C_17 
REMARK    5  A    between atoms: C_7  and  O_8 
ROOT
HETATM    1  C   UNL     1      -6.093   3.182 -33.159  1.00  0.00     0.154 C 
ENDROOT
BRANCH   1   2
HETATM    2  N   UNL     1      -6.399   3.190 -31.739  1.00  0.00    -0.348 N 
HETATM    3  C   UNL     1      -7.643   3.456 -31.240  1.00  0.00     0.218 C 
HETATM    4  O   UNL     1      -8.628   3.641 -31.951  1.00  0.00    -0.274 OA
HETATM    5  H   UNL     1      -5.591   3.134 -31.133  1.00  0.00     0.163 HD
BRANCH   3   6
HETATM    6  C   UNL     1      -7.772   3.388 -29.729  1.00  0.00     0.098 C 
HETATM    7  C   UNL     1      -7.203   4.578 -28.977  1.00  0.00     0.014 C 
ENDBRANCH   3   6
ENDBRANCH   1   2
BRANCH   1   8
HETATM    8  C   UNL     1      -6.150   1.746 -33.668  1.00  0.00     0.005 A 
HETATM    9  C   UNL     1      -5.333   0.729 -33.150  1.00  0.00     0.103 A 
HETATM   10  C   UNL     1      -5.359  -0.582 -33.623  1.00  0.00     0.100 A 
HETATM   11  C   UNL     1      -6.265  -0.899 -34.652  1.00  0.00    -0.004 A 
HETATM   12  N   UNL     1      -4.527  -1.495 -33.073  1.00  0.00    -0.257 NA
HETATM   13  C   UNL     1      -7.107   0.096 -35.177  1.00  0.00     0.014 A 
HETATM   14  C   UNL     1      -6.293  -2.221 -35.114  1.00  0.00     0.015 A 
HETATM   15  C   UNL     1      -7.047   1.403 -34.690  1.00  0.00     0.013 A 
HETATM   16  C   UNL     1      -5.437  -3.166 -34.558  1.00  0.00     0.020 A 
HETATM   17  C   UNL     1      -4.580  -2.757 -33.553  1.00  0.00     0.117 A 
BRANCH   9  18
HETATM   18  O   UNL     1      -4.476   1.011 -32.104  1.00  0.00    -0.358 OA
HETATM   19  H   UNL     1      -4.946   0.650 -31.319  1.00  0.00     0.218 HD
ENDBRANCH   9  18
ENDBRANCH   1   8
BRANCH   1  20
HETATM   20  C   UNL     1      -4.783   3.884 -33.520  1.00  0.00    -0.031 A 
HETATM   21  C   UNL     1      -4.714   4.646 -34.700  1.00  0.00     0.010 A 
HETATM   22  C   UNL     1      -3.535   5.297 -35.074  1.00  0.00     0.007 A 
HETATM   23  C   UNL     1      -2.390   5.201 -34.278  1.00  0.00    -0.062 A 
HETATM   24  C   UNL     1      -1.127   5.916 -34.655  1.00  0.00     0.048 C 
HETATM   25  C   UNL     1      -2.451   4.457 -33.097  1.00  0.00     0.007 A 
HETATM   26  C   UNL     1      -3.629   3.801 -32.725  1.00  0.00     0.010 A 
ENDBRANCH   1  20
TORSDOF 5
ENDMDL
MODEL 8
REMARK VINA RESULT:      -7.4      2.276      6.228
REMARK  5 active torsions:
REMARK  status: ('A' for Active; 'I' for Inactive)
REMARK    1  A    between atoms: C_2  and  C_3 
REMARK       I    between atoms: C_3  and  N_4 
REMARK    2  A    between atoms: N_4  and  C_5 
REMARK    3  A    between atoms: C_5  and  C_6 
REMARK    4  A    between atoms: C_5  and  C_17 
REMARK    5  A    between atoms: C_7  and  O_8 
ROOT
HETATM    1  C   UNL     1      -5.370   2.094 -32.618  1.00  0.00     0.154 C 
ENDROOT
BRANCH   1   2
HETATM    2  N   UNL     1      -6.607   2.123 -31.856  1.00  0.00    -0.348 N 
HETATM    3  C   UNL     1      -7.845   2.079 -32.432  1.00  0.00     0.218 C 
HETATM    4  O   UNL     1      -8.021   1.939 -33.640  1.00  0.00    -0.274 OA
HETATM    5  H   UNL     1      -6.492   2.331 -30.873  1.00  0.00     0.163 HD
BRANCH   3   6
HETATM    6  C   UNL     1      -9.018   2.091 -31.468  1.00  0.00     0.098 C 
HETATM    7  C   UNL     1      -9.075   3.285 -30.532  1.00  0.00     0.014 C 
ENDBRANCH   3   6
ENDBRANCH   1   2
BRANCH   1   8
HETATM    8  C   UNL     1      -4.756   0.703 -32.508  1.00  0.00     0.005 A 
HETATM    9  C   UNL     1      -5.073  -0.335 -33.398  1.00  0.00     0.103 A 
HETATM   10  C   UNL     1      -4.536  -1.617 -33.293  1.00  0.00     0.100 A 
HETATM   11  C   UNL     1      -3.617  -1.870 -32.258  1.00  0.00    -0.004 A 
HETATM   12  N   UNL     1      -4.908  -2.560 -34.187  1.00  0.00    -0.257 NA
HETATM   13  C   UNL     1      -3.268  -0.844 -31.363  1.00  0.00     0.014 A 
HETATM   14  C   UNL     1      -3.073  -3.157 -32.166  1.00  0.00     0.015 A 
HETATM   15  C   UNL     1      -3.835   0.426 -31.488  1.00  0.00     0.013 A 
HETATM   16  C   UNL     1      -3.454  -4.135 -33.078  1.00  0.00     0.020 A 
HETATM   17  C   UNL     1      -4.366  -3.792 -34.059  1.00  0.00     0.117 A 
BRANCH   9  18
HETATM   18  O   UNL     1      -5.933  -0.090 -34.451  1.00  0.00    -0.358 OA
HETATM   19  H   UNL     1      -6.764   0.192 -34.008  1.00  0.00     0.218 HD
ENDBRANCH   9  18
ENDBRANCH   1   8
BRANCH   1  20
HETATM   20  C   UNL     1      -4.384   3.205 -32.252  1.00  0.00    -0.031 A 
HETATM   21  C   UNL     1      -3.177   3.313 -32.965  1.00  0.00     0.010 A 
HETATM   22  C   UNL     1      -2.242   4.307 -32.659  1.00  0.00     0.007 A 
HETATM   23  C   UNL     1      -2.488   5.218 -31.628  1.00  0.00    -0.062 A 
HETATM   24  C   UNL     1      -1.506   6.304 -31.307  1.00  0.00     0.048 C 
HETATM   25  C   UNL     1      -3.691   5.126 -30.921  1.00  0.00     0.007 A 
HETATM   26  C   UNL     1      -4.624   4.129 -31.224  1.00  0.00     0.010 A 
ENDBRANCH   1  20
TORSDOF 5
ENDMDL
MODEL 9
REMARK VINA RESULT:      -7.4     16.363     18.758
REMARK  5 active torsions:
REMARK  status: ('A' for Active; 'I' for Inactive)
REMARK    1  A    between atoms: C_2  and  C_3 
REMARK       I    between atoms: C_3  and  N_4 
REMARK    2  A    between atoms: N_4  and  C_5 
REMARK    3  A    between atoms: C_5  and  C_6 
REMARK    4  A    between atoms: C_5  and  C_17 
REMARK    5  A    between atoms: C_7  and  O_8 
ROOT
HETATM    1  C   UNL     1      -4.623 -13.609 -41.018  1.00  0.00     0.154 C 
ENDROOT
BRANCH   1   2
HETATM    2  N   UNL     1      -3.909 -13.788 -39.765  1.00  0.00    -0.348 N 
HETATM    3  C   UNL     1      -3.737 -12.789 -38.849  1.00  0.00     0.218 C 
HETATM    4  O   UNL     1      -4.231 -11.670 -38.972  1.00  0.00    -0.274 OA
HETATM    5  H   UNL     1      -3.416 -14.667 -39.682  1.00  0.00     0.163 HD
BRANCH   3   6
HETATM    6  C   UNL     1      -2.989 -13.178 -37.586  1.00  0.00     0.098 C 
HETATM    7  C   UNL     1      -1.475 -13.155 -37.699  1.00  0.00     0.014 C 
ENDBRANCH   3   6
ENDBRANCH   1   2
BRANCH   1   8
HETATM    8  C   UNL     1      -6.112 -13.825 -40.773  1.00  0.00     0.005 A 
HETATM    9  C   UNL     1      -7.033 -12.766 -40.737  1.00  0.00     0.103 A 
HETATM   10  C   UNL     1      -8.393 -12.950 -40.491  1.00  0.00     0.100 A 
HETATM   11  C   UNL     1      -8.861 -14.262 -40.291  1.00  0.00    -0.004 A 
HETATM   12  N   UNL     1      -9.206 -11.870 -40.462  1.00  0.00    -0.257 NA
HETATM   13  C   UNL     1      -7.963 -15.342 -40.338  1.00  0.00     0.014 A 
HETATM   14  C   UNL     1     -10.230 -14.438 -40.054  1.00  0.00     0.015 A 
HETATM   15  C   UNL     1      -6.604 -15.123 -40.574  1.00  0.00     0.013 A 
HETATM   16  C   UNL     1     -11.073 -13.333 -40.018  1.00  0.00     0.020 A 
HETATM   17  C   UNL     1     -10.519 -12.083 -40.223  1.00  0.00     0.117 A 
BRANCH   9  18
HETATM   18  O   UNL     1      -6.599 -11.479 -40.983  1.00  0.00    -0.358 OA
HETATM   19  H   UNL     1      -7.434 -10.980 -41.133  1.00  0.00     0.218 HD
ENDBRANCH   9  18
ENDBRANCH   1   8
BRANCH   1  20
HETATM   20  C   UNL     1      -4.085 -14.460 -42.170  1.00  0.00    -0.031 A 
HETATM   21  C   UNL     1      -3.033 -15.361 -41.924  1.00  0.00     0.010 A 
HETATM   22  C   UNL     1      -2.503 -16.152 -42.948  1.00  0.00     0.007 A 
HETATM   23  C   UNL     1      -3.010 -16.061 -44.247  1.00  0.00    -0.062 A 
HETATM   24  C   UNL     1      -2.469 -16.923 -45.348  1.00  0.00     0.048 C 
HETATM   25  C   UNL     1      -4.064 -15.179 -44.499  1.00  0.00     0.007 A 
HETATM   26  C   UNL     1      -4.591 -14.383 -43.476  1.00  0.00     0.010 A 
ENDBRANCH   1  20
TORSDOF 5
ENDMDL
MODEL 10
REMARK VINA RESULT:      -7.4     15.861     17.165
REMARK  5 active torsions:
REMARK  status: ('A' for Active; 'I' for Inactive)
REMARK    1  A    between atoms: C_2  and  C_3 
REMARK       I    between atoms: C_3  and  N_4 
REMARK    2  A    between atoms: N_4  and  C_5 
REMARK    3  A    between atoms: C_5  and  C_6 
REMARK    4  A    between atoms: C_5  and  C_17 
REMARK    5  A    between atoms: C_7  and  O_8 
ROOT
HETATM    1  C   UNL     1      -5.938 -13.928 -37.156  1.00  0.00     0.154 C 
ENDROOT
BRANCH   1   2
HETATM    2  N   UNL     1      -5.882 -13.333 -35.832  1.00  0.00    -0.348 N 
HETATM    3  C   UNL     1      -6.373 -13.943 -34.712  1.00  0.00     0.218 C 
HETATM    4  O   UNL     1      -6.841 -15.080 -34.715  1.00  0.00    -0.274 OA
HETATM    5  H   UNL     1      -5.588 -12.365 -35.816  1.00  0.00     0.163 HD
BRANCH   3   6
HETATM    6  C   UNL     1      -6.195 -13.175 -33.414  1.00  0.00     0.098 C 
HETATM    7  C   UNL     1      -5.575 -13.965 -32.275  1.00  0.00     0.014 C 
ENDBRANCH   3   6
ENDBRANCH   1   2
BRANCH   1   8
HETATM    8  C   UNL     1      -4.573 -13.787 -37.819  1.00  0.00     0.005 A 
HETATM    9  C   UNL     1      -4.107 -14.691 -38.786  1.00  0.00     0.103 A 
HETATM   10  C   UNL     1      -2.851 -14.585 -39.383  1.00  0.00     0.100 A 
HETATM   11  C   UNL     1      -2.026 -13.508 -39.008  1.00  0.00    -0.004 A 
HETATM   12  N   UNL     1      -2.479 -15.508 -40.297  1.00  0.00    -0.257 NA
HETATM   13  C   UNL     1      -2.475 -12.579 -38.054  1.00  0.00     0.014 A 
HETATM   14  C   UNL     1      -0.771 -13.403 -39.619  1.00  0.00     0.015 A 
HETATM   15  C   UNL     1      -3.733 -12.721 -37.466  1.00  0.00     0.013 A 
HETATM   16  C   UNL     1      -0.377 -14.351 -40.558  1.00  0.00     0.020 A 
HETATM   17  C   UNL     1      -1.256 -15.375 -40.858  1.00  0.00     0.117 A 
BRANCH   9  18
HETATM   18  O   UNL     1      -4.924 -15.722 -39.204  1.00  0.00    -0.358 OA
HETATM   19  H   UNL     1      -4.289 -16.421 -39.481  1.00  0.00     0.218 HD
ENDBRANCH   9  18
ENDBRANCH   1   8
BRANCH   1  20
HETATM   20  C   UNL     1      -7.076 -13.398 -38.030  1.00  0.00    -0.031 A 
HETATM   21  C   UNL     1      -8.388 -13.853 -37.799  1.00  0.00     0.010 A 
HETATM   22  C   UNL     1      -9.457 -13.403 -38.579  1.00  0.00     0.007 A 
HETATM   23  C   UNL     1      -9.244 -12.488 -39.614  1.00  0.00    -0.062 A 
HETATM   24  C   UNL     1     -10.386 -11.978 -40.440  1.00  0.00     0.048 C 
HETATM   25  C   UNL     1      -7.947 -12.021 -39.843  1.00  0.00     0.007 A 
HETATM   26  C   UNL     1      -6.875 -12.474 -39.067  1.00  0.00     0.010 A 
ENDBRANCH   1  20
TORSDOF 5
ENDMDL
