MODEL 1
REMARK VINA RESULT:      -8.8      0.000      0.000
REMARK  7 active torsions:
REMARK  status: ('A' for Active; 'I' for Inactive)
REMARK    1  A    between atoms: C_2  and  C_3 
REMARK    2  A    between atoms: C_3  and  O_4 
REMARK    3  A    between atoms: O_4  and  C_5 
REMARK    4  A    between atoms: C_8  and  N_9 
REMARK    5  A    between atoms: C_12  and  N_13 
REMARK    6  A    between atoms: C_17  and  O_18 
REMARK    7  A    between atoms: C_17  and  C_19 
ROOT
HETATM    1  N   UNL     1      -5.339   2.021 -31.769  1.00  0.00    -0.251 N 
HETATM    2  C   UNL     1      -4.427   2.920 -32.272  1.00  0.00     0.262 C 
HETATM    3  O   UNL     1      -3.951   3.058 -33.391  1.00  0.00    -0.270 OA
HETATM    4  C   UNL     1      -4.040   3.855 -31.151  1.00  0.00     0.289 C 
HETATM    5  C   UNL     1      -5.223   3.796 -30.224  1.00  0.00     0.146 C 
HETATM    6  C   UNL     1      -5.766   2.425 -30.518  1.00  0.00     0.233 C 
HETATM    7  O   UNL     1      -6.478   1.854 -29.708  1.00  0.00    -0.273 OA
ENDROOT
BRANCH   4   8
HETATM    8  N   UNL     1      -3.639   5.272 -31.598  1.00  0.00    -0.058 N 
HETATM    9  H   UNL     1      -4.218   5.426 -32.444  1.00  0.00     0.281 HD
HETATM   10  C   UNL     1      -4.039   6.392 -30.658  1.00  0.00     0.239 C 
HETATM   11  C   UNL     1      -3.677   7.734 -31.274  1.00  0.00     0.071 C 
HETATM   12  C   UNL     1      -2.168   7.835 -31.587  1.00  0.00     0.088 C 
HETATM   13  C   UNL     1      -1.872   6.706 -32.596  1.00  0.00     0.071 C 
HETATM   14  C   UNL     1      -2.194   5.335 -32.028  1.00  0.00     0.239 C 
BRANCH  12  15
HETATM   15  O   UNL     1      -1.976   9.063 -32.289  1.00  0.00    -0.385 OA
HETATM   16  H   UNL     1      -2.840   9.455 -32.514  1.00  0.00     0.211 HD
ENDBRANCH  12  15
BRANCH  12  17
HETATM   17  C   UNL     1      -1.261   7.847 -30.350  1.00  0.00    -0.024 A 
HETATM   18  C   UNL     1      -0.054   7.121 -30.308  1.00  0.00     0.011 A 
HETATM   19  C   UNL     1       0.756   7.116 -29.166  1.00  0.00     0.020 A 
HETATM   20  C   UNL     1       0.391   7.862 -28.053  1.00  0.00     0.011 A 
HETATM   21 BR   UNL     1       1.474   7.844 -26.507  1.00  0.00    -0.051 Br
HETATM   22  C   UNL     1      -0.764   8.633 -28.083  1.00  0.00     0.020 A 
HETATM   23  C   UNL     1      -1.572   8.638 -29.226  1.00  0.00     0.011 A 
ENDBRANCH  12  17
ENDBRANCH   4   8
BRANCH   1  24
HETATM   24  C   UNL     1      -5.756   0.823 -32.429  1.00  0.00     0.045 A 
HETATM   25  C   UNL     1      -7.020   0.718 -33.034  1.00  0.00     0.033 A 
HETATM   26  C   UNL     1      -7.405  -0.431 -33.745  1.00  0.00     0.039 A 
HETATM   27  C   UNL     1      -6.534  -1.504 -33.869  1.00  0.00     0.068 A 
HETATM   28  C   UNL     1      -5.297  -1.439 -33.238  1.00  0.00     0.039 A 
HETATM   29  C   UNL     1      -4.911  -0.293 -32.531  1.00  0.00     0.033 A 
BRANCH  27  30
HETATM   30  O   UNL     1      -6.774  -2.659 -34.556  1.00  0.00    -0.351 OA
BRANCH  30  31
HETATM   31  C   UNL     1      -5.653  -3.270 -35.198  1.00  0.00     0.175 C 
BRANCH  31  32
HETATM   32  C   UNL     1      -5.572  -4.716 -34.719  1.00  0.00     0.022 C 
HETATM   33  C   UNL     1      -4.284  -4.989 -33.964  1.00  0.00     0.007 C 
ENDBRANCH  31  32
ENDBRANCH  30  31
ENDBRANCH  27  30
ENDBRANCH   1  24
TORSDOF 7
ENDMDL
MODEL 2
REMARK VINA RESULT:      -8.8      3.056      4.285
REMARK  7 active torsions:
REMARK  status: ('A' for Active; 'I' for Inactive)
REMARK    1  A    between atoms: C_2  and  C_3 
REMARK    2  A    between atoms: C_3  and  O_4 
REMARK    3  A    between atoms: O_4  and  C_5 
REMARK    4  A    between atoms: C_8  and  N_9 
REMARK    5  A    between atoms: C_12  and  N_13 
REMARK    6  A    between atoms: C_17  and  O_18 
REMARK    7  A    between atoms: C_17  and  C_19 
ROOT
HETATM    1  N   UNL     1      -7.228   2.674 -32.256  1.00  0.00    -0.251 N 
HETATM    2  C   UNL     1      -6.187   2.959 -33.111  1.00  0.00     0.262 C 
HETATM    3  O   UNL     1      -6.107   2.936 -34.331  1.00  0.00    -0.270 OA
HETATM    4  C   UNL     1      -5.006   3.379 -32.269  1.00  0.00     0.289 C 
HETATM    5  C   UNL     1      -5.642   3.885 -31.003  1.00  0.00     0.146 C 
HETATM    6  C   UNL     1      -6.924   3.099 -30.976  1.00  0.00     0.233 C 
HETATM    7  O   UNL     1      -7.528   2.935 -29.929  1.00  0.00    -0.273 OA
ENDROOT
BRANCH   4   8
HETATM    8  N   UNL     1      -4.044   4.368 -32.949  1.00  0.00    -0.058 N 
HETATM    9  H   UNL     1      -4.386   4.396 -33.927  1.00  0.00     0.281 HD
HETATM   10  C   UNL     1      -4.140   5.805 -32.475  1.00  0.00     0.239 C 
HETATM   11  C   UNL     1      -3.215   6.683 -33.303  1.00  0.00     0.071 C 
HETATM   12  C   UNL     1      -1.747   6.208 -33.223  1.00  0.00     0.088 C 
HETATM   13  C   UNL     1      -1.739   4.772 -33.787  1.00  0.00     0.071 C 
HETATM   14  C   UNL     1      -2.631   3.840 -32.985  1.00  0.00     0.239 C 
BRANCH  12  15
HETATM   15  O   UNL     1      -1.007   7.007 -34.146  1.00  0.00    -0.385 OA
HETATM   16  H   UNL     1      -0.328   6.462 -34.585  1.00  0.00     0.211 HD
ENDBRANCH  12  15
BRANCH  12  17
HETATM   17  C   UNL     1      -1.104   6.360 -31.839  1.00  0.00    -0.024 A 
HETATM   18  C   UNL     1      -0.163   5.432 -31.351  1.00  0.00     0.011 A 
HETATM   19  C   UNL     1       0.400   5.563 -30.077  1.00  0.00     0.020 A 
HETATM   20  C   UNL     1       0.058   6.644 -29.275  1.00  0.00     0.011 A 
HETATM   21 BR   UNL     1       0.806   6.814 -27.549  1.00  0.00    -0.051 Br
HETATM   22  C   UNL     1      -0.824   7.607 -29.748  1.00  0.00     0.020 A 
HETATM   23  C   UNL     1      -1.386   7.474 -31.023  1.00  0.00     0.011 A 
ENDBRANCH  12  17
ENDBRANCH   4   8
BRANCH   1  24
HETATM   24  C   UNL     1      -8.433   2.002 -32.631  1.00  0.00     0.045 A 
HETATM   25  C   UNL     1      -8.607   0.625 -32.410  1.00  0.00     0.033 A 
HETATM   26  C   UNL     1      -9.815  -0.025 -32.711  1.00  0.00     0.039 A 
HETATM   27  C   UNL     1     -10.882   0.688 -33.240  1.00  0.00     0.068 A 
HETATM   28  C   UNL     1     -10.715   2.041 -33.510  1.00  0.00     0.039 A 
HETATM   29  C   UNL     1      -9.511   2.691 -33.208  1.00  0.00     0.033 A 
BRANCH  27  30
HETATM   30  O   UNL     1     -12.113   0.184 -33.545  1.00  0.00    -0.351 OA
BRANCH  30  31
HETATM   31  C   UNL     1     -12.923   0.958 -34.433  1.00  0.00     0.175 C 
BRANCH  31  32
HETATM   32  C   UNL     1     -14.375   0.806 -33.991  1.00  0.00     0.022 C 
HETATM   33  C   UNL     1     -14.720   1.751 -32.854  1.00  0.00     0.007 C 
ENDBRANCH  31  32
ENDBRANCH  30  31
ENDBRANCH  27  30
ENDBRANCH   1  24
TORSDOF 7
ENDMDL
MODEL 3
REMARK VINA RESULT:      -8.5      0.854      1.500
REMARK  7 active torsions:
REMARK  status: ('A' for Active; 'I' for Inactive)
REMARK    1  A    between atoms: C_2  and  C_3 
REMARK    2  A    between atoms: C_3  and  O_4 
REMARK    3  A    between atoms: O_4  and  C_5 
REMARK    4  A    between atoms: C_8  and  N_9 
REMARK    5  A    between atoms: C_12  and  N_13 
REMARK    6  A    between atoms: C_17  and  O_18 
REMARK    7  A    between atoms: C_17  and  C_19 
ROOT
HETATM    1  N   UNL     1      -4.779   2.401 -31.884  1.00  0.00    -0.251 N 
HETATM    2  C   UNL     1      -3.898   3.421 -32.162  1.00  0.00     0.262 C 
HETATM    3  O   UNL     1      -3.216   3.662 -33.149  1.00  0.00    -0.270 OA
HETATM    4  C   UNL     1      -3.877   4.345 -30.968  1.00  0.00     0.289 C 
HETATM    5  C   UNL     1      -5.213   4.108 -30.319  1.00  0.00     0.146 C 
HETATM    6  C   UNL     1      -5.509   2.697 -30.748  1.00  0.00     0.233 C 
HETATM    7  O   UNL     1      -6.301   2.012 -30.122  1.00  0.00    -0.273 OA
ENDROOT
BRANCH   4   8
HETATM    8  N   UNL     1      -3.567   5.816 -31.292  1.00  0.00    -0.058 N 
HETATM    9  H   UNL     1      -4.193   6.019 -32.092  1.00  0.00     0.281 HD
HETATM   10  C   UNL     1      -3.973   6.819 -30.230  1.00  0.00     0.239 C 
HETATM   11  C   UNL     1      -3.707   8.231 -30.728  1.00  0.00     0.071 C 
HETATM   12  C   UNL     1      -2.222   8.441 -31.097  1.00  0.00     0.088 C 
HETATM   13  C   UNL     1      -1.922   7.431 -32.223  1.00  0.00     0.071 C 
HETATM   14  C   UNL     1      -2.149   5.996 -31.777  1.00  0.00     0.239 C 
BRANCH  12  15
HETATM   15  O   UNL     1      -2.123   9.739 -31.683  1.00  0.00    -0.385 OA
HETATM   16  H   UNL     1      -2.910  10.267 -31.450  1.00  0.00     0.211 HD
ENDBRANCH  12  15
BRANCH  12  17
HETATM   17  C   UNL     1      -1.256   8.383 -29.905  1.00  0.00    -0.024 A 
HETATM   18  C   UNL     1      -1.455   9.164 -28.750  1.00  0.00     0.011 A 
HETATM   19  C   UNL     1      -0.556   9.124 -27.678  1.00  0.00     0.020 A 
HETATM   20  C   UNL     1       0.544   8.279 -27.725  1.00  0.00     0.011 A 
HETATM   21 BR   UNL     1       1.766   8.235 -26.286  1.00  0.00    -0.051 Br
HETATM   22  C   UNL     1       0.738   7.454 -28.826  1.00  0.00     0.020 A 
HETATM   23  C   UNL     1      -0.163   7.494 -29.897  1.00  0.00     0.011 A 
ENDBRANCH  12  17
ENDBRANCH   4   8
BRANCH   1  24
HETATM   24  C   UNL     1      -4.895   1.192 -32.641  1.00  0.00     0.045 A 
HETATM   25  C   UNL     1      -3.983   0.135 -32.482  1.00  0.00     0.033 A 
HETATM   26  C   UNL     1      -4.135  -1.080 -33.169  1.00  0.00     0.039 A 
HETATM   27  C   UNL     1      -5.205  -1.269 -34.033  1.00  0.00     0.068 A 
HETATM   28  C   UNL     1      -6.091  -0.218 -34.240  1.00  0.00     0.039 A 
HETATM   29  C   UNL     1      -5.942   0.993 -33.552  1.00  0.00     0.033 A 
BRANCH  27  30
HETATM   30  O   UNL     1      -5.481  -2.408 -34.733  1.00  0.00    -0.351 OA
BRANCH  30  31
HETATM   31  C   UNL     1      -6.806  -2.931 -34.611  1.00  0.00     0.175 C 
BRANCH  31  32
HETATM   32  C   UNL     1      -6.729  -4.442 -34.798  1.00  0.00     0.022 C 
HETATM   33  C   UNL     1      -5.305  -4.954 -34.678  1.00  0.00     0.007 C 
ENDBRANCH  31  32
ENDBRANCH  30  31
ENDBRANCH  27  30
ENDBRANCH   1  24
TORSDOF 7
ENDMDL
MODEL 4
REMARK VINA RESULT:      -8.1      4.174     10.034
REMARK  7 active torsions:
REMARK  status: ('A' for Active; 'I' for Inactive)
REMARK    1  A    between atoms: C_2  and  C_3 
REMARK    2  A    between atoms: C_3  and  O_4 
REMARK    3  A    between atoms: O_4  and  C_5 
REMARK    4  A    between atoms: C_8  and  N_9 
REMARK    5  A    between atoms: C_12  and  N_13 
REMARK    6  A    between atoms: C_17  and  O_18 
REMARK    7  A    between atoms: C_17  and  C_19 
ROOT
HETATM    1  N   UNL     1      -3.920   4.366 -32.612  1.00  0.00    -0.251 N 
HETATM    2  C   UNL     1      -4.458   3.151 -32.255  1.00  0.00     0.262 C 
HETATM    3  O   UNL     1      -4.316   2.461 -31.255  1.00  0.00    -0.270 OA
HETATM    4  C   UNL     1      -5.378   2.713 -33.369  1.00  0.00     0.289 C 
HETATM    5  C   UNL     1      -5.768   4.007 -34.029  1.00  0.00     0.146 C 
HETATM    6  C   UNL     1      -4.579   4.873 -33.717  1.00  0.00     0.233 C 
HETATM    7  O   UNL     1      -4.336   5.859 -34.394  1.00  0.00    -0.273 OA
ENDROOT
BRANCH   4   8
HETATM    8  N   UNL     1      -6.558   1.831 -32.926  1.00  0.00    -0.058 N 
HETATM    9  H   UNL     1      -6.095   1.047 -32.432  1.00  0.00     0.281 HD
HETATM   10  C   UNL     1      -7.476   2.442 -31.886  1.00  0.00     0.239 C 
HETATM   11  C   UNL     1      -8.527   1.426 -31.467  1.00  0.00     0.071 C 
HETATM   12  C   UNL     1      -9.362   0.933 -32.668  1.00  0.00     0.088 C 
HETATM   13  C   UNL     1      -8.358   0.271 -33.634  1.00  0.00     0.071 C 
HETATM   14  C   UNL     1      -7.293   1.246 -34.106  1.00  0.00     0.239 C 
BRANCH  12  15
HETATM   15  O   UNL     1     -10.204  -0.113 -32.182  1.00  0.00    -0.385 OA
HETATM   16  H   UNL     1     -10.008  -0.284 -31.242  1.00  0.00     0.211 HD
ENDBRANCH  12  15
BRANCH  12  17
HETATM   17  C   UNL     1     -10.256   2.005 -33.305  1.00  0.00    -0.024 A 
HETATM   18  C   UNL     1     -10.902   1.797 -34.539  1.00  0.00     0.011 A 
HETATM   19  C   UNL     1     -11.695   2.790 -35.126  1.00  0.00     0.020 A 
HETATM   20  C   UNL     1     -11.884   4.002 -34.474  1.00  0.00     0.011 A 
HETATM   21 BR   UNL     1     -12.942   5.348 -35.271  1.00  0.00    -0.051 Br
HETATM   22  C   UNL     1     -11.308   4.217 -33.229  1.00  0.00     0.020 A 
HETATM   23  C   UNL     1     -10.515   3.223 -32.644  1.00  0.00     0.011 A 
ENDBRANCH  12  17
ENDBRANCH   4   8
BRANCH   1  24
HETATM   24  C   UNL     1      -2.814   4.996 -31.958  1.00  0.00     0.045 A 
HETATM   25  C   UNL     1      -1.492   4.790 -32.387  1.00  0.00     0.033 A 
HETATM   26  C   UNL     1      -0.411   5.461 -31.794  1.00  0.00     0.039 A 
HETATM   27  C   UNL     1      -0.626   6.358 -30.755  1.00  0.00     0.068 A 
HETATM   28  C   UNL     1      -1.921   6.539 -30.285  1.00  0.00     0.039 A 
HETATM   29  C   UNL     1      -3.000   5.872 -30.879  1.00  0.00     0.033 A 
BRANCH  27  30
HETATM   30  O   UNL     1       0.331   7.094 -30.118  1.00  0.00    -0.351 OA
BRANCH  30  31
HETATM   31  C   UNL     1       0.411   6.952 -28.698  1.00  0.00     0.175 C 
BRANCH  31  32
HETATM   32  C   UNL     1       1.155   8.164 -28.150  1.00  0.00     0.022 C 
HETATM   33  C   UNL     1       1.599   7.952 -26.713  1.00  0.00     0.007 C 
ENDBRANCH  31  32
ENDBRANCH  30  31
ENDBRANCH  27  30
ENDBRANCH   1  24
TORSDOF 7
ENDMDL
MODEL 5
REMARK VINA RESULT:      -8.1      3.604     10.254
REMARK  7 active torsions:
REMARK  status: ('A' for Active; 'I' for Inactive)
REMARK    1  A    between atoms: C_2  and  C_3 
REMARK    2  A    between atoms: C_3  and  O_4 
REMARK    3  A    between atoms: O_4  and  C_5 
REMARK    4  A    between atoms: C_8  and  N_9 
REMARK    5  A    between atoms: C_12  and  N_13 
REMARK    6  A    between atoms: C_17  and  O_18 
REMARK    7  A    between atoms: C_17  and  C_19 
ROOT
HETATM    1  N   UNL     1      -2.310   5.673 -31.117  1.00  0.00    -0.251 N 
HETATM    2  C   UNL     1      -3.572   5.195 -30.846  1.00  0.00     0.262 C 
HETATM    3  O   UNL     1      -4.419   5.548 -30.037  1.00  0.00    -0.270 OA
HETATM    4  C   UNL     1      -3.841   4.051 -31.793  1.00  0.00     0.289 C 
HETATM    5  C   UNL     1      -2.933   4.342 -32.958  1.00  0.00     0.146 C 
HETATM    6  C   UNL     1      -1.835   5.125 -32.294  1.00  0.00     0.233 C 
HETATM    7  O   UNL     1      -0.734   5.209 -32.812  1.00  0.00    -0.273 OA
ENDROOT
BRANCH   4   8
HETATM    8  N   UNL     1      -5.321   3.849 -32.162  1.00  0.00    -0.058 N 
HETATM    9  H   UNL     1      -5.750   4.763 -31.928  1.00  0.00     0.281 HD
HETATM   10  C   UNL     1      -5.608   3.664 -33.638  1.00  0.00     0.239 C 
HETATM   11  C   UNL     1      -7.110   3.584 -33.864  1.00  0.00     0.071 C 
HETATM   12  C   UNL     1      -7.751   2.430 -33.064  1.00  0.00     0.088 C 
HETATM   13  C   UNL     1      -7.467   2.739 -31.580  1.00  0.00     0.071 C 
HETATM   14  C   UNL     1      -5.978   2.810 -31.287  1.00  0.00     0.239 C 
BRANCH  12  15
HETATM   15  O   UNL     1      -9.163   2.545 -33.237  1.00  0.00    -0.385 OA
HETATM   16  H   UNL     1      -9.393   2.415 -34.176  1.00  0.00     0.211 HD
ENDBRANCH  12  15
BRANCH  12  17
HETATM   17  C   UNL     1      -7.329   1.027 -33.522  1.00  0.00    -0.024 A 
HETATM   18  C   UNL     1      -6.774   0.090 -32.628  1.00  0.00     0.011 A 
HETATM   19  C   UNL     1      -6.367  -1.178 -33.058  1.00  0.00     0.020 A 
HETATM   20  C   UNL     1      -6.537  -1.548 -34.386  1.00  0.00     0.011 A 
HETATM   21 BR   UNL     1      -5.976  -3.253 -34.971  1.00  0.00    -0.051 Br
HETATM   22  C   UNL     1      -7.134  -0.668 -35.280  1.00  0.00     0.020 A 
HETATM   23  C   UNL     1      -7.540   0.600 -34.848  1.00  0.00     0.011 A 
ENDBRANCH  12  17
ENDBRANCH   4   8
BRANCH   1  24
HETATM   24  C   UNL     1      -1.580   6.577 -30.282  1.00  0.00     0.045 A 
HETATM   25  C   UNL     1      -2.034   7.885 -30.041  1.00  0.00     0.033 A 
HETATM   26  C   UNL     1      -1.359   8.751 -29.166  1.00  0.00     0.039 A 
HETATM   27  C   UNL     1      -0.212   8.329 -28.507  1.00  0.00     0.068 A 
HETATM   28  C   UNL     1       0.279   7.055 -28.767  1.00  0.00     0.039 A 
HETATM   29  C   UNL     1      -0.395   6.190 -29.639  1.00  0.00     0.033 A 
BRANCH  27  30
HETATM   30  O   UNL     1       0.515   9.059 -27.611  1.00  0.00    -0.351 OA
BRANCH  30  31
HETATM   31  C   UNL     1       1.857   8.630 -27.372  1.00  0.00     0.175 C 
BRANCH  31  32
HETATM   32  C   UNL     1       2.070   8.587 -25.862  1.00  0.00     0.022 C 
HETATM   33  C   UNL     1       0.992   9.355 -25.118  1.00  0.00     0.007 C 
ENDBRANCH  31  32
ENDBRANCH  30  31
ENDBRANCH  27  30
ENDBRANCH   1  24
TORSDOF 7
ENDMDL
MODEL 6
REMARK VINA RESULT:      -7.7      2.220      3.087
REMARK  7 active torsions:
REMARK  status: ('A' for Active; 'I' for Inactive)
REMARK    1  A    between atoms: C_2  and  C_3 
REMARK    2  A    between atoms: C_3  and  O_4 
REMARK    3  A    between atoms: O_4  and  C_5 
REMARK    4  A    between atoms: C_8  and  N_9 
REMARK    5  A    between atoms: C_12  and  N_13 
REMARK    6  A    between atoms: C_17  and  O_18 
REMARK    7  A    between atoms: C_17  and  C_19 
ROOT
HETATM    1  N   UNL     1      -4.993   2.906 -32.132  1.00  0.00    -0.251 N 
HETATM    2  C   UNL     1      -5.844   3.689 -31.386  1.00  0.00     0.262 C 
HETATM    3  O   UNL     1      -6.904   3.438 -30.830  1.00  0.00    -0.270 OA
HETATM    4  C   UNL     1      -5.237   5.069 -31.300  1.00  0.00     0.289 C 
HETATM    5  C   UNL     1      -3.768   4.818 -31.505  1.00  0.00     0.146 C 
HETATM    6  C   UNL     1      -3.790   3.559 -32.328  1.00  0.00     0.233 C 
HETATM    7  O   UNL     1      -2.831   3.252 -33.016  1.00  0.00    -0.273 OA
ENDROOT
BRANCH   4   8
HETATM    8  N   UNL     1      -5.587   5.852 -30.023  1.00  0.00    -0.058 N 
HETATM    9  H   UNL     1      -6.623   5.868 -30.033  1.00  0.00     0.281 HD
HETATM   10  C   UNL     1      -5.232   5.169 -28.718  1.00  0.00     0.239 C 
HETATM   11  C   UNL     1      -5.729   6.003 -27.548  1.00  0.00     0.071 C 
HETATM   12  C   UNL     1      -5.135   7.428 -27.564  1.00  0.00     0.088 C 
HETATM   13  C   UNL     1      -5.603   8.064 -28.889  1.00  0.00     0.071 C 
HETATM   14  C   UNL     1      -5.117   7.284 -30.099  1.00  0.00     0.239 C 
BRANCH  12  15
HETATM   15  O   UNL     1      -5.780   8.154 -26.518  1.00  0.00    -0.385 OA
HETATM   16  H   UNL     1      -6.270   8.909 -26.893  1.00  0.00     0.211 HD
ENDBRANCH  12  15
BRANCH  12  17
HETATM   17  C   UNL     1      -3.621   7.489 -27.321  1.00  0.00    -0.024 A 
HETATM   18  C   UNL     1      -2.786   8.358 -28.051  1.00  0.00     0.011 A 
HETATM   19  C   UNL     1      -1.402   8.389 -27.841  1.00  0.00     0.020 A 
HETATM   20  C   UNL     1      -0.828   7.574 -26.875  1.00  0.00     0.011 A 
HETATM   21 BR   UNL     1       1.040   7.604 -26.602  1.00  0.00    -0.051 Br
HETATM   22  C   UNL     1      -1.631   6.747 -26.099  1.00  0.00     0.020 A 
HETATM   23  C   UNL     1      -3.014   6.717 -26.310  1.00  0.00     0.011 A 
ENDBRANCH  12  17
ENDBRANCH   4   8
BRANCH   1  24
HETATM   24  C   UNL     1      -5.320   1.617 -32.661  1.00  0.00     0.045 A 
HETATM   25  C   UNL     1      -6.191   1.470 -33.753  1.00  0.00     0.033 A 
HETATM   26  C   UNL     1      -6.459   0.213 -34.320  1.00  0.00     0.039 A 
HETATM   27  C   UNL     1      -5.858  -0.929 -33.809  1.00  0.00     0.068 A 
HETATM   28  C   UNL     1      -5.030  -0.811 -32.699  1.00  0.00     0.039 A 
HETATM   29  C   UNL     1      -4.761   0.443 -32.134  1.00  0.00     0.033 A 
BRANCH  27  30
HETATM   30  O   UNL     1      -6.010  -2.199 -34.287  1.00  0.00    -0.351 OA
BRANCH  30  31
HETATM   31  C   UNL     1      -4.838  -3.017 -34.320  1.00  0.00     0.175 C 
BRANCH  31  32
HETATM   32  C   UNL     1      -5.275  -4.445 -34.627  1.00  0.00     0.022 C 
HETATM   33  C   UNL     1      -6.627  -4.486 -35.317  1.00  0.00     0.007 C 
ENDBRANCH  31  32
ENDBRANCH  30  31
ENDBRANCH  27  30
ENDBRANCH   1  24
TORSDOF 7
ENDMDL
MODEL 7
REMARK VINA RESULT:      -7.5      3.502      9.504
REMARK  7 active torsions:
REMARK  status: ('A' for Active; 'I' for Inactive)
REMARK    1  A    between atoms: C_2  and  C_3 
REMARK    2  A    between atoms: C_3  and  O_4 
REMARK    3  A    between atoms: O_4  and  C_5 
REMARK    4  A    between atoms: C_8  and  N_9 
REMARK    5  A    between atoms: C_12  and  N_13 
REMARK    6  A    between atoms: C_17  and  O_18 
REMARK    7  A    between atoms: C_17  and  C_19 
ROOT
HETATM    1  N   UNL     1      -5.412   6.180 -32.088  1.00  0.00    -0.251 N 
HETATM    2  C   UNL     1      -5.995   5.037 -32.586  1.00  0.00     0.262 C 
HETATM    3  O   UNL     1      -5.572   3.895 -32.707  1.00  0.00    -0.270 OA
HETATM    4  C   UNL     1      -7.404   5.384 -33.001  1.00  0.00     0.289 C 
HETATM    5  C   UNL     1      -7.733   6.581 -32.150  1.00  0.00     0.146 C 
HETATM    6  C   UNL     1      -6.368   7.164 -31.910  1.00  0.00     0.233 C 
HETATM    7  O   UNL     1      -6.241   8.336 -31.597  1.00  0.00    -0.273 OA
ENDROOT
BRANCH   4   8
HETATM    8  N   UNL     1      -8.412   4.226 -32.906  1.00  0.00    -0.058 N 
HETATM    9  H   UNL     1      -9.315   4.711 -32.755  1.00  0.00     0.281 HD
HETATM   10  C   UNL     1      -8.617   3.432 -34.180  1.00  0.00     0.239 C 
HETATM   11  C   UNL     1      -9.711   2.396 -33.970  1.00  0.00     0.071 C 
HETATM   12  C   UNL     1      -9.377   1.434 -32.809  1.00  0.00     0.088 C 
HETATM   13  C   UNL     1      -9.255   2.320 -31.552  1.00  0.00     0.071 C 
HETATM   14  C   UNL     1      -8.160   3.363 -31.694  1.00  0.00     0.239 C 
BRANCH  12  15
HETATM   15  O   UNL     1     -10.528   0.612 -32.613  1.00  0.00    -0.385 OA
HETATM   16  H   UNL     1     -11.323   1.171 -32.529  1.00  0.00     0.211 HD
ENDBRANCH  12  15
BRANCH  12  17
HETATM   17  C   UNL     1      -8.176   0.516 -33.069  1.00  0.00    -0.024 A 
HETATM   18  C   UNL     1      -7.270   0.171 -32.047  1.00  0.00     0.011 A 
HETATM   19  C   UNL     1      -6.162  -0.646 -32.298  1.00  0.00     0.020 A 
HETATM   20  C   UNL     1      -5.953  -1.162 -33.570  1.00  0.00     0.011 A 
HETATM   21 BR   UNL     1      -4.451  -2.252 -33.913  1.00  0.00    -0.051 Br
HETATM   22  C   UNL     1      -6.859  -0.887 -34.587  1.00  0.00     0.020 A 
HETATM   23  C   UNL     1      -7.967  -0.070 -34.334  1.00  0.00     0.011 A 
ENDBRANCH  12  17
ENDBRANCH   4   8
BRANCH   1  24
HETATM   24  C   UNL     1      -4.015   6.340 -31.829  1.00  0.00     0.045 A 
HETATM   25  C   UNL     1      -3.111   6.674 -32.852  1.00  0.00     0.033 A 
HETATM   26  C   UNL     1      -1.750   6.902 -32.589  1.00  0.00     0.039 A 
HETATM   27  C   UNL     1      -1.259   6.803 -31.294  1.00  0.00     0.068 A 
HETATM   28  C   UNL     1      -2.128   6.428 -30.276  1.00  0.00     0.039 A 
HETATM   29  C   UNL     1      -3.486   6.203 -30.537  1.00  0.00     0.033 A 
BRANCH  27  30
HETATM   30  O   UNL     1       0.029   7.030 -30.903  1.00  0.00    -0.351 OA
BRANCH  30  31
HETATM   31  C   UNL     1       0.383   6.611 -29.584  1.00  0.00     0.175 C 
BRANCH  31  32
HETATM   32  C   UNL     1       0.776   7.852 -28.790  1.00  0.00     0.022 C 
HETATM   33  C   UNL     1       1.158   7.511 -27.360  1.00  0.00     0.007 C 
ENDBRANCH  31  32
ENDBRANCH  30  31
ENDBRANCH  27  30
ENDBRANCH   1  24
TORSDOF 7
ENDMDL
MODEL 8
REMARK VINA RESULT:      -7.4      6.172      8.290
REMARK  7 active torsions:
REMARK  status: ('A' for Active; 'I' for Inactive)
REMARK    1  A    between atoms: C_2  and  C_3 
REMARK    2  A    between atoms: C_3  and  O_4 
REMARK    3  A    between atoms: O_4  and  C_5 
REMARK    4  A    between atoms: C_8  and  N_9 
REMARK    5  A    between atoms: C_12  and  N_13 
REMARK    6  A    between atoms: C_17  and  O_18 
REMARK    7  A    between atoms: C_17  and  C_19 
ROOT
HETATM    1  N   UNL     1      -6.977   1.348 -32.084  1.00  0.00    -0.251 N 
HETATM    2  C   UNL     1      -7.574   2.453 -32.645  1.00  0.00     0.262 C 
HETATM    3  O   UNL     1      -8.084   2.634 -33.742  1.00  0.00    -0.270 OA
HETATM    4  C   UNL     1      -7.547   3.559 -31.617  1.00  0.00     0.289 C 
HETATM    5  C   UNL     1      -7.468   2.818 -30.310  1.00  0.00     0.146 C 
HETATM    6  C   UNL     1      -6.789   1.543 -30.728  1.00  0.00     0.233 C 
HETATM    7  O   UNL     1      -6.203   0.856 -29.908  1.00  0.00    -0.273 OA
ENDROOT
BRANCH   4   8
HETATM    8  N   UNL     1      -8.704   4.568 -31.719  1.00  0.00    -0.058 N 
HETATM    9  H   UNL     1      -8.266   5.460 -31.425  1.00  0.00     0.281 HD
HETATM   10  C   UNL     1      -9.211   4.841 -33.121  1.00  0.00     0.239 C 
HETATM   11  C   UNL     1     -10.273   5.929 -33.081  1.00  0.00     0.071 C 
HETATM   12  C   UNL     1     -11.457   5.544 -32.168  1.00  0.00     0.088 C 
HETATM   13  C   UNL     1     -10.858   5.354 -30.760  1.00  0.00     0.071 C 
HETATM   14  C   UNL     1      -9.803   4.261 -30.732  1.00  0.00     0.239 C 
BRANCH  12  15
HETATM   15  O   UNL     1     -12.307   6.688 -32.094  1.00  0.00    -0.385 OA
HETATM   16  H   UNL     1     -12.944   6.580 -31.363  1.00  0.00     0.211 HD
ENDBRANCH  12  15
BRANCH  12  17
HETATM   17  C   UNL     1     -12.294   4.362 -32.676  1.00  0.00    -0.024 A 
HETATM   18  C   UNL     1     -13.258   3.732 -31.865  1.00  0.00     0.011 A 
HETATM   19  C   UNL     1     -13.999   2.638 -32.327  1.00  0.00     0.020 A 
HETATM   20  C   UNL     1     -13.814   2.171 -33.621  1.00  0.00     0.011 A 
HETATM   21 BR   UNL     1     -14.802   0.686 -34.241  1.00  0.00    -0.051 Br
HETATM   22  C   UNL     1     -12.912   2.806 -34.465  1.00  0.00     0.020 A 
HETATM   23  C   UNL     1     -12.172   3.900 -34.002  1.00  0.00     0.011 A 
ENDBRANCH  12  17
ENDBRANCH   4   8
BRANCH   1  24
HETATM   24  C   UNL     1      -6.573   0.181 -32.806  1.00  0.00     0.045 A 
HETATM   25  C   UNL     1      -7.514  -0.729 -33.318  1.00  0.00     0.033 A 
HETATM   26  C   UNL     1      -7.126  -1.837 -34.088  1.00  0.00     0.039 A 
HETATM   27  C   UNL     1      -5.785  -2.062 -34.368  1.00  0.00     0.068 A 
HETATM   28  C   UNL     1      -4.835  -1.201 -33.832  1.00  0.00     0.039 A 
HETATM   29  C   UNL     1      -5.222  -0.093 -33.065  1.00  0.00     0.033 A 
BRANCH  27  30
HETATM   30  O   UNL     1      -5.282  -3.079 -35.127  1.00  0.00    -0.351 OA
BRANCH  30  31
HETATM   31  C   UNL     1      -5.170  -4.357 -34.496  1.00  0.00     0.175 C 
BRANCH  31  32
HETATM   32  C   UNL     1      -3.693  -4.607 -34.210  1.00  0.00     0.022 C 
HETATM   33  C   UNL     1      -3.348  -4.344 -32.755  1.00  0.00     0.007 C 
ENDBRANCH  31  32
ENDBRANCH  30  31
ENDBRANCH  27  30
ENDBRANCH   1  24
TORSDOF 7
ENDMDL
MODEL 9
REMARK VINA RESULT:      -7.4      6.358      9.835
REMARK  7 active torsions:
REMARK  status: ('A' for Active; 'I' for Inactive)
REMARK    1  A    between atoms: C_2  and  C_3 
REMARK    2  A    between atoms: C_3  and  O_4 
REMARK    3  A    between atoms: O_4  and  C_5 
REMARK    4  A    between atoms: C_8  and  N_9 
REMARK    5  A    between atoms: C_12  and  N_13 
REMARK    6  A    between atoms: C_17  and  O_18 
REMARK    7  A    between atoms: C_17  and  C_19 
ROOT
HETATM    1  N   UNL     1     -10.669   3.009 -32.952  1.00  0.00    -0.251 N 
HETATM    2  C   UNL     1      -9.692   2.923 -31.986  1.00  0.00     0.262 C 
HETATM    3  O   UNL     1      -9.753   2.702 -30.785  1.00  0.00    -0.270 OA
HETATM    4  C   UNL     1      -8.360   3.139 -32.664  1.00  0.00     0.289 C 
HETATM    5  C   UNL     1      -8.624   2.737 -34.089  1.00  0.00     0.146 C 
HETATM    6  C   UNL     1     -10.098   3.012 -34.211  1.00  0.00     0.233 C 
HETATM    7  O   UNL     1     -10.608   3.182 -35.305  1.00  0.00    -0.273 OA
ENDROOT
BRANCH   4   8
HETATM    8  N   UNL     1      -7.172   2.423 -31.999  1.00  0.00    -0.058 N 
HETATM    9  H   UNL     1      -6.891   3.078 -31.247  1.00  0.00     0.281 HD
HETATM   10  C   UNL     1      -7.506   1.135 -31.273  1.00  0.00     0.239 C 
HETATM   11  C   UNL     1      -6.265   0.597 -30.580  1.00  0.00     0.071 C 
HETATM   12  C   UNL     1      -5.113   0.345 -31.577  1.00  0.00     0.088 C 
HETATM   13  C   UNL     1      -4.798   1.715 -32.212  1.00  0.00     0.071 C 
HETATM   14  C   UNL     1      -5.999   2.294 -32.941  1.00  0.00     0.239 C 
BRANCH  12  15
HETATM   15  O   UNL     1      -3.969  -0.012 -30.801  1.00  0.00    -0.385 OA
HETATM   16  H   UNL     1      -3.986  -0.967 -30.607  1.00  0.00     0.211 HD
ENDBRANCH  12  15
BRANCH  12  17
HETATM   17  C   UNL     1      -5.377  -0.785 -32.581  1.00  0.00    -0.024 A 
HETATM   18  C   UNL     1      -6.652  -0.995 -33.143  1.00  0.00     0.011 A 
HETATM   19  C   UNL     1      -6.892  -2.044 -34.038  1.00  0.00     0.020 A 
HETATM   20  C   UNL     1      -5.854  -2.885 -34.416  1.00  0.00     0.011 A 
HETATM   21 BR   UNL     1      -6.179  -4.309 -35.613  1.00  0.00    -0.051 Br
HETATM   22  C   UNL     1      -4.572  -2.669 -33.925  1.00  0.00     0.020 A 
HETATM   23  C   UNL     1      -4.335  -1.619 -33.029  1.00  0.00     0.011 A 
ENDBRANCH  12  17
ENDBRANCH   4   8
BRANCH   1  24
HETATM   24  C   UNL     1     -12.071   3.118 -32.689  1.00  0.00     0.045 A 
HETATM   25  C   UNL     1     -12.977   2.129 -33.110  1.00  0.00     0.033 A 
HETATM   26  C   UNL     1     -14.344   2.197 -32.792  1.00  0.00     0.039 A 
HETATM   27  C   UNL     1     -14.838   3.256 -32.043  1.00  0.00     0.068 A 
HETATM   28  C   UNL     1     -13.967   4.268 -31.658  1.00  0.00     0.039 A 
HETATM   29  C   UNL     1     -12.603   4.200 -31.972  1.00  0.00     0.033 A 
BRANCH  27  30
HETATM   30  O   UNL     1     -16.133   3.421 -31.643  1.00  0.00    -0.351 OA
BRANCH  30  31
HETATM   31  C   UNL     1     -17.121   2.647 -32.328  1.00  0.00     0.175 C 
BRANCH  31  32
HETATM   32  C   UNL     1     -18.250   3.588 -32.734  1.00  0.00     0.022 C 
HETATM   33  C   UNL     1     -18.819   4.335 -31.541  1.00  0.00     0.007 C 
ENDBRANCH  31  32
ENDBRANCH  30  31
ENDBRANCH  27  30
ENDBRANCH   1  24
TORSDOF 7
ENDMDL
MODEL 10
REMARK VINA RESULT:      -7.4      3.870      5.384
REMARK  7 active torsions:
REMARK  status: ('A' for Active; 'I' for Inactive)
REMARK    1  A    between atoms: C_2  and  C_3 
REMARK    2  A    between atoms: C_3  and  O_4 
REMARK    3  A    between atoms: O_4  and  C_5 
REMARK    4  A    between atoms: C_8  and  N_9 
REMARK    5  A    between atoms: C_12  and  N_13 
REMARK    6  A    between atoms: C_17  and  O_18 
REMARK    7  A    between atoms: C_17  and  C_19 
ROOT
HETATM    1  N   UNL     1      -7.458   4.151 -31.996  1.00  0.00    -0.251 N 
HETATM    2  C   UNL     1      -6.530   4.339 -32.995  1.00  0.00     0.262 C 
HETATM    3  O   UNL     1      -6.650   4.681 -34.163  1.00  0.00    -0.270 OA
HETATM    4  C   UNL     1      -5.166   4.062 -32.410  1.00  0.00     0.289 C 
HETATM    5  C   UNL     1      -5.359   4.316 -30.939  1.00  0.00     0.146 C 
HETATM    6  C   UNL     1      -6.824   4.023 -30.774  1.00  0.00     0.233 C 
HETATM    7  O   UNL     1      -7.280   3.740 -29.678  1.00  0.00    -0.273 OA
ENDROOT
BRANCH   4   8
HETATM    8  N   UNL     1      -4.011   4.848 -33.056  1.00  0.00    -0.058 N 
HETATM    9  H   UNL     1      -4.271   4.869 -34.058  1.00  0.00     0.281 HD
HETATM   10  C   UNL     1      -3.912   6.308 -32.660  1.00  0.00     0.239 C 
HETATM   11  C   UNL     1      -2.801   6.981 -33.451  1.00  0.00     0.071 C 
HETATM   12  C   UNL     1      -1.438   6.291 -33.228  1.00  0.00     0.088 C 
HETATM   13  C   UNL     1      -1.616   4.840 -33.718  1.00  0.00     0.071 C 
HETATM   14  C   UNL     1      -2.701   4.107 -32.949  1.00  0.00     0.239 C 
BRANCH  12  15
HETATM   15  O   UNL     1      -0.514   6.909 -34.124  1.00  0.00    -0.385 OA
HETATM   16  H   UNL     1      -0.477   7.868 -33.951  1.00  0.00     0.211 HD
ENDBRANCH  12  15
BRANCH  12  17
HETATM   17  C   UNL     1      -0.883   6.426 -31.804  1.00  0.00    -0.024 A 
HETATM   18  C   UNL     1      -1.227   7.510 -30.972  1.00  0.00     0.011 A 
HETATM   19  C   UNL     1      -0.696   7.639 -29.684  1.00  0.00     0.020 A 
HETATM   20  C   UNL     1       0.166   6.670 -29.187  1.00  0.00     0.011 A 
HETATM   21 BR   UNL     1       0.894   6.851 -27.455  1.00  0.00    -0.051 Br
HETATM   22  C   UNL     1       0.480   5.560 -29.961  1.00  0.00     0.020 A 
HETATM   23  C   UNL     1      -0.052   5.432 -31.249  1.00  0.00     0.011 A 
ENDBRANCH  12  17
ENDBRANCH   4   8
BRANCH   1  24
HETATM   24  C   UNL     1      -8.871   4.062 -32.199  1.00  0.00     0.045 A 
HETATM   25  C   UNL     1      -9.746   5.052 -31.721  1.00  0.00     0.033 A 
HETATM   26  C   UNL     1     -11.126   5.006 -31.979  1.00  0.00     0.039 A 
HETATM   27  C   UNL     1     -11.665   3.966 -32.726  1.00  0.00     0.068 A 
HETATM   28  C   UNL     1     -10.823   2.953 -33.168  1.00  0.00     0.039 A 
HETATM   29  C   UNL     1      -9.446   3.000 -32.912  1.00  0.00     0.033 A 
BRANCH  27  30
HETATM   30  O   UNL     1     -12.978   3.823 -33.072  1.00  0.00    -0.351 OA
BRANCH  30  31
HETATM   31  C   UNL     1     -13.598   2.580 -32.736  1.00  0.00     0.175 C 
BRANCH  31  32
HETATM   32  C   UNL     1     -14.955   2.890 -32.112  1.00  0.00     0.022 C 
HETATM   33  C   UNL     1     -15.016   4.306 -31.570  1.00  0.00     0.007 C 
ENDBRANCH  31  32
ENDBRANCH  30  31
ENDBRANCH  27  30
ENDBRANCH   1  24
TORSDOF 7
ENDMDL
