MODEL 1
REMARK VINA RESULT:      -9.2      0.000      0.000
REMARK  9 active torsions:
REMARK  status: ('A' for Active; 'I' for Inactive)
REMARK    1  A    between atoms: O_2  and  C_3 
REMARK    2  A    between atoms: C_5  and  O_6 
REMARK    3  A    between atoms: C_9  and  C_10 
REMARK       I    between atoms: C_10  and  N_11 
REMARK    4  A    between atoms: N_11  and  C_12 
REMARK    5  A    between atoms: C_12  and  N_13 
REMARK    6  A    between atoms: N_13  and  C_14 
REMARK    7  A    between atoms: C_17  and  N_18 
REMARK    8  A    between atoms: N_21  and  C_23 
REMARK    9  A    between atoms: C_23  and  C_24 
ROOT
HETATM    1  C   UNL     1      -5.680   5.716 -29.947  1.00  0.00     0.034 A 
HETATM    2  C   UNL     1      -6.868   5.143 -29.496  1.00  0.00     0.032 A 
HETATM    3  C   UNL     1      -7.122   3.768 -29.650  1.00  0.00     0.031 A 
HETATM    4  C   UNL     1      -6.210   2.913 -30.274  1.00  0.00     0.030 A 
HETATM    5  C   UNL     1      -5.048   3.521 -30.780  1.00  0.00     0.031 A 
HETATM    6  C   UNL     1      -4.783   4.894 -30.622  1.00  0.00     0.032 A 
ENDROOT
BRANCH   1   7
HETATM    7  N   UNL     1      -5.381   7.097 -29.842  1.00  0.00    -0.333 N 
HETATM    8  H   UNL     1      -5.990   7.717 -30.362  1.00  0.00     0.168 HD
BRANCH   7   9
HETATM    9  C   UNL     1      -4.279   7.692 -29.293  1.00  0.00     0.179 C 
HETATM   10  S   UNL     1      -3.741   7.546 -27.709  1.00  0.00    -0.040 SA
BRANCH   9  11
HETATM   11  N   UNL     1      -3.511   8.510 -30.114  1.00  0.00    -0.299 N 
HETATM   12  C   UNL     1      -2.676   8.510 -31.236  1.00  0.00     0.258 C 
HETATM   13  O   UNL     1      -2.336   9.596 -31.708  1.00  0.00    -0.267 OA
HETATM   14  H   UNL     1      -3.628   9.478 -29.830  1.00  0.00     0.171 HD
BRANCH  12  15
HETATM   15  C   UNL     1      -2.101   7.290 -31.826  1.00  0.00     0.037 A 
HETATM   16  C   UNL     1      -1.293   6.395 -31.125  1.00  0.00     0.054 A 
HETATM   17  C   UNL     1      -0.816   5.239 -31.757  1.00  0.00     0.071 A 
HETATM   18  C   UNL     1      -1.232   4.934 -33.058  1.00  0.00     0.073 A 
HETATM   19  C   UNL     1      -2.111   5.786 -33.724  1.00  0.00     0.071 A 
HETATM   20  C   UNL     1      -2.517   6.975 -33.126  1.00  0.00     0.054 A 
BRANCH  17  21
HETATM   21  O   UNL     1       0.049   4.491 -31.003  1.00  0.00    -0.356 OA
HETATM   22  C   UNL     1       0.518   5.082 -29.794  1.00  0.00     0.210 C 
ENDBRANCH  17  21
BRANCH  19  23
HETATM   23  O   UNL     1      -2.585   5.553 -34.986  1.00  0.00    -0.356 OA
HETATM   24  C   UNL     1      -3.952   5.142 -35.020  1.00  0.00     0.210 C 
ENDBRANCH  19  23
ENDBRANCH  12  15
ENDBRANCH   9  11
ENDBRANCH   7   9
ENDBRANCH   1   7
BRANCH   4  25
HETATM   25  N   UNL     1      -6.439   1.549 -30.454  1.00  0.00    -0.378 N 
HETATM   26  C   UNL     1      -5.393   0.547 -30.167  1.00  0.00     0.150 C 
HETATM   27  C   UNL     1      -4.621   0.152 -31.446  1.00  0.00     0.255 C 
HETATM   28  N   UNL     1      -5.594  -0.300 -32.535  1.00  0.00    -0.064 N 
HETATM   29  H   UNL     1      -6.101  -1.119 -32.166  1.00  0.00     0.280 HD
HETATM   30  C   UNL     1      -6.637   0.787 -32.809  1.00  0.00     0.255 C 
HETATM   31  C   UNL     1      -7.390   1.139 -31.509  1.00  0.00     0.150 C 
BRANCH  28  32
HETATM   32  C   UNL     1      -4.885  -0.776 -33.779  1.00  0.00     0.276 C 
BRANCH  32  33
HETATM   33  C   UNL     1      -5.132  -2.221 -34.109  1.00  0.00     0.006 A 
HETATM   34  C   UNL     1      -6.350  -2.615 -34.674  1.00  0.00     0.124 A 
HETATM   35  F   UNL     1      -7.271  -1.676 -34.947  1.00  0.00    -0.206 F 
HETATM   36  C   UNL     1      -6.609  -3.940 -35.003  1.00  0.00     0.043 A 
HETATM   37  C   UNL     1      -5.637  -4.906 -34.754  1.00  0.00     0.003 A 
HETATM   38  C   UNL     1      -4.421  -4.539 -34.175  1.00  0.00     0.001 A 
HETATM   39  C   UNL     1      -4.168  -3.204 -33.849  1.00  0.00     0.012 A 
ENDBRANCH  32  33
ENDBRANCH  28  32
ENDBRANCH   4  25
TORSDOF 9
ENDMDL
MODEL 2
REMARK VINA RESULT:      -8.9      0.575      2.221
REMARK  9 active torsions:
REMARK  status: ('A' for Active; 'I' for Inactive)
REMARK    1  A    between atoms: O_2  and  C_3 
REMARK    2  A    between atoms: C_5  and  O_6 
REMARK    3  A    between atoms: C_9  and  C_10 
REMARK       I    between atoms: C_10  and  N_11 
REMARK    4  A    between atoms: N_11  and  C_12 
REMARK    5  A    between atoms: C_12  and  N_13 
REMARK    6  A    between atoms: N_13  and  C_14 
REMARK    7  A    between atoms: C_17  and  N_18 
REMARK    8  A    between atoms: N_21  and  C_23 
REMARK    9  A    between atoms: C_23  and  C_24 
ROOT
HETATM    1  C   UNL     1      -6.189   5.454 -29.752  1.00  0.00     0.034 A 
HETATM    2  C   UNL     1      -7.421   4.830 -29.563  1.00  0.00     0.032 A 
HETATM    3  C   UNL     1      -7.574   3.443 -29.742  1.00  0.00     0.031 A 
HETATM    4  C   UNL     1      -6.510   2.626 -30.133  1.00  0.00     0.030 A 
HETATM    5  C   UNL     1      -5.292   3.284 -30.383  1.00  0.00     0.031 A 
HETATM    6  C   UNL     1      -5.129   4.669 -30.198  1.00  0.00     0.032 A 
ENDROOT
BRANCH   1   7
HETATM    7  N   UNL     1      -5.982   6.849 -29.611  1.00  0.00    -0.333 N 
HETATM    8  H   UNL     1      -6.587   7.439 -30.169  1.00  0.00     0.168 HD
BRANCH   7   9
HETATM    9  C   UNL     1      -4.961   7.499 -28.975  1.00  0.00     0.179 C 
HETATM   10  S   UNL     1      -4.616   7.466 -27.332  1.00  0.00    -0.040 SA
BRANCH   9  11
HETATM   11  N   UNL     1      -4.110   8.277 -29.751  1.00  0.00    -0.299 N 
HETATM   12  C   UNL     1      -3.287   8.257 -30.882  1.00  0.00     0.258 C 
HETATM   13  O   UNL     1      -2.828   9.327 -31.286  1.00  0.00    -0.267 OA
HETATM   14  H   UNL     1      -4.113   9.231 -29.403  1.00  0.00     0.171 HD
BRANCH  12  15
HETATM   15  C   UNL     1      -2.858   7.022 -31.559  1.00  0.00     0.037 A 
HETATM   16  C   UNL     1      -3.292   6.642 -32.828  1.00  0.00     0.054 A 
HETATM   17  C   UNL     1      -2.804   5.465 -33.411  1.00  0.00     0.071 A 
HETATM   18  C   UNL     1      -1.809   4.726 -32.763  1.00  0.00     0.073 A 
HETATM   19  C   UNL     1      -1.313   5.158 -31.533  1.00  0.00     0.071 A 
HETATM   20  C   UNL     1      -1.858   6.281 -30.918  1.00  0.00     0.054 A 
BRANCH  17  21
HETATM   21  O   UNL     1      -3.379   5.142 -34.613  1.00  0.00    -0.356 OA
HETATM   22  C   UNL     1      -4.773   4.849 -34.596  1.00  0.00     0.210 C 
ENDBRANCH  17  21
BRANCH  19  23
HETATM   23  O   UNL     1      -0.325   4.510 -30.843  1.00  0.00    -0.356 OA
HETATM   24  C   UNL     1       0.263   5.296 -29.807  1.00  0.00     0.210 C 
ENDBRANCH  19  23
ENDBRANCH  12  15
ENDBRANCH   9  11
ENDBRANCH   7   9
ENDBRANCH   1   7
BRANCH   4  25
HETATM   25  N   UNL     1      -6.634   1.251 -30.333  1.00  0.00    -0.378 N 
HETATM   26  C   UNL     1      -5.512   0.329 -30.064  1.00  0.00     0.150 C 
HETATM   27  C   UNL     1      -4.717   0.014 -31.351  1.00  0.00     0.255 C 
HETATM   28  N   UNL     1      -5.656  -0.496 -32.443  1.00  0.00    -0.064 N 
HETATM   29  H   UNL     1      -6.096  -1.357 -32.085  1.00  0.00     0.280 HD
HETATM   30  C   UNL     1      -6.780   0.510 -32.699  1.00  0.00     0.255 C 
HETATM   31  C   UNL     1      -7.554   0.784 -31.391  1.00  0.00     0.150 C 
BRANCH  28  32
HETATM   32  C   UNL     1      -4.916  -0.898 -33.696  1.00  0.00     0.276 C 
BRANCH  32  33
HETATM   33  C   UNL     1      -5.075  -2.347 -34.062  1.00  0.00     0.006 A 
HETATM   34  C   UNL     1      -6.236  -2.786 -34.706  1.00  0.00     0.124 A 
HETATM   35  F   UNL     1      -7.183  -1.887 -35.019  1.00  0.00    -0.206 F 
HETATM   36  C   UNL     1      -6.412  -4.116 -35.069  1.00  0.00     0.043 A 
HETATM   37  C   UNL     1      -5.413  -5.040 -34.777  1.00  0.00     0.003 A 
HETATM   38  C   UNL     1      -4.252  -4.628 -34.119  1.00  0.00     0.001 A 
HETATM   39  C   UNL     1      -4.082  -3.288 -33.758  1.00  0.00     0.012 A 
ENDBRANCH  32  33
ENDBRANCH  28  32
ENDBRANCH   4  25
TORSDOF 9
ENDMDL
MODEL 3
REMARK VINA RESULT:      -8.8      1.699      2.851
REMARK  9 active torsions:
REMARK  status: ('A' for Active; 'I' for Inactive)
REMARK    1  A    between atoms: O_2  and  C_3 
REMARK    2  A    between atoms: C_5  and  O_6 
REMARK    3  A    between atoms: C_9  and  C_10 
REMARK       I    between atoms: C_10  and  N_11 
REMARK    4  A    between atoms: N_11  and  C_12 
REMARK    5  A    between atoms: C_12  and  N_13 
REMARK    6  A    between atoms: N_13  and  C_14 
REMARK    7  A    between atoms: C_17  and  N_18 
REMARK    8  A    between atoms: N_21  and  C_23 
REMARK    9  A    between atoms: C_23  and  C_24 
ROOT
HETATM    1  C   UNL     1      -6.455   5.478 -29.736  1.00  0.00     0.034 A 
HETATM    2  C   UNL     1      -5.515   4.454 -29.637  1.00  0.00     0.032 A 
HETATM    3  C   UNL     1      -5.838   3.128 -29.979  1.00  0.00     0.031 A 
HETATM    4  C   UNL     1      -7.114   2.767 -30.419  1.00  0.00     0.030 A 
HETATM    5  C   UNL     1      -8.066   3.802 -30.450  1.00  0.00     0.031 A 
HETATM    6  C   UNL     1      -7.749   5.132 -30.117  1.00  0.00     0.032 A 
ENDROOT
BRANCH   1   7
HETATM    7  N   UNL     1      -6.195   6.825 -29.382  1.00  0.00    -0.333 N 
HETATM    8  H   UNL     1      -6.135   7.011 -28.388  1.00  0.00     0.168 HD
BRANCH   7   9
HETATM    9  C   UNL     1      -6.201   7.934 -30.181  1.00  0.00     0.179 C 
HETATM   10  S   UNL     1      -7.545   8.816 -30.667  1.00  0.00    -0.040 SA
BRANCH   9  11
HETATM   11  N   UNL     1      -4.978   8.394 -30.655  1.00  0.00    -0.299 N 
HETATM   12  C   UNL     1      -3.870   8.044 -31.433  1.00  0.00     0.258 C 
HETATM   13  O   UNL     1      -3.050   8.923 -31.705  1.00  0.00    -0.267 OA
HETATM   14  H   UNL     1      -4.851   9.362 -30.375  1.00  0.00     0.171 HD
BRANCH  12  15
HETATM   15  C   UNL     1      -3.574   6.667 -31.861  1.00  0.00     0.037 A 
HETATM   16  C   UNL     1      -4.373   5.941 -32.744  1.00  0.00     0.054 A 
HETATM   17  C   UNL     1      -3.996   4.646 -33.126  1.00  0.00     0.071 A 
HETATM   18  C   UNL     1      -2.771   4.122 -32.699  1.00  0.00     0.073 A 
HETATM   19  C   UNL     1      -1.934   4.887 -31.887  1.00  0.00     0.071 A 
HETATM   20  C   UNL     1      -2.347   6.138 -31.442  1.00  0.00     0.054 A 
BRANCH  17  21
HETATM   21  O   UNL     1      -4.908   3.995 -33.913  1.00  0.00    -0.356 OA
HETATM   22  C   UNL     1      -6.261   4.432 -33.820  1.00  0.00     0.210 C 
ENDBRANCH  17  21
BRANCH  19  23
HETATM   23  O   UNL     1      -0.711   4.461 -31.444  1.00  0.00    -0.356 OA
HETATM   24  C   UNL     1       0.160   5.523 -31.053  1.00  0.00     0.210 C 
ENDBRANCH  19  23
ENDBRANCH  12  15
ENDBRANCH   9  11
ENDBRANCH   7   9
ENDBRANCH   1   7
BRANCH   4  25
HETATM   25  N   UNL     1      -7.468   1.460 -30.752  1.00  0.00    -0.378 N 
HETATM   26  C   UNL     1      -6.532   0.334 -30.558  1.00  0.00     0.150 C 
HETATM   27  C   UNL     1      -5.765   0.005 -31.859  1.00  0.00     0.255 C 
HETATM   28  N   UNL     1      -6.745  -0.228 -33.008  1.00  0.00    -0.064 N 
HETATM   29  H   UNL     1      -7.339  -1.028 -32.741  1.00  0.00     0.280 HD
HETATM   30  C   UNL     1      -7.669   0.980 -33.181  1.00  0.00     0.255 C 
HETATM   31  C   UNL     1      -8.423   1.262 -31.863  1.00  0.00     0.150 C 
BRANCH  28  32
HETATM   32  C   UNL     1      -6.049  -0.635 -34.284  1.00  0.00     0.276 C 
BRANCH  32  33
HETATM   33  C   UNL     1      -5.794  -2.111 -34.398  1.00  0.00     0.006 A 
HETATM   34  C   UNL     1      -4.535  -2.634 -34.083  1.00  0.00     0.124 A 
HETATM   35  F   UNL     1      -3.579  -1.800 -33.645  1.00  0.00    -0.206 F 
HETATM   36  C   UNL     1      -4.267  -3.995 -34.166  1.00  0.00     0.043 A 
HETATM   37  C   UNL     1      -5.272  -4.863 -34.584  1.00  0.00     0.003 A 
HETATM   38  C   UNL     1      -6.531  -4.363 -34.920  1.00  0.00     0.001 A 
HETATM   39  C   UNL     1      -6.793  -2.992 -34.833  1.00  0.00     0.012 A 
ENDBRANCH  32  33
ENDBRANCH  28  32
ENDBRANCH   4  25
TORSDOF 9
ENDMDL
MODEL 4
REMARK VINA RESULT:      -8.7      1.739      3.121
REMARK  9 active torsions:
REMARK  status: ('A' for Active; 'I' for Inactive)
REMARK    1  A    between atoms: O_2  and  C_3 
REMARK    2  A    between atoms: C_5  and  O_6 
REMARK    3  A    between atoms: C_9  and  C_10 
REMARK       I    between atoms: C_10  and  N_11 
REMARK    4  A    between atoms: N_11  and  C_12 
REMARK    5  A    between atoms: C_12  and  N_13 
REMARK    6  A    between atoms: N_13  and  C_14 
REMARK    7  A    between atoms: C_17  and  N_18 
REMARK    8  A    between atoms: N_21  and  C_23 
REMARK    9  A    between atoms: C_23  and  C_24 
ROOT
HETATM    1  C   UNL     1      -5.248   7.315 -30.102  1.00  0.00     0.034 A 
HETATM    2  C   UNL     1      -4.845   6.059 -29.652  1.00  0.00     0.032 A 
HETATM    3  C   UNL     1      -4.573   5.011 -30.551  1.00  0.00     0.031 A 
HETATM    4  C   UNL     1      -4.707   5.169 -31.932  1.00  0.00     0.030 A 
HETATM    5  C   UNL     1      -5.178   6.423 -32.363  1.00  0.00     0.031 A 
HETATM    6  C   UNL     1      -5.444   7.478 -31.471  1.00  0.00     0.032 A 
ENDROOT
BRANCH   1   7
HETATM    7  N   UNL     1      -5.559   8.398 -29.243  1.00  0.00    -0.333 N 
HETATM    8  H   UNL     1      -6.450   8.850 -29.415  1.00  0.00     0.168 HD
BRANCH   7   9
HETATM    9  C   UNL     1      -4.749   9.035 -28.346  1.00  0.00     0.179 C 
HETATM   10  S   UNL     1      -4.808   8.910 -26.672  1.00  0.00    -0.040 SA
BRANCH   9  11
HETATM   11  N   UNL     1      -3.768   9.881 -28.849  1.00  0.00    -0.299 N 
HETATM   12  C   UNL     1      -2.728   9.968 -29.781  1.00  0.00     0.258 C 
HETATM   13  O   UNL     1      -2.213  11.070 -29.976  1.00  0.00    -0.267 OA
HETATM   14  H   UNL     1      -3.860  10.797 -28.420  1.00  0.00     0.171 HD
BRANCH  12  15
HETATM   15  C   UNL     1      -2.148   8.803 -30.469  1.00  0.00     0.037 A 
HETATM   16  C   UNL     1      -2.017   8.705 -31.854  1.00  0.00     0.054 A 
HETATM   17  C   UNL     1      -1.420   7.572 -32.422  1.00  0.00     0.071 A 
HETATM   18  C   UNL     1      -0.866   6.588 -31.597  1.00  0.00     0.073 A 
HETATM   19  C   UNL     1      -0.920   6.732 -30.211  1.00  0.00     0.071 A 
HETATM   20  C   UNL     1      -1.587   7.816 -29.649  1.00  0.00     0.054 A 
BRANCH  17  21
HETATM   21  O   UNL     1      -1.440   7.542 -33.792  1.00  0.00    -0.356 OA
HETATM   22  C   UNL     1      -1.419   6.256 -34.403  1.00  0.00     0.210 C 
ENDBRANCH  17  21
BRANCH  19  23
HETATM   23  O   UNL     1      -0.385   5.830 -29.332  1.00  0.00    -0.356 OA
HETATM   24  C   UNL     1       0.661   5.035 -29.890  1.00  0.00     0.210 C 
ENDBRANCH  19  23
ENDBRANCH  12  15
ENDBRANCH   9  11
ENDBRANCH   7   9
ENDBRANCH   1   7
BRANCH   4  25
HETATM   25  N   UNL     1      -4.459   4.146 -32.848  1.00  0.00    -0.378 N 
HETATM   26  C   UNL     1      -5.552   3.515 -33.614  1.00  0.00     0.150 C 
HETATM   27  C   UNL     1      -6.039   2.214 -32.939  1.00  0.00     0.255 C 
HETATM   28  N   UNL     1      -4.863   1.269 -32.695  1.00  0.00    -0.064 N 
HETATM   29  H   UNL     1      -4.453   1.053 -33.617  1.00  0.00     0.280 HD
HETATM   30  C   UNL     1      -3.775   1.966 -31.874  1.00  0.00     0.255 C 
HETATM   31  C   UNL     1      -3.310   3.251 -32.592  1.00  0.00     0.150 C 
BRANCH  28  32
HETATM   32  C   UNL     1      -5.297  -0.053 -32.113  1.00  0.00     0.276 C 
BRANCH  32  33
HETATM   33  C   UNL     1      -5.409  -1.160 -33.122  1.00  0.00     0.006 A 
HETATM   34  C   UNL     1      -6.651  -1.481 -33.679  1.00  0.00     0.124 A 
HETATM   35  F   UNL     1      -7.727  -0.761 -33.322  1.00  0.00    -0.206 F 
HETATM   36  C   UNL     1      -6.791  -2.491 -34.624  1.00  0.00     0.043 A 
HETATM   37  C   UNL     1      -5.667  -3.211 -35.021  1.00  0.00     0.003 A 
HETATM   38  C   UNL     1      -4.420  -2.921 -34.467  1.00  0.00     0.001 A 
HETATM   39  C   UNL     1      -4.288  -1.902 -33.518  1.00  0.00     0.012 A 
ENDBRANCH  32  33
ENDBRANCH  28  32
ENDBRANCH   4  25
TORSDOF 9
ENDMDL
MODEL 5
REMARK VINA RESULT:      -8.6      4.191      9.614
REMARK  9 active torsions:
REMARK  status: ('A' for Active; 'I' for Inactive)
REMARK    1  A    between atoms: O_2  and  C_3 
REMARK    2  A    between atoms: C_5  and  O_6 
REMARK    3  A    between atoms: C_9  and  C_10 
REMARK       I    between atoms: C_10  and  N_11 
REMARK    4  A    between atoms: N_11  and  C_12 
REMARK    5  A    between atoms: C_12  and  N_13 
REMARK    6  A    between atoms: N_13  and  C_14 
REMARK    7  A    between atoms: C_17  and  N_18 
REMARK    8  A    between atoms: N_21  and  C_23 
REMARK    9  A    between atoms: C_23  and  C_24 
ROOT
HETATM    1  C   UNL     1      -5.526   3.538 -33.812  1.00  0.00     0.034 A 
HETATM    2  C   UNL     1      -5.128   4.714 -34.445  1.00  0.00     0.032 A 
HETATM    3  C   UNL     1      -3.911   5.342 -34.126  1.00  0.00     0.031 A 
HETATM    4  C   UNL     1      -3.049   4.832 -33.152  1.00  0.00     0.030 A 
HETATM    5  C   UNL     1      -3.498   3.682 -32.479  1.00  0.00     0.031 A 
HETATM    6  C   UNL     1      -4.711   3.044 -32.798  1.00  0.00     0.032 A 
ENDROOT
BRANCH   1   7
HETATM    7  N   UNL     1      -6.752   2.877 -34.074  1.00  0.00    -0.333 N 
HETATM    8  H   UNL     1      -6.825   2.437 -34.983  1.00  0.00     0.168 HD
BRANCH   7   9
HETATM    9  C   UNL     1      -7.911   2.911 -33.351  1.00  0.00     0.179 C 
HETATM   10  S   UNL     1      -8.554   4.236 -32.543  1.00  0.00    -0.040 SA
BRANCH   9  11
HETATM   11  N   UNL     1      -8.650   1.737 -33.260  1.00  0.00    -0.299 N 
HETATM   12  C   UNL     1      -8.549   0.360 -33.041  1.00  0.00     0.258 C 
HETATM   13  O   UNL     1      -9.590  -0.282 -32.889  1.00  0.00    -0.267 OA
HETATM   14  H   UNL     1      -9.639   1.955 -33.335  1.00  0.00     0.171 HD
BRANCH  12  15
HETATM   15  C   UNL     1      -7.279  -0.383 -33.080  1.00  0.00     0.037 A 
HETATM   16  C   UNL     1      -6.889  -1.198 -34.142  1.00  0.00     0.054 A 
HETATM   17  C   UNL     1      -5.644  -1.841 -34.110  1.00  0.00     0.071 A 
HETATM   18  C   UNL     1      -4.754  -1.586 -33.062  1.00  0.00     0.073 A 
HETATM   19  C   UNL     1      -5.113  -0.700 -32.046  1.00  0.00     0.071 A 
HETATM   20  C   UNL     1      -6.381  -0.128 -32.037  1.00  0.00     0.054 A 
BRANCH  17  21
HETATM   21  O   UNL     1      -5.416  -2.695 -35.157  1.00  0.00    -0.356 OA
HETATM   22  C   UNL     1      -6.068  -3.960 -35.104  1.00  0.00     0.210 C 
ENDBRANCH  17  21
BRANCH  19  23
HETATM   23  O   UNL     1      -4.295  -0.377 -30.998  1.00  0.00    -0.356 OA
HETATM   24  C   UNL     1      -2.936  -0.157 -31.375  1.00  0.00     0.210 C 
ENDBRANCH  19  23
ENDBRANCH  12  15
ENDBRANCH   9  11
ENDBRANCH   7   9
ENDBRANCH   1   7
BRANCH   4  25
HETATM   25  N   UNL     1      -1.842   5.439 -32.804  1.00  0.00    -0.378 N 
HETATM   26  C   UNL     1      -1.118   5.064 -31.573  1.00  0.00     0.150 C 
HETATM   27  C   UNL     1      -1.446   6.026 -30.409  1.00  0.00     0.255 C 
HETATM   28  N   UNL     1      -1.195   7.473 -30.828  1.00  0.00    -0.064 N 
HETATM   29  H   UNL     1      -0.195   7.548 -31.072  1.00  0.00     0.280 HD
HETATM   30  C   UNL     1      -1.991   7.813 -32.091  1.00  0.00     0.255 C 
HETATM   31  C   UNL     1      -1.621   6.837 -33.229  1.00  0.00     0.150 C 
BRANCH  28  32
HETATM   32  C   UNL     1      -1.421   8.448 -29.699  1.00  0.00     0.276 C 
BRANCH  32  33
HETATM   33  C   UNL     1      -0.587   8.176 -28.479  1.00  0.00     0.006 A 
HETATM   34  C   UNL     1      -1.203   7.932 -27.247  1.00  0.00     0.124 A 
HETATM   35  F   UNL     1      -2.544   7.910 -27.186  1.00  0.00    -0.206 F 
HETATM   36  C   UNL     1      -0.464   7.665 -26.100  1.00  0.00     0.043 A 
HETATM   37  C   UNL     1       0.927   7.651 -26.174  1.00  0.00     0.003 A 
HETATM   38  C   UNL     1       1.563   7.909 -27.389  1.00  0.00     0.001 A 
HETATM   39  C   UNL     1       0.813   8.175 -28.538  1.00  0.00     0.012 A 
ENDBRANCH  32  33
ENDBRANCH  28  32
ENDBRANCH   4  25
TORSDOF 9
ENDMDL
MODEL 6
REMARK VINA RESULT:      -8.6      2.148      2.958
REMARK  9 active torsions:
REMARK  status: ('A' for Active; 'I' for Inactive)
REMARK    1  A    between atoms: O_2  and  C_3 
REMARK    2  A    between atoms: C_5  and  O_6 
REMARK    3  A    between atoms: C_9  and  C_10 
REMARK       I    between atoms: C_10  and  N_11 
REMARK    4  A    between atoms: N_11  and  C_12 
REMARK    5  A    between atoms: C_12  and  N_13 
REMARK    6  A    between atoms: N_13  and  C_14 
REMARK    7  A    between atoms: C_17  and  N_18 
REMARK    8  A    between atoms: N_21  and  C_23 
REMARK    9  A    between atoms: C_23  and  C_24 
ROOT
HETATM    1  C   UNL     1      -5.132   7.435 -30.288  1.00  0.00     0.034 A 
HETATM    2  C   UNL     1      -4.485   6.286 -29.836  1.00  0.00     0.032 A 
HETATM    3  C   UNL     1      -4.219   5.207 -30.698  1.00  0.00     0.031 A 
HETATM    4  C   UNL     1      -4.603   5.223 -32.042  1.00  0.00     0.030 A 
HETATM    5  C   UNL     1      -5.312   6.362 -32.462  1.00  0.00     0.031 A 
HETATM    6  C   UNL     1      -5.574   7.449 -31.608  1.00  0.00     0.032 A 
ENDROOT
BRANCH   1   7
HETATM    7  N   UNL     1      -5.448   8.540 -29.460  1.00  0.00    -0.333 N 
HETATM    8  H   UNL     1      -6.167   8.375 -28.766  1.00  0.00     0.168 HD
BRANCH   7   9
HETATM    9  C   UNL     1      -5.054   9.843 -29.589  1.00  0.00     0.179 C 
HETATM   10  S   UNL     1      -5.895  11.075 -30.361  1.00  0.00    -0.040 SA
BRANCH   9  11
HETATM   11  N   UNL     1      -3.833  10.207 -29.034  1.00  0.00    -0.299 N 
HETATM   12  C   UNL     1      -2.451  10.017 -29.136  1.00  0.00     0.258 C 
HETATM   13  O   UNL     1      -1.714  10.740 -28.463  1.00  0.00    -0.267 OA
HETATM   14  H   UNL     1      -3.985  10.906 -28.313  1.00  0.00     0.171 HD
BRANCH  12  15
HETATM   15  C   UNL     1      -1.829   8.940 -29.924  1.00  0.00     0.037 A 
HETATM   16  C   UNL     1      -1.191   7.836 -29.360  1.00  0.00     0.054 A 
HETATM   17  C   UNL     1      -0.657   6.839 -30.188  1.00  0.00     0.071 A 
HETATM   18  C   UNL     1      -0.853   6.902 -31.571  1.00  0.00     0.073 A 
HETATM   19  C   UNL     1      -1.570   7.963 -32.124  1.00  0.00     0.071 A 
HETATM   20  C   UNL     1      -2.026   8.994 -31.309  1.00  0.00     0.054 A 
BRANCH  17  21
HETATM   21  O   UNL     1       0.035   5.859 -29.527  1.00  0.00    -0.356 OA
HETATM   22  C   UNL     1       0.310   6.089 -28.148  1.00  0.00     0.210 C 
ENDBRANCH  17  21
BRANCH  19  23
HETATM   23  O   UNL     1      -1.827   8.091 -33.461  1.00  0.00    -0.356 OA
HETATM   24  C   UNL     1      -1.985   6.843 -34.138  1.00  0.00     0.210 C 
ENDBRANCH  19  23
ENDBRANCH  12  15
ENDBRANCH   9  11
ENDBRANCH   7   9
ENDBRANCH   1   7
BRANCH   4  25
HETATM   25  N   UNL     1      -4.366   4.164 -32.918  1.00  0.00    -0.378 N 
HETATM   26  C   UNL     1      -5.447   3.594 -33.748  1.00  0.00     0.150 C 
HETATM   27  C   UNL     1      -6.072   2.347 -33.084  1.00  0.00     0.255 C 
HETATM   28  N   UNL     1      -4.987   1.327 -32.741  1.00  0.00    -0.064 N 
HETATM   29  H   UNL     1      -4.531   1.061 -33.628  1.00  0.00     0.280 HD
HETATM   30  C   UNL     1      -3.911   1.964 -31.859  1.00  0.00     0.255 C 
HETATM   31  C   UNL     1      -3.306   3.197 -32.566  1.00  0.00     0.150 C 
BRANCH  28  32
HETATM   32  C   UNL     1      -5.555   0.053 -32.166  1.00  0.00     0.276 C 
BRANCH  32  33
HETATM   33  C   UNL     1      -5.607  -1.088 -33.141  1.00  0.00     0.006 A 
HETATM   34  C   UNL     1      -4.445  -1.804 -33.450  1.00  0.00     0.124 A 
HETATM   35  F   UNL     1      -3.299  -1.475 -32.833  1.00  0.00    -0.206 F 
HETATM   36  C   UNL     1      -4.458  -2.873 -34.338  1.00  0.00     0.043 A 
HETATM   37  C   UNL     1      -5.656  -3.236 -34.948  1.00  0.00     0.003 A 
HETATM   38  C   UNL     1      -6.825  -2.526 -34.670  1.00  0.00     0.001 A 
HETATM   39  C   UNL     1      -6.803  -1.453 -33.774  1.00  0.00     0.012 A 
ENDBRANCH  32  33
ENDBRANCH  28  32
ENDBRANCH   4  25
TORSDOF 9
ENDMDL
MODEL 7
REMARK VINA RESULT:      -8.6      4.055      9.158
REMARK  9 active torsions:
REMARK  status: ('A' for Active; 'I' for Inactive)
REMARK    1  A    between atoms: O_2  and  C_3 
REMARK    2  A    between atoms: C_5  and  O_6 
REMARK    3  A    between atoms: C_9  and  C_10 
REMARK       I    between atoms: C_10  and  N_11 
REMARK    4  A    between atoms: N_11  and  C_12 
REMARK    5  A    between atoms: C_12  and  N_13 
REMARK    6  A    between atoms: N_13  and  C_14 
REMARK    7  A    between atoms: C_17  and  N_18 
REMARK    8  A    between atoms: N_21  and  C_23 
REMARK    9  A    between atoms: C_23  and  C_24 
ROOT
HETATM    1  C   UNL     1      -6.322   4.955 -33.571  1.00  0.00     0.034 A 
HETATM    2  C   UNL     1      -6.156   5.777 -32.458  1.00  0.00     0.032 A 
HETATM    3  C   UNL     1      -4.918   6.379 -32.171  1.00  0.00     0.031 A 
HETATM    4  C   UNL     1      -3.792   6.174 -32.972  1.00  0.00     0.030 A 
HETATM    5  C   UNL     1      -3.963   5.290 -34.053  1.00  0.00     0.031 A 
HETATM    6  C   UNL     1      -5.201   4.690 -34.351  1.00  0.00     0.032 A 
ENDROOT
BRANCH   1   7
HETATM    7  N   UNL     1      -7.538   4.302 -33.895  1.00  0.00    -0.333 N 
HETATM    8  H   UNL     1      -8.202   4.854 -34.424  1.00  0.00     0.168 HD
BRANCH   7   9
HETATM    9  C   UNL     1      -8.012   3.106 -33.435  1.00  0.00     0.179 C 
HETATM   10  S   UNL     1      -8.637   2.792 -31.908  1.00  0.00    -0.040 SA
BRANCH   9  11
HETATM   11  N   UNL     1      -7.982   2.022 -34.305  1.00  0.00    -0.299 N 
HETATM   12  C   UNL     1      -7.372   0.785 -34.539  1.00  0.00     0.258 C 
HETATM   13  O   UNL     1      -7.835   0.069 -35.428  1.00  0.00    -0.267 OA
HETATM   14  H   UNL     1      -8.698   2.140 -35.015  1.00  0.00     0.171 HD
BRANCH  12  15
HETATM   15  C   UNL     1      -6.150   0.334 -33.853  1.00  0.00     0.037 A 
HETATM   16  C   UNL     1      -5.544   1.032 -32.810  1.00  0.00     0.054 A 
HETATM   17  C   UNL     1      -4.401   0.509 -32.190  1.00  0.00     0.071 A 
HETATM   18  C   UNL     1      -3.929  -0.758 -32.551  1.00  0.00     0.073 A 
HETATM   19  C   UNL     1      -4.592  -1.492 -33.534  1.00  0.00     0.071 A 
HETATM   20  C   UNL     1      -5.676  -0.936 -34.206  1.00  0.00     0.054 A 
BRANCH  17  21
HETATM   21  O   UNL     1      -3.835   1.330 -31.250  1.00  0.00    -0.356 OA
HETATM   22  C   UNL     1      -3.455   2.632 -31.685  1.00  0.00     0.210 C 
ENDBRANCH  17  21
BRANCH  19  23
HETATM   23  O   UNL     1      -4.212  -2.745 -33.931  1.00  0.00    -0.356 OA
HETATM   24  C   UNL     1      -5.154  -3.384 -34.794  1.00  0.00     0.210 C 
ENDBRANCH  19  23
ENDBRANCH  12  15
ENDBRANCH   9  11
ENDBRANCH   7   9
ENDBRANCH   1   7
BRANCH   4  25
HETATM   25  N   UNL     1      -2.548   6.746 -32.706  1.00  0.00    -0.378 N 
HETATM   26  C   UNL     1      -1.293   6.004 -32.940  1.00  0.00     0.150 C 
HETATM   27  C   UNL     1      -0.784   5.330 -31.646  1.00  0.00     0.255 C 
HETATM   28  N   UNL     1      -0.665   6.360 -30.523  1.00  0.00    -0.064 N 
HETATM   29  H   UNL     1       0.013   7.072 -30.836  1.00  0.00     0.280 HD
HETATM   30  C   UNL     1      -2.000   7.077 -30.307  1.00  0.00     0.255 C 
HETATM   31  C   UNL     1      -2.462   7.744 -31.620  1.00  0.00     0.150 C 
BRANCH  28  32
HETATM   32  C   UNL     1      -0.092   5.769 -29.258  1.00  0.00     0.276 C 
BRANCH  32  33
HETATM   33  C   UNL     1       0.456   6.788 -28.299  1.00  0.00     0.006 A 
HETATM   34  C   UNL     1       0.246   6.643 -26.924  1.00  0.00     0.124 A 
HETATM   35  F   UNL     1      -0.418   5.564 -26.480  1.00  0.00    -0.206 F 
HETATM   36  C   UNL     1       0.747   7.560 -26.007  1.00  0.00     0.043 A 
HETATM   37  C   UNL     1       1.468   8.659 -26.467  1.00  0.00     0.003 A 
HETATM   38  C   UNL     1       1.675   8.833 -27.837  1.00  0.00     0.001 A 
HETATM   39  C   UNL     1       1.169   7.906 -28.752  1.00  0.00     0.012 A 
ENDBRANCH  32  33
ENDBRANCH  28  32
ENDBRANCH   4  25
TORSDOF 9
ENDMDL
MODEL 8
REMARK VINA RESULT:      -8.4      2.383      3.060
REMARK  9 active torsions:
REMARK  status: ('A' for Active; 'I' for Inactive)
REMARK    1  A    between atoms: O_2  and  C_3 
REMARK    2  A    between atoms: C_5  and  O_6 
REMARK    3  A    between atoms: C_9  and  C_10 
REMARK       I    between atoms: C_10  and  N_11 
REMARK    4  A    between atoms: N_11  and  C_12 
REMARK    5  A    between atoms: C_12  and  N_13 
REMARK    6  A    between atoms: N_13  and  C_14 
REMARK    7  A    between atoms: C_17  and  N_18 
REMARK    8  A    between atoms: N_21  and  C_23 
REMARK    9  A    between atoms: C_23  and  C_24 
ROOT
HETATM    1  C   UNL     1      -8.491   5.398 -31.174  1.00  0.00     0.034 A 
HETATM    2  C   UNL     1      -9.224   4.616 -30.283  1.00  0.00     0.032 A 
HETATM    3  C   UNL     1      -9.293   3.218 -30.421  1.00  0.00     0.031 A 
HETATM    4  C   UNL     1      -8.648   2.545 -31.462  1.00  0.00     0.030 A 
HETATM    5  C   UNL     1      -7.968   3.358 -32.387  1.00  0.00     0.031 A 
HETATM    6  C   UNL     1      -7.887   4.756 -32.251  1.00  0.00     0.032 A 
ENDROOT
BRANCH   1   7
HETATM    7  N   UNL     1      -8.406   6.811 -31.098  1.00  0.00    -0.333 N 
HETATM    8  H   UNL     1      -9.245   7.313 -31.362  1.00  0.00     0.168 HD
BRANCH   7   9
HETATM    9  C   UNL     1      -7.300   7.590 -30.903  1.00  0.00     0.179 C 
HETATM   10  S   UNL     1      -6.970   9.067 -31.629  1.00  0.00    -0.040 SA
BRANCH   9  11
HETATM   11  N   UNL     1      -6.335   7.128 -30.015  1.00  0.00    -0.299 N 
HETATM   12  C   UNL     1      -5.113   6.453 -29.935  1.00  0.00     0.258 C 
HETATM   13  O   UNL     1      -4.535   6.425 -28.848  1.00  0.00    -0.267 OA
HETATM   14  H   UNL     1      -6.572   7.427 -29.074  1.00  0.00     0.171 HD
BRANCH  12  15
HETATM   15  C   UNL     1      -4.527   5.689 -31.049  1.00  0.00     0.037 A 
HETATM   16  C   UNL     1      -4.638   4.306 -31.185  1.00  0.00     0.054 A 
HETATM   17  C   UNL     1      -4.077   3.665 -32.299  1.00  0.00     0.071 A 
HETATM   18  C   UNL     1      -3.495   4.423 -33.320  1.00  0.00     0.073 A 
HETATM   19  C   UNL     1      -3.465   5.814 -33.222  1.00  0.00     0.071 A 
HETATM   20  C   UNL     1      -3.947   6.442 -32.078  1.00  0.00     0.054 A 
BRANCH  17  21
HETATM   21  O   UNL     1      -4.160   2.298 -32.271  1.00  0.00    -0.356 OA
HETATM   22  C   UNL     1      -3.444   1.635 -31.233  1.00  0.00     0.210 C 
ENDBRANCH  17  21
BRANCH  19  23
HETATM   23  O   UNL     1      -2.936   6.632 -34.183  1.00  0.00    -0.356 OA
HETATM   24  C   UNL     1      -1.544   6.898 -34.009  1.00  0.00     0.210 C 
ENDBRANCH  19  23
ENDBRANCH  12  15
ENDBRANCH   9  11
ENDBRANCH   7   9
ENDBRANCH   1   7
BRANCH   4  25
HETATM   25  N   UNL     1      -8.708   1.162 -31.634  1.00  0.00    -0.378 N 
HETATM   26  C   UNL     1      -7.577   0.289 -31.262  1.00  0.00     0.150 C 
HETATM   27  C   UNL     1      -6.681  -0.027 -32.480  1.00  0.00     0.255 C 
HETATM   28  N   UNL     1      -7.520  -0.597 -33.623  1.00  0.00    -0.064 N 
HETATM   29  H   UNL     1      -7.956  -1.465 -33.275  1.00  0.00     0.280 HD
HETATM   30  C   UNL     1      -8.657   0.362 -33.984  1.00  0.00     0.255 C 
HETATM   31  C   UNL     1      -9.533   0.638 -32.743  1.00  0.00     0.150 C 
BRANCH  28  32
HETATM   32  C   UNL     1      -6.679  -1.000 -34.809  1.00  0.00     0.276 C 
BRANCH  32  33
HETATM   33  C   UNL     1      -6.067  -2.367 -34.688  1.00  0.00     0.006 A 
HETATM   34  C   UNL     1      -4.725  -2.506 -34.317  1.00  0.00     0.124 A 
HETATM   35  F   UNL     1      -4.013  -1.403 -34.038  1.00  0.00    -0.206 F 
HETATM   36  C   UNL     1      -4.129  -3.755 -34.185  1.00  0.00     0.043 A 
HETATM   37  C   UNL     1      -4.881  -4.899 -34.438  1.00  0.00     0.003 A 
HETATM   38  C   UNL     1      -6.216  -4.784 -34.827  1.00  0.00     0.001 A 
HETATM   39  C   UNL     1      -6.809  -3.525 -34.956  1.00  0.00     0.012 A 
ENDBRANCH  32  33
ENDBRANCH  28  32
ENDBRANCH   4  25
TORSDOF 9
ENDMDL
MODEL 9
REMARK VINA RESULT:      -8.2      6.798      9.289
REMARK  9 active torsions:
REMARK  status: ('A' for Active; 'I' for Inactive)
REMARK    1  A    between atoms: O_2  and  C_3 
REMARK    2  A    between atoms: C_5  and  O_6 
REMARK    3  A    between atoms: C_9  and  C_10 
REMARK       I    between atoms: C_10  and  N_11 
REMARK    4  A    between atoms: N_11  and  C_12 
REMARK    5  A    between atoms: C_12  and  N_13 
REMARK    6  A    between atoms: N_13  and  C_14 
REMARK    7  A    between atoms: C_17  and  N_18 
REMARK    8  A    between atoms: N_21  and  C_23 
REMARK    9  A    between atoms: C_23  and  C_24 
ROOT
HETATM    1  C   UNL     1     -10.667   5.168 -32.657  1.00  0.00     0.034 A 
HETATM    2  C   UNL     1      -9.733   5.161 -31.622  1.00  0.00     0.032 A 
HETATM    3  C   UNL     1      -8.972   4.014 -31.331  1.00  0.00     0.031 A 
HETATM    4  C   UNL     1      -9.122   2.825 -32.049  1.00  0.00     0.030 A 
HETATM    5  C   UNL     1     -10.115   2.833 -33.046  1.00  0.00     0.031 A 
HETATM    6  C   UNL     1     -10.874   3.978 -33.348  1.00  0.00     0.032 A 
ENDROOT
BRANCH   1   7
HETATM    7  N   UNL     1     -11.478   6.285 -32.979  1.00  0.00    -0.333 N 
HETATM    8  H   UNL     1     -11.012   7.184 -32.959  1.00  0.00     0.168 HD
BRANCH   7   9
HETATM    9  C   UNL     1     -12.836   6.338 -33.126  1.00  0.00     0.179 C 
HETATM   10  S   UNL     1     -13.688   6.474 -34.567  1.00  0.00    -0.040 SA
BRANCH   9  11
HETATM   11  N   UNL     1     -13.613   6.277 -31.974  1.00  0.00    -0.299 N 
HETATM   12  C   UNL     1     -14.420   5.431 -31.206  1.00  0.00     0.258 C 
HETATM   13  O   UNL     1     -14.786   5.826 -30.098  1.00  0.00    -0.267 OA
HETATM   14  H   UNL     1     -13.536   7.154 -31.469  1.00  0.00     0.171 HD
BRANCH  12  15
HETATM   15  C   UNL     1     -14.938   4.139 -31.685  1.00  0.00     0.037 A 
HETATM   16  C   UNL     1     -16.296   3.848 -31.814  1.00  0.00     0.054 A 
HETATM   17  C   UNL     1     -16.700   2.602 -32.313  1.00  0.00     0.071 A 
HETATM   18  C   UNL     1     -15.743   1.691 -32.773  1.00  0.00     0.073 A 
HETATM   19  C   UNL     1     -14.389   2.023 -32.725  1.00  0.00     0.071 A 
HETATM   20  C   UNL     1     -13.986   3.225 -32.153  1.00  0.00     0.054 A 
BRANCH  17  21
HETATM   21  O   UNL     1     -18.054   2.392 -32.296  1.00  0.00    -0.356 OA
HETATM   22  C   UNL     1     -18.847   3.273 -33.087  1.00  0.00     0.210 C 
ENDBRANCH  17  21
BRANCH  19  23
HETATM   23  O   UNL     1     -13.390   1.203 -33.174  1.00  0.00    -0.356 OA
HETATM   24  C   UNL     1     -13.762   0.409 -34.302  1.00  0.00     0.210 C 
ENDBRANCH  19  23
ENDBRANCH  12  15
ENDBRANCH   9  11
ENDBRANCH   7   9
ENDBRANCH   1   7
BRANCH   4  25
HETATM   25  N   UNL     1      -8.393   1.668 -31.776  1.00  0.00    -0.378 N 
HETATM   26  C   UNL     1      -6.921   1.640 -31.889  1.00  0.00     0.150 C 
HETATM   27  C   UNL     1      -6.468   1.090 -33.260  1.00  0.00     0.255 C 
HETATM   28  N   UNL     1      -7.110  -0.272 -33.524  1.00  0.00    -0.064 N 
HETATM   29  H   UNL     1      -6.796  -0.905 -32.772  1.00  0.00     0.280 HD
HETATM   30  C   UNL     1      -8.634  -0.176 -33.422  1.00  0.00     0.255 C 
HETATM   31  C   UNL     1      -9.040   0.364 -32.034  1.00  0.00     0.150 C 
BRANCH  28  32
HETATM   32  C   UNL     1      -6.634  -0.891 -34.815  1.00  0.00     0.276 C 
BRANCH  32  33
HETATM   33  C   UNL     1      -6.034  -2.259 -34.653  1.00  0.00     0.006 A 
HETATM   34  C   UNL     1      -4.721  -2.401 -34.193  1.00  0.00     0.124 A 
HETATM   35  F   UNL     1      -4.026  -1.299 -33.867  1.00  0.00    -0.206 F 
HETATM   36  C   UNL     1      -4.137  -3.650 -34.020  1.00  0.00     0.043 A 
HETATM   37  C   UNL     1      -4.873  -4.793 -34.322  1.00  0.00     0.003 A 
HETATM   38  C   UNL     1      -6.179  -4.676 -34.799  1.00  0.00     0.001 A 
HETATM   39  C   UNL     1      -6.760  -3.416 -34.969  1.00  0.00     0.012 A 
ENDBRANCH  32  33
ENDBRANCH  28  32
ENDBRANCH   4  25
TORSDOF 9
ENDMDL
MODEL 10
REMARK VINA RESULT:      -8.1      1.830      3.039
REMARK  9 active torsions:
REMARK  status: ('A' for Active; 'I' for Inactive)
REMARK    1  A    between atoms: O_2  and  C_3 
REMARK    2  A    between atoms: C_5  and  O_6 
REMARK    3  A    between atoms: C_9  and  C_10 
REMARK       I    between atoms: C_10  and  N_11 
REMARK    4  A    between atoms: N_11  and  C_12 
REMARK    5  A    between atoms: C_12  and  N_13 
REMARK    6  A    between atoms: N_13  and  C_14 
REMARK    7  A    between atoms: C_17  and  N_18 
REMARK    8  A    between atoms: N_21  and  C_23 
REMARK    9  A    between atoms: C_23  and  C_24 
ROOT
HETATM    1  C   UNL     1      -4.762   6.530 -29.012  1.00  0.00     0.034 A 
HETATM    2  C   UNL     1      -4.718   6.481 -30.404  1.00  0.00     0.032 A 
HETATM    3  C   UNL     1      -5.339   5.441 -31.120  1.00  0.00     0.031 A 
HETATM    4  C   UNL     1      -6.014   4.400 -30.476  1.00  0.00     0.030 A 
HETATM    5  C   UNL     1      -5.991   4.433 -29.070  1.00  0.00     0.031 A 
HETATM    6  C   UNL     1      -5.379   5.474 -28.348  1.00  0.00     0.032 A 
ENDROOT
BRANCH   1   7
HETATM    7  N   UNL     1      -4.134   7.538 -28.239  1.00  0.00    -0.333 N 
HETATM    8  H   UNL     1      -4.178   8.474 -28.623  1.00  0.00     0.168 HD
BRANCH   7   9
HETATM    9  C   UNL     1      -3.321   7.395 -27.150  1.00  0.00     0.179 C 
HETATM   10  S   UNL     1      -3.648   7.889 -25.578  1.00  0.00    -0.040 SA
BRANCH   9  11
HETATM   11  N   UNL     1      -2.088   6.781 -27.341  1.00  0.00    -0.299 N 
HETATM   12  C   UNL     1      -1.067   6.578 -28.275  1.00  0.00     0.258 C 
HETATM   13  O   UNL     1      -0.022   6.051 -27.888  1.00  0.00    -0.267 OA
HETATM   14  H   UNL     1      -1.785   6.356 -26.471  1.00  0.00     0.171 HD
BRANCH  12  15
HETATM   15  C   UNL     1      -1.204   6.865 -29.712  1.00  0.00     0.037 A 
HETATM   16  C   UNL     1      -1.119   5.894 -30.709  1.00  0.00     0.054 A 
HETATM   17  C   UNL     1      -1.298   6.253 -32.052  1.00  0.00     0.071 A 
HETATM   18  C   UNL     1      -1.659   7.564 -32.382  1.00  0.00     0.073 A 
HETATM   19  C   UNL     1      -1.830   8.512 -31.373  1.00  0.00     0.071 A 
HETATM   20  C   UNL     1      -1.571   8.174 -30.049  1.00  0.00     0.054 A 
BRANCH  17  21
HETATM   21  O   UNL     1      -1.089   5.237 -32.947  1.00  0.00    -0.356 OA
HETATM   22  C   UNL     1      -2.241   4.514 -33.373  1.00  0.00     0.210 C 
ENDBRANCH  17  21
BRANCH  19  23
HETATM   23  O   UNL     1      -2.203   9.807 -31.605  1.00  0.00    -0.356 OA
HETATM   24  C   UNL     1      -2.611  10.507 -30.429  1.00  0.00     0.210 C 
ENDBRANCH  19  23
ENDBRANCH  12  15
ENDBRANCH   9  11
ENDBRANCH   7   9
ENDBRANCH   1   7
BRANCH   4  25
HETATM   25  N   UNL     1      -6.627   3.348 -31.157  1.00  0.00    -0.378 N 
HETATM   26  C   UNL     1      -6.935   2.071 -30.484  1.00  0.00     0.150 C 
HETATM   27  C   UNL     1      -5.828   1.021 -30.729  1.00  0.00     0.255 C 
HETATM   28  N   UNL     1      -5.573   0.857 -32.227  1.00  0.00    -0.064 N 
HETATM   29  H   UNL     1      -6.458   0.538 -32.651  1.00  0.00     0.280 HD
HETATM   30  C   UNL     1      -5.232   2.206 -32.865  1.00  0.00     0.255 C 
HETATM   31  C   UNL     1      -6.370   3.217 -32.607  1.00  0.00     0.150 C 
BRANCH  28  32
HETATM   32  C   UNL     1      -4.558  -0.219 -32.524  1.00  0.00     0.276 C 
BRANCH  32  33
HETATM   33  C   UNL     1      -5.081  -1.333 -33.385  1.00  0.00     0.006 A 
HETATM   34  C   UNL     1      -4.379  -2.540 -33.477  1.00  0.00     0.124 A 
HETATM   35  F   UNL     1      -3.257  -2.692 -32.756  1.00  0.00    -0.206 F 
HETATM   36  C   UNL     1      -4.838  -3.596 -34.255  1.00  0.00     0.043 A 
HETATM   37  C   UNL     1      -6.022  -3.448 -34.973  1.00  0.00     0.003 A 
HETATM   38  C   UNL     1      -6.731  -2.247 -34.911  1.00  0.00     0.001 A 
HETATM   39  C   UNL     1      -6.263  -1.190 -34.124  1.00  0.00     0.012 A 
ENDBRANCH  32  33
ENDBRANCH  28  32
ENDBRANCH   4  25
TORSDOF 9
ENDMDL
