MODEL 1
REMARK VINA RESULT:     -10.4      0.000      0.000
REMARK  6 active torsions:
REMARK  status: ('A' for Active; 'I' for Inactive)
REMARK    1  A    between atoms: C_2  and  O_3 
REMARK    2  A    between atoms: O_3  and  C_4 
REMARK    3  A    between atoms: C_5  and  C_6 
REMARK       I    between atoms: C_6  and  N_7 
REMARK    4  A    between atoms: N_7  and  C_8 
REMARK    5  A    between atoms: N_9  and  C_10 
REMARK    6  A    between atoms: C_21  and  C_22 
ROOT
HETATM    1  C   UNL     1      -8.937   0.845 -33.119  1.00  0.00     0.152 A 
HETATM    2  N   UNL     1      -9.140   2.198 -32.889  1.00  0.00    -0.044 N 
HETATM    3  N   UNL     1     -10.454   2.556 -33.003  1.00  0.00    -0.148 NA
HETATM    4  C   UNL     1     -11.073   1.408 -33.312  1.00  0.00     0.115 A 
HETATM    5  C   UNL     1     -10.173   0.328 -33.427  1.00  0.00     0.087 A 
ENDROOT
BRANCH   1   6
HETATM    6  N   UNL     1      -7.688   0.262 -32.990  1.00  0.00    -0.307 N 
HETATM    7  C   UNL     1      -6.804   0.106 -34.036  1.00  0.00     0.261 C 
HETATM    8  O   UNL     1      -6.871   0.605 -35.152  1.00  0.00    -0.267 OA
HETATM    9  H   UNL     1      -7.447  -0.132 -32.078  1.00  0.00     0.170 HD
BRANCH   7  10
HETATM   10  C   UNL     1      -5.660  -0.765 -33.685  1.00  0.00     0.076 A 
HETATM   11  C   UNL     1      -4.570  -0.171 -33.022  1.00  0.00     0.085 A 
HETATM   12  C   UNL     1      -3.458  -0.955 -32.727  1.00  0.00     0.039 A 
HETATM   13  C   UNL     1      -3.433  -2.304 -33.094  1.00  0.00     0.015 A 
HETATM   14  C   UNL     1      -4.514  -2.900 -33.763  1.00  0.00    -0.025 A 
HETATM   15  C   UNL     1      -5.662  -2.131 -34.066  1.00  0.00    -0.007 A 
HETATM   16  C   UNL     1      -4.458  -4.252 -34.140  1.00  0.00     0.012 A 
HETATM   17  C   UNL     1      -6.731  -2.769 -34.740  1.00  0.00     0.013 A 
HETATM   18  C   UNL     1      -6.659  -4.114 -35.109  1.00  0.00     0.001 A 
HETATM   19  C   UNL     1      -5.522  -4.853 -34.810  1.00  0.00     0.001 A 
BRANCH  11  20
HETATM   20  O   UNL     1      -4.679   1.164 -32.740  1.00  0.00    -0.350 OA
BRANCH  20  21
HETATM   21  C   UNL     1      -4.556   1.581 -31.383  1.00  0.00     0.171 C 
HETATM   22  C   UNL     1      -3.488   2.658 -31.326  1.00  0.00     0.034 C 
ENDBRANCH  20  21
ENDBRANCH  11  20
ENDBRANCH   7  10
ENDBRANCH   1   6
BRANCH   2  23
HETATM   23  C   UNL     1      -8.175   3.171 -32.563  1.00  0.00     0.732 A 
HETATM   24  N   UNL     1      -8.010   3.634 -31.357  1.00  0.00    -0.067 NA
HETATM   25  C   UNL     1      -7.015   4.561 -31.247  1.00  0.00     0.065 A 
HETATM   26  C   UNL     1      -6.244   5.008 -32.241  1.00  0.00     0.036 A 
HETATM   27  C   UNL     1      -6.656   5.208 -29.951  1.00  0.00     0.061 C 
HETATM   28  C   UNL     1      -5.246   6.012 -31.810  1.00  0.00     0.047 C 
HETATM   29  C   UNL     1      -6.447   4.483 -33.591  1.00  0.00     0.268 A 
HETATM   30  C   UNL     1      -5.322   5.892 -30.281  1.00  0.00     0.011 C 
HETATM   31  O   UNL     1      -5.782   4.849 -34.548  1.00  0.00    -0.267 OA
HETATM   32  N   UNL     1      -7.447   3.553 -33.666  1.00  0.00    -0.152 N 
HETATM   33  H   UNL     1      -7.658   3.130 -34.564  1.00  0.00     0.188 HD
ENDBRANCH   2  23
BRANCH   4  34
HETATM   34  C   UNL     1     -12.551   1.310 -33.484  1.00  0.00     0.105 A 
HETATM   35  O   UNL     1     -13.455   2.179 -32.936  1.00  0.00    -0.320 OA
HETATM   36  C   UNL     1     -14.691   1.780 -33.329  1.00  0.00     0.142 A 
HETATM   37  C   UNL     1     -14.606   0.664 -34.126  1.00  0.00     0.027 A 
HETATM   38  C   UNL     1     -13.227   0.357 -34.225  1.00  0.00     0.041 A 
ENDBRANCH   4  34
TORSDOF 6
ENDMDL
MODEL 2
REMARK VINA RESULT:     -10.3      1.006      1.459
REMARK  6 active torsions:
REMARK  status: ('A' for Active; 'I' for Inactive)
REMARK    1  A    between atoms: C_2  and  O_3 
REMARK    2  A    between atoms: O_3  and  C_4 
REMARK    3  A    between atoms: C_5  and  C_6 
REMARK       I    between atoms: C_6  and  N_7 
REMARK    4  A    between atoms: N_7  and  C_8 
REMARK    5  A    between atoms: N_9  and  C_10 
REMARK    6  A    between atoms: C_21  and  C_22 
ROOT
HETATM    1  C   UNL     1      -9.072   0.888 -33.137  1.00  0.00     0.152 A 
HETATM    2  N   UNL     1      -9.305   2.224 -32.848  1.00  0.00    -0.044 N 
HETATM    3  N   UNL     1     -10.627   2.558 -32.949  1.00  0.00    -0.148 NA
HETATM    4  C   UNL     1     -11.219   1.411 -33.309  1.00  0.00     0.115 A 
HETATM    5  C   UNL     1     -10.296   0.357 -33.469  1.00  0.00     0.087 A 
ENDROOT
BRANCH   1   6
HETATM    6  N   UNL     1      -7.810   0.328 -33.032  1.00  0.00    -0.307 N 
HETATM    7  C   UNL     1      -6.975   0.114 -34.108  1.00  0.00     0.261 C 
HETATM    8  O   UNL     1      -7.102   0.540 -35.249  1.00  0.00    -0.267 OA
HETATM    9  H   UNL     1      -7.520  -0.004 -32.110  1.00  0.00     0.170 HD
BRANCH   7  10
HETATM   10  C   UNL     1      -5.803  -0.720 -33.758  1.00  0.00     0.076 A 
HETATM   11  C   UNL     1      -4.723  -0.087 -33.115  1.00  0.00     0.085 A 
HETATM   12  C   UNL     1      -3.587  -0.836 -32.822  1.00  0.00     0.039 A 
HETATM   13  C   UNL     1      -3.528  -2.188 -33.172  1.00  0.00     0.015 A 
HETATM   14  C   UNL     1      -4.599  -2.823 -33.821  1.00  0.00    -0.025 A 
HETATM   15  C   UNL     1      -5.771  -2.091 -34.121  1.00  0.00    -0.007 A 
HETATM   16  C   UNL     1      -4.510  -4.178 -34.180  1.00  0.00     0.012 A 
HETATM   17  C   UNL     1      -6.830  -2.767 -34.774  1.00  0.00     0.013 A 
HETATM   18  C   UNL     1      -6.724  -4.114 -35.125  1.00  0.00     0.001 A 
HETATM   19  C   UNL     1      -5.564  -4.818 -34.830  1.00  0.00     0.001 A 
BRANCH  11  20
HETATM   20  O   UNL     1      -4.866   1.248 -32.850  1.00  0.00    -0.350 OA
BRANCH  20  21
HETATM   21  C   UNL     1      -4.731   1.688 -31.501  1.00  0.00     0.171 C 
HETATM   22  C   UNL     1      -3.632   2.736 -31.466  1.00  0.00     0.034 C 
ENDBRANCH  20  21
ENDBRANCH  11  20
ENDBRANCH   7  10
ENDBRANCH   1   6
BRANCH   2  23
HETATM   23  C   UNL     1      -8.362   3.203 -32.479  1.00  0.00     0.732 A 
HETATM   24  N   UNL     1      -7.448   3.653 -33.290  1.00  0.00    -0.067 NA
HETATM   25  C   UNL     1      -6.639   4.607 -32.745  1.00  0.00     0.065 A 
HETATM   26  C   UNL     1      -6.713   5.081 -31.500  1.00  0.00     0.036 A 
HETATM   27  C   UNL     1      -5.536   5.260 -33.508  1.00  0.00     0.061 C 
HETATM   28  C   UNL     1      -5.700   6.117 -31.200  1.00  0.00     0.047 C 
HETATM   29  C   UNL     1      -7.741   4.560 -30.598  1.00  0.00     0.268 A 
HETATM   30  C   UNL     1      -5.158   6.439 -32.600  1.00  0.00     0.011 C 
HETATM   31  O   UNL     1      -7.864   4.945 -29.445  1.00  0.00    -0.267 OA
HETATM   32  N   UNL     1      -8.537   3.611 -31.176  1.00  0.00    -0.152 N 
HETATM   33  H   UNL     1      -9.281   3.193 -30.627  1.00  0.00     0.188 HD
ENDBRANCH   2  23
BRANCH   4  34
HETATM   34  C   UNL     1     -12.695   1.287 -33.487  1.00  0.00     0.105 A 
HETATM   35  O   UNL     1     -13.619   2.105 -32.895  1.00  0.00    -0.320 OA
HETATM   36  C   UNL     1     -14.846   1.698 -33.309  1.00  0.00     0.142 A 
HETATM   37  C   UNL     1     -14.734   0.627 -34.162  1.00  0.00     0.027 A 
HETATM   38  C   UNL     1     -13.348   0.358 -34.276  1.00  0.00     0.041 A 
ENDBRANCH   4  34
TORSDOF 6
ENDMDL
MODEL 3
REMARK VINA RESULT:      -9.8      1.996      6.775
REMARK  6 active torsions:
REMARK  status: ('A' for Active; 'I' for Inactive)
REMARK    1  A    between atoms: C_2  and  O_3 
REMARK    2  A    between atoms: O_3  and  C_4 
REMARK    3  A    between atoms: C_5  and  C_6 
REMARK       I    between atoms: C_6  and  N_7 
REMARK    4  A    between atoms: N_7  and  C_8 
REMARK    5  A    between atoms: N_9  and  C_10 
REMARK    6  A    between atoms: C_21  and  C_22 
ROOT
HETATM    1  C   UNL     1      -7.424   0.005 -34.159  1.00  0.00     0.152 A 
HETATM    2  N   UNL     1      -6.245   0.439 -33.571  1.00  0.00    -0.044 N 
HETATM    3  N   UNL     1      -5.313  -0.554 -33.472  1.00  0.00    -0.148 NA
HETATM    4  C   UNL     1      -5.925  -1.622 -34.003  1.00  0.00     0.115 A 
HETATM    5  C   UNL     1      -7.244  -1.335 -34.414  1.00  0.00     0.087 A 
ENDROOT
BRANCH   1   6
HETATM    6  N   UNL     1      -8.476   0.868 -34.413  1.00  0.00    -0.307 N 
HETATM    7  C   UNL     1      -9.312   1.365 -33.436  1.00  0.00     0.261 C 
HETATM    8  O   UNL     1      -9.164   1.303 -32.222  1.00  0.00    -0.267 OA
HETATM    9  H   UNL     1      -8.675   1.089 -35.391  1.00  0.00     0.170 HD
BRANCH   7  10
HETATM   10  C   UNL     1     -10.494   2.055 -33.999  1.00  0.00     0.076 A 
HETATM   11  C   UNL     1     -10.317   3.371 -34.466  1.00  0.00     0.085 A 
HETATM   12  C   UNL     1     -11.423   4.063 -34.952  1.00  0.00     0.039 A 
HETATM   13  C   UNL     1     -12.681   3.455 -34.965  1.00  0.00     0.015 A 
HETATM   14  C   UNL     1     -12.865   2.145 -34.494  1.00  0.00    -0.025 A 
HETATM   15  C   UNL     1     -11.758   1.413 -34.005  1.00  0.00    -0.007 A 
HETATM   16  C   UNL     1     -14.143   1.561 -34.499  1.00  0.00     0.012 A 
HETATM   17  C   UNL     1     -11.984   0.095 -33.540  1.00  0.00     0.013 A 
HETATM   18  C   UNL     1     -13.261  -0.470 -33.550  1.00  0.00     0.001 A 
HETATM   19  C   UNL     1     -14.339   0.263 -34.028  1.00  0.00     0.001 A 
BRANCH  11  20
HETATM   20  O   UNL     1      -9.053   3.889 -34.375  1.00  0.00    -0.350 OA
BRANCH  20  21
HETATM   21  C   UNL     1      -8.893   5.189 -33.815  1.00  0.00     0.171 C 
HETATM   22  C   UNL     1      -8.937   5.049 -32.304  1.00  0.00     0.034 C 
ENDBRANCH  20  21
ENDBRANCH  11  20
ENDBRANCH   7  10
ENDBRANCH   1   6
BRANCH   2  23
HETATM   23  C   UNL     1      -5.942   1.733 -33.103  1.00  0.00     0.732 A 
HETATM   24  N   UNL     1      -5.744   2.748 -33.894  1.00  0.00    -0.067 NA
HETATM   25  C   UNL     1      -5.475   3.917 -33.245  1.00  0.00     0.065 A 
HETATM   26  C   UNL     1      -5.399   4.082 -31.923  1.00  0.00     0.036 A 
HETATM   27  C   UNL     1      -5.229   5.201 -33.965  1.00  0.00     0.061 C 
HETATM   28  C   UNL     1      -5.095   5.472 -31.516  1.00  0.00     0.047 C 
HETATM   29  C   UNL     1      -5.616   2.930 -31.048  1.00  0.00     0.268 A 
HETATM   30  C   UNL     1      -5.301   6.235 -32.832  1.00  0.00     0.011 C 
HETATM   31  O   UNL     1      -5.558   3.007 -29.830  1.00  0.00    -0.267 OA
HETATM   32  N   UNL     1      -5.888   1.776 -31.729  1.00  0.00    -0.152 N 
HETATM   33  H   UNL     1      -6.057   0.924 -31.204  1.00  0.00     0.188 HD
ENDBRANCH   2  23
BRANCH   4  34
HETATM   34  C   UNL     1      -5.253  -2.944 -34.155  1.00  0.00     0.105 A 
HETATM   35  O   UNL     1      -3.989  -3.227 -33.713  1.00  0.00    -0.320 OA
HETATM   36  C   UNL     1      -3.737  -4.528 -34.010  1.00  0.00     0.142 A 
HETATM   37  C   UNL     1      -4.818  -5.096 -34.638  1.00  0.00     0.027 A 
HETATM   38  C   UNL     1      -5.796  -4.076 -34.735  1.00  0.00     0.041 A 
ENDBRANCH   4  34
TORSDOF 6
ENDMDL
MODEL 4
REMARK VINA RESULT:      -9.8      2.502      6.486
REMARK  6 active torsions:
REMARK  status: ('A' for Active; 'I' for Inactive)
REMARK    1  A    between atoms: C_2  and  O_3 
REMARK    2  A    between atoms: O_3  and  C_4 
REMARK    3  A    between atoms: C_5  and  C_6 
REMARK       I    between atoms: C_6  and  N_7 
REMARK    4  A    between atoms: N_7  and  C_8 
REMARK    5  A    between atoms: N_9  and  C_10 
REMARK    6  A    between atoms: C_21  and  C_22 
ROOT
HETATM    1  C   UNL     1      -4.208   2.993 -32.430  1.00  0.00     0.152 A 
HETATM    2  N   UNL     1      -5.032   4.026 -32.009  1.00  0.00    -0.044 N 
HETATM    3  N   UNL     1      -4.330   5.075 -31.484  1.00  0.00    -0.148 NA
HETATM    4  C   UNL     1      -3.052   4.682 -31.578  1.00  0.00     0.115 A 
HETATM    5  C   UNL     1      -2.926   3.389 -32.127  1.00  0.00     0.087 A 
ENDROOT
BRANCH   1   6
HETATM    6  N   UNL     1      -4.712   1.863 -33.051  1.00  0.00    -0.307 N 
HETATM    7  C   UNL     1      -5.153   0.748 -32.371  1.00  0.00     0.261 C 
HETATM    8  O   UNL     1      -5.358   0.637 -31.169  1.00  0.00    -0.267 OA
HETATM    9  H   UNL     1      -4.688   1.840 -34.072  1.00  0.00     0.170 HD
BRANCH   7  10
HETATM   10  C   UNL     1      -5.401  -0.402 -33.270  1.00  0.00     0.076 A 
HETATM   11  C   UNL     1      -6.419  -0.266 -34.232  1.00  0.00     0.085 A 
HETATM   12  C   UNL     1      -6.710  -1.350 -35.056  1.00  0.00     0.039 A 
HETATM   13  C   UNL     1      -6.003  -2.548 -34.915  1.00  0.00     0.015 A 
HETATM   14  C   UNL     1      -4.993  -2.692 -33.951  1.00  0.00    -0.025 A 
HETATM   15  C   UNL     1      -4.667  -1.604 -33.108  1.00  0.00    -0.007 A 
HETATM   16  C   UNL     1      -4.309  -3.912 -33.815  1.00  0.00     0.012 A 
HETATM   17  C   UNL     1      -3.642  -1.788 -32.150  1.00  0.00     0.013 A 
HETATM   18  C   UNL     1      -2.973  -3.008 -32.026  1.00  0.00     0.001 A 
HETATM   19  C   UNL     1      -3.309  -4.069 -32.857  1.00  0.00     0.001 A 
BRANCH  11  20
HETATM   20  O   UNL     1      -7.075   0.934 -34.265  1.00  0.00    -0.350 OA
BRANCH  20  21
HETATM   21  C   UNL     1      -8.500   0.926 -34.299  1.00  0.00     0.171 C 
HETATM   22  C   UNL     1      -8.991   0.519 -32.921  1.00  0.00     0.034 C 
ENDBRANCH  20  21
ENDBRANCH  11  20
ENDBRANCH   7  10
ENDBRANCH   1   6
BRANCH   2  23
HETATM   23  C   UNL     1      -6.438   4.089 -32.076  1.00  0.00     0.732 A 
HETATM   24  N   UNL     1      -7.215   3.649 -31.129  1.00  0.00    -0.067 NA
HETATM   25  C   UNL     1      -8.547   3.812 -31.380  1.00  0.00     0.065 A 
HETATM   26  C   UNL     1      -9.078   4.356 -32.476  1.00  0.00     0.036 A 
HETATM   27  C   UNL     1      -9.606   3.386 -30.419  1.00  0.00     0.061 C 
HETATM   28  C   UNL     1     -10.557   4.400 -32.458  1.00  0.00     0.047 C 
HETATM   29  C   UNL     1      -8.191   4.839 -33.535  1.00  0.00     0.268 A 
HETATM   30  C   UNL     1     -10.862   4.058 -30.993  1.00  0.00     0.011 C 
HETATM   31  O   UNL     1      -8.608   5.344 -34.566  1.00  0.00    -0.267 OA
HETATM   32  N   UNL     1      -6.865   4.665 -33.250  1.00  0.00    -0.152 N 
HETATM   33  H   UNL     1      -6.173   4.973 -33.926  1.00  0.00     0.188 HD
ENDBRANCH   2  23
BRANCH   4  34
HETATM   34  C   UNL     1      -1.910   5.549 -31.165  1.00  0.00     0.105 A 
HETATM   35  O   UNL     1      -1.928   6.395 -30.090  1.00  0.00    -0.320 OA
HETATM   36  C   UNL     1      -0.710   6.992 -30.023  1.00  0.00     0.142 A 
HETATM   37  C   UNL     1       0.100   6.547 -31.040  1.00  0.00     0.027 A 
HETATM   38  C   UNL     1      -0.673   5.618 -31.779  1.00  0.00     0.041 A 
ENDBRANCH   4  34
TORSDOF 6
ENDMDL
MODEL 5
REMARK VINA RESULT:      -9.6      2.401      3.063
REMARK  6 active torsions:
REMARK  status: ('A' for Active; 'I' for Inactive)
REMARK    1  A    between atoms: C_2  and  O_3 
REMARK    2  A    between atoms: O_3  and  C_4 
REMARK    3  A    between atoms: C_5  and  C_6 
REMARK       I    between atoms: C_6  and  N_7 
REMARK    4  A    between atoms: N_7  and  C_8 
REMARK    5  A    between atoms: N_9  and  C_10 
REMARK    6  A    between atoms: C_21  and  C_22 
ROOT
HETATM    1  C   UNL     1      -7.956   3.069 -34.179  1.00  0.00     0.152 A 
HETATM    2  N   UNL     1      -7.609   4.399 -33.990  1.00  0.00    -0.044 N 
HETATM    3  N   UNL     1      -8.688   5.234 -34.045  1.00  0.00    -0.148 NA
HETATM    4  C   UNL     1      -9.720   4.409 -34.275  1.00  0.00     0.115 A 
HETATM    5  C   UNL     1      -9.314   3.064 -34.398  1.00  0.00     0.087 A 
ENDROOT
BRANCH   1   6
HETATM    6  N   UNL     1      -7.022   2.051 -34.097  1.00  0.00    -0.307 N 
HETATM    7  C   UNL     1      -7.088   1.021 -33.183  1.00  0.00     0.261 C 
HETATM    8  O   UNL     1      -8.030   0.723 -32.460  1.00  0.00    -0.267 OA
HETATM    9  H   UNL     1      -6.205   2.114 -34.709  1.00  0.00     0.170 HD
BRANCH   7  10
HETATM   10  C   UNL     1      -5.846   0.218 -33.143  1.00  0.00     0.076 A 
HETATM   11  C   UNL     1      -4.689   0.836 -32.632  1.00  0.00     0.085 A 
HETATM   12  C   UNL     1      -3.494   0.121 -32.631  1.00  0.00     0.039 A 
HETATM   13  C   UNL     1      -3.455  -1.181 -33.137  1.00  0.00     0.015 A 
HETATM   14  C   UNL     1      -4.604  -1.800 -33.655  1.00  0.00    -0.025 A 
HETATM   15  C   UNL     1      -5.835  -1.103 -33.658  1.00  0.00    -0.007 A 
HETATM   16  C   UNL     1      -4.536  -3.103 -34.175  1.00  0.00     0.012 A 
HETATM   17  C   UNL     1      -6.971  -1.761 -34.187  1.00  0.00     0.013 A 
HETATM   18  C   UNL     1      -6.886  -3.056 -34.702  1.00  0.00     0.001 A 
HETATM   19  C   UNL     1      -5.669  -3.725 -34.698  1.00  0.00     0.001 A 
BRANCH  11  20
HETATM   20  O   UNL     1      -4.825   2.126 -32.196  1.00  0.00    -0.350 OA
BRANCH  20  21
HETATM   21  C   UNL     1      -4.474   2.425 -30.848  1.00  0.00     0.171 C 
HETATM   22  C   UNL     1      -5.621   1.973 -29.962  1.00  0.00     0.034 C 
ENDBRANCH  20  21
ENDBRANCH  11  20
ENDBRANCH   7  10
ENDBRANCH   1   6
BRANCH   2  23
HETATM   23  C   UNL     1      -6.324   4.928 -33.756  1.00  0.00     0.732 A 
HETATM   24  N   UNL     1      -5.329   4.772 -34.581  1.00  0.00    -0.067 NA
HETATM   25  C   UNL     1      -4.172   5.372 -34.178  1.00  0.00     0.065 A 
HETATM   26  C   UNL     1      -3.998   6.066 -33.051  1.00  0.00     0.036 A 
HETATM   27  C   UNL     1      -2.916   5.324 -34.983  1.00  0.00     0.061 C 
HETATM   28  C   UNL     1      -2.628   6.602 -32.892  1.00  0.00     0.047 C 
HETATM   29  C   UNL     1      -5.124   6.225 -32.131  1.00  0.00     0.268 A 
HETATM   30  C   UNL     1      -2.039   6.378 -34.292  1.00  0.00     0.011 C 
HETATM   31  O   UNL     1      -5.035   6.843 -31.081  1.00  0.00    -0.267 OA
HETATM   32  N   UNL     1      -6.268   5.617 -32.566  1.00  0.00    -0.152 N 
HETATM   33  H   UNL     1      -7.105   5.677 -31.994  1.00  0.00     0.188 HD
ENDBRANCH   2  23
BRANCH   4  34
HETATM   34  C   UNL     1     -11.130   4.887 -34.361  1.00  0.00     0.105 A 
HETATM   35  O   UNL     1     -11.805   5.498 -33.340  1.00  0.00    -0.320 OA
HETATM   36  C   UNL     1     -13.046   5.804 -33.799  1.00  0.00     0.142 A 
HETATM   37  C   UNL     1     -13.188   5.400 -35.105  1.00  0.00     0.027 A 
HETATM   38  C   UNL     1     -11.954   4.806 -35.468  1.00  0.00     0.041 A 
ENDBRANCH   4  34
TORSDOF 6
ENDMDL
MODEL 6
REMARK VINA RESULT:      -9.3      2.830      6.899
REMARK  6 active torsions:
REMARK  status: ('A' for Active; 'I' for Inactive)
REMARK    1  A    between atoms: C_2  and  O_3 
REMARK    2  A    between atoms: O_3  and  C_4 
REMARK    3  A    between atoms: C_5  and  C_6 
REMARK       I    between atoms: C_6  and  N_7 
REMARK    4  A    between atoms: N_7  and  C_8 
REMARK    5  A    between atoms: N_9  and  C_10 
REMARK    6  A    between atoms: C_21  and  C_22 
ROOT
HETATM    1  C   UNL     1      -4.205   3.510 -32.371  1.00  0.00     0.152 A 
HETATM    2  N   UNL     1      -4.771   4.657 -31.835  1.00  0.00    -0.044 N 
HETATM    3  N   UNL     1      -3.841   5.483 -31.268  1.00  0.00    -0.148 NA
HETATM    4  C   UNL     1      -2.683   4.835 -31.452  1.00  0.00     0.115 A 
HETATM    5  C   UNL     1      -2.859   3.595 -32.102  1.00  0.00     0.087 A 
ENDROOT
BRANCH   1   6
HETATM    6  N   UNL     1      -4.961   2.570 -33.050  1.00  0.00    -0.307 N 
HETATM    7  C   UNL     1      -5.638   1.540 -32.432  1.00  0.00     0.261 C 
HETATM    8  O   UNL     1      -5.848   1.396 -31.234  1.00  0.00    -0.267 OA
HETATM    9  H   UNL     1      -4.956   2.612 -34.071  1.00  0.00     0.170 HD
BRANCH   7  10
HETATM   10  C   UNL     1      -6.154   0.542 -33.396  1.00  0.00     0.076 A 
HETATM   11  C   UNL     1      -7.329   0.866 -34.099  1.00  0.00     0.085 A 
HETATM   12  C   UNL     1      -7.866  -0.076 -34.973  1.00  0.00     0.039 A 
HETATM   13  C   UNL     1      -7.245  -1.318 -35.135  1.00  0.00     0.015 A 
HETATM   14  C   UNL     1      -6.077  -1.649 -34.430  1.00  0.00    -0.025 A 
HETATM   15  C   UNL     1      -5.502  -0.708 -33.544  1.00  0.00    -0.007 A 
HETATM   16  C   UNL     1      -5.481  -2.910 -34.594  1.00  0.00     0.012 A 
HETATM   17  C   UNL     1      -4.323  -1.079 -32.853  1.00  0.00     0.013 A 
HETATM   18  C   UNL     1      -3.745  -2.338 -33.026  1.00  0.00     0.001 A 
HETATM   19  C   UNL     1      -4.325  -3.253 -33.895  1.00  0.00     0.001 A 
BRANCH  11  20
HETATM   20  O   UNL     1      -7.879   2.092 -33.842  1.00  0.00    -0.350 OA
BRANCH  20  21
HETATM   21  C   UNL     1      -9.296   2.185 -33.713  1.00  0.00     0.171 C 
HETATM   22  C   UNL     1      -9.630   2.110 -32.234  1.00  0.00     0.034 C 
ENDBRANCH  20  21
ENDBRANCH  11  20
ENDBRANCH   7  10
ENDBRANCH   1   6
BRANCH   2  23
HETATM   23  C   UNL     1      -6.130   5.025 -31.830  1.00  0.00     0.732 A 
HETATM   24  N   UNL     1      -6.814   5.239 -32.917  1.00  0.00    -0.067 NA
HETATM   25  C   UNL     1      -8.119   5.573 -32.698  1.00  0.00     0.065 A 
HETATM   26  C   UNL     1      -8.709   5.697 -31.508  1.00  0.00     0.036 A 
HETATM   27  C   UNL     1      -9.077   5.848 -33.809  1.00  0.00     0.061 C 
HETATM   28  C   UNL     1     -10.139   6.067 -31.592  1.00  0.00     0.047 C 
HETATM   29  C   UNL     1      -7.925   5.461 -30.296  1.00  0.00     0.268 A 
HETATM   30  C   UNL     1     -10.431   5.852 -33.085  1.00  0.00     0.011 C 
HETATM   31  O   UNL     1      -8.399   5.560 -29.174  1.00  0.00    -0.267 OA
HETATM   32  N   UNL     1      -6.625   5.123 -30.549  1.00  0.00    -0.152 N 
HETATM   33  H   UNL     1      -6.004   4.937 -29.768  1.00  0.00     0.188 HD
ENDBRANCH   2  23
BRANCH   4  34
HETATM   34  C   UNL     1      -1.368   5.398 -31.031  1.00  0.00     0.105 A 
HETATM   35  O   UNL     1      -0.153   4.852 -31.346  1.00  0.00    -0.320 OA
HETATM   36  C   UNL     1       0.803   5.652 -30.808  1.00  0.00     0.142 A 
HETATM   37  C   UNL     1       0.229   6.711 -30.148  1.00  0.00     0.027 A 
HETATM   38  C   UNL     1      -1.171   6.548 -30.288  1.00  0.00     0.041 A 
ENDBRANCH   4  34
TORSDOF 6
ENDMDL
MODEL 7
REMARK VINA RESULT:      -9.1      2.397      6.869
REMARK  6 active torsions:
REMARK  status: ('A' for Active; 'I' for Inactive)
REMARK    1  A    between atoms: C_2  and  O_3 
REMARK    2  A    between atoms: O_3  and  C_4 
REMARK    3  A    between atoms: C_5  and  C_6 
REMARK       I    between atoms: C_6  and  N_7 
REMARK    4  A    between atoms: N_7  and  C_8 
REMARK    5  A    between atoms: N_9  and  C_10 
REMARK    6  A    between atoms: C_21  and  C_22 
ROOT
HETATM    1  C   UNL     1      -5.924   1.484 -33.126  1.00  0.00     0.152 A 
HETATM    2  N   UNL     1      -7.259   1.117 -33.208  1.00  0.00    -0.044 N 
HETATM    3  N   UNL     1      -7.420  -0.180 -33.607  1.00  0.00    -0.148 NA
HETATM    4  C   UNL     1      -6.166  -0.620 -33.779  1.00  0.00     0.115 A 
HETATM    5  C   UNL     1      -5.206   0.381 -33.525  1.00  0.00     0.087 A 
ENDROOT
BRANCH   1   6
HETATM    6  N   UNL     1      -5.537   2.736 -32.678  1.00  0.00    -0.307 N 
HETATM    7  C   UNL     1      -5.535   3.865 -33.468  1.00  0.00     0.261 C 
HETATM    8  O   UNL     1      -6.036   4.003 -34.577  1.00  0.00    -0.267 OA
HETATM    9  H   UNL     1      -5.170   2.800 -31.726  1.00  0.00     0.170 HD
BRANCH   7  10
HETATM   10  C   UNL     1      -4.845   5.006 -32.825  1.00  0.00     0.076 A 
HETATM   11  C   UNL     1      -5.519   5.669 -31.782  1.00  0.00     0.085 A 
HETATM   12  C   UNL     1      -4.915   6.778 -31.194  1.00  0.00     0.039 A 
HETATM   13  C   UNL     1      -3.667   7.219 -31.645  1.00  0.00     0.015 A 
HETATM   14  C   UNL     1      -2.994   6.565 -32.689  1.00  0.00    -0.025 A 
HETATM   15  C   UNL     1      -3.577   5.429 -33.298  1.00  0.00    -0.007 A 
HETATM   16  C   UNL     1      -1.749   7.038 -33.138  1.00  0.00     0.012 A 
HETATM   17  C   UNL     1      -2.866   4.798 -34.346  1.00  0.00     0.013 A 
HETATM   18  C   UNL     1      -1.631   5.281 -34.782  1.00  0.00     0.001 A 
HETATM   19  C   UNL     1      -1.074   6.401 -34.178  1.00  0.00     0.001 A 
BRANCH  11  20
HETATM   20  O   UNL     1      -6.751   5.182 -31.442  1.00  0.00    -0.350 OA
BRANCH  20  21
HETATM   21  C   UNL     1      -7.833   6.102 -31.319  1.00  0.00     0.171 C 
HETATM   22  C   UNL     1      -8.374   6.365 -32.713  1.00  0.00     0.034 C 
ENDBRANCH  20  21
ENDBRANCH  11  20
ENDBRANCH   7  10
ENDBRANCH   1   6
BRANCH   2  23
HETATM   23  C   UNL     1      -8.389   1.909 -32.927  1.00  0.00     0.732 A 
HETATM   24  N   UNL     1      -8.701   2.305 -31.727  1.00  0.00    -0.067 NA
HETATM   25  C   UNL     1      -9.827   3.074 -31.667  1.00  0.00     0.065 A 
HETATM   26  C   UNL     1     -10.594   3.424 -32.702  1.00  0.00     0.036 A 
HETATM   27  C   UNL     1     -10.350   3.638 -30.389  1.00  0.00     0.061 C 
HETATM   28  C   UNL     1     -11.747   4.269 -32.323  1.00  0.00     0.047 C 
HETATM   29  C   UNL     1     -10.234   2.964 -34.043  1.00  0.00     0.268 A 
HETATM   30  C   UNL     1     -11.394   4.653 -30.879  1.00  0.00     0.011 C 
HETATM   31  O   UNL     1     -10.893   3.243 -35.034  1.00  0.00    -0.267 OA
HETATM   32  N   UNL     1      -9.100   2.202 -34.068  1.00  0.00    -0.152 N 
HETATM   33  H   UNL     1      -8.771   1.840 -34.958  1.00  0.00     0.188 HD
ENDBRANCH   2  23
BRANCH   4  34
HETATM   34  C   UNL     1      -5.851  -2.025 -34.171  1.00  0.00     0.105 A 
HETATM   35  O   UNL     1      -4.604  -2.584 -34.115  1.00  0.00    -0.320 OA
HETATM   36  C   UNL     1      -4.718  -3.873 -34.527  1.00  0.00     0.142 A 
HETATM   37  C   UNL     1      -6.022  -4.160 -34.851  1.00  0.00     0.027 A 
HETATM   38  C   UNL     1      -6.754  -2.969 -34.625  1.00  0.00     0.041 A 
ENDBRANCH   4  34
TORSDOF 6
ENDMDL
MODEL 8
REMARK VINA RESULT:      -9.0      2.061      7.067
REMARK  6 active torsions:
REMARK  status: ('A' for Active; 'I' for Inactive)
REMARK    1  A    between atoms: C_2  and  O_3 
REMARK    2  A    between atoms: O_3  and  C_4 
REMARK    3  A    between atoms: C_5  and  C_6 
REMARK       I    between atoms: C_6  and  N_7 
REMARK    4  A    between atoms: N_7  and  C_8 
REMARK    5  A    between atoms: N_9  and  C_10 
REMARK    6  A    between atoms: C_21  and  C_22 
ROOT
HETATM    1  C   UNL     1      -6.100   0.788 -33.514  1.00  0.00     0.152 A 
HETATM    2  N   UNL     1      -7.378   0.448 -33.933  1.00  0.00    -0.044 N 
HETATM    3  N   UNL     1      -7.469  -0.857 -34.329  1.00  0.00    -0.148 NA
HETATM    4  C   UNL     1      -6.227  -1.330 -34.156  1.00  0.00     0.115 A 
HETATM    5  C   UNL     1      -5.337  -0.343 -33.684  1.00  0.00     0.087 A 
ENDROOT
BRANCH   1   6
HETATM    6  N   UNL     1      -5.806   2.044 -33.012  1.00  0.00    -0.307 N 
HETATM    7  C   UNL     1      -5.526   2.292 -31.685  1.00  0.00     0.261 C 
HETATM    8  O   UNL     1      -5.300   1.474 -30.803  1.00  0.00    -0.267 OA
HETATM    9  H   UNL     1      -5.869   2.834 -33.658  1.00  0.00     0.170 HD
BRANCH   7  10
HETATM   10  C   UNL     1      -5.497   3.739 -31.374  1.00  0.00     0.076 A 
HETATM   11  C   UNL     1      -6.730   4.383 -31.160  1.00  0.00     0.085 A 
HETATM   12  C   UNL     1      -6.735   5.754 -30.917  1.00  0.00     0.039 A 
HETATM   13  C   UNL     1      -5.533   6.468 -30.895  1.00  0.00     0.015 A 
HETATM   14  C   UNL     1      -4.301   5.832 -31.116  1.00  0.00    -0.025 A 
HETATM   15  C   UNL     1      -4.263   4.438 -31.354  1.00  0.00    -0.007 A 
HETATM   16  C   UNL     1      -3.107   6.573 -31.108  1.00  0.00     0.012 A 
HETATM   17  C   UNL     1      -3.002   3.834 -31.569  1.00  0.00     0.013 A 
HETATM   18  C   UNL     1      -1.824   4.585 -31.561  1.00  0.00     0.001 A 
HETATM   19  C   UNL     1      -1.879   5.954 -31.332  1.00  0.00     0.001 A 
BRANCH  11  20
HETATM   20  O   UNL     1      -7.851   3.602 -31.239  1.00  0.00    -0.350 OA
BRANCH  20  21
HETATM   21  C   UNL     1      -8.724   3.555 -30.113  1.00  0.00     0.171 C 
HETATM   22  C   UNL     1     -10.109   3.954 -30.589  1.00  0.00     0.034 C 
ENDBRANCH  20  21
ENDBRANCH  11  20
ENDBRANCH   7  10
ENDBRANCH   1   6
BRANCH   2  23
HETATM   23  C   UNL     1      -8.518   1.275 -33.977  1.00  0.00     0.732 A 
HETATM   24  N   UNL     1      -8.462   2.552 -34.220  1.00  0.00    -0.067 NA
HETATM   25  C   UNL     1      -9.677   3.172 -34.231  1.00  0.00     0.065 A 
HETATM   26  C   UNL     1     -10.858   2.589 -34.015  1.00  0.00     0.036 A 
HETATM   27  C   UNL     1      -9.835   4.632 -34.501  1.00  0.00     0.061 C 
HETATM   28  C   UNL     1     -12.003   3.523 -34.097  1.00  0.00     0.047 C 
HETATM   29  C   UNL     1     -10.904   1.154 -33.735  1.00  0.00     0.268 A 
HETATM   30  C   UNL     1     -11.349   4.765 -34.719  1.00  0.00     0.011 C 
HETATM   31  O   UNL     1     -11.948   0.556 -33.524  1.00  0.00    -0.267 OA
HETATM   32  N   UNL     1      -9.671   0.563 -33.737  1.00  0.00    -0.152 N 
HETATM   33  H   UNL     1      -9.604  -0.434 -33.555  1.00  0.00     0.188 HD
ENDBRANCH   2  23
BRANCH   4  34
HETATM   34  C   UNL     1      -5.864  -2.753 -34.417  1.00  0.00     0.105 A 
HETATM   35  O   UNL     1      -4.655  -3.314 -34.108  1.00  0.00    -0.320 OA
HETATM   36  C   UNL     1      -4.708  -4.621 -34.473  1.00  0.00     0.142 A 
HETATM   37  C   UNL     1      -5.935  -4.919 -35.014  1.00  0.00     0.027 A 
HETATM   38  C   UNL     1      -6.681  -3.715 -34.982  1.00  0.00     0.041 A 
ENDBRANCH   4  34
TORSDOF 6
ENDMDL
MODEL 9
REMARK VINA RESULT:      -8.9      2.103      7.184
REMARK  6 active torsions:
REMARK  status: ('A' for Active; 'I' for Inactive)
REMARK    1  A    between atoms: C_2  and  O_3 
REMARK    2  A    between atoms: O_3  and  C_4 
REMARK    3  A    between atoms: C_5  and  C_6 
REMARK       I    between atoms: C_6  and  N_7 
REMARK    4  A    between atoms: N_7  and  C_8 
REMARK    5  A    between atoms: N_9  and  C_10 
REMARK    6  A    between atoms: C_21  and  C_22 
ROOT
HETATM    1  C   UNL     1      -6.726   1.060 -33.210  1.00  0.00     0.152 A 
HETATM    2  N   UNL     1      -7.892   0.643 -33.835  1.00  0.00    -0.044 N 
HETATM    3  N   UNL     1      -7.796  -0.629 -34.325  1.00  0.00    -0.148 NA
HETATM    4  C   UNL     1      -6.550  -1.003 -34.002  1.00  0.00     0.115 A 
HETATM    5  C   UNL     1      -5.838   0.019 -33.340  1.00  0.00     0.087 A 
ENDROOT
BRANCH   1   6
HETATM    6  N   UNL     1      -6.632   2.294 -32.589  1.00  0.00    -0.307 N 
HETATM    7  C   UNL     1      -6.843   2.490 -31.241  1.00  0.00     0.261 C 
HETATM    8  O   UNL     1      -6.943   1.637 -30.367  1.00  0.00    -0.267 OA
HETATM    9  H   UNL     1      -6.463   3.107 -33.184  1.00  0.00     0.170 HD
BRANCH   7  10
HETATM   10  C   UNL     1      -6.929   3.924 -30.883  1.00  0.00     0.076 A 
HETATM   11  C   UNL     1      -5.726   4.595 -30.594  1.00  0.00     0.085 A 
HETATM   12  C   UNL     1      -5.782   5.931 -30.204  1.00  0.00     0.039 A 
HETATM   13  C   UNL     1      -7.015   6.580 -30.098  1.00  0.00     0.015 A 
HETATM   14  C   UNL     1      -8.219   5.913 -30.378  1.00  0.00    -0.025 A 
HETATM   15  C   UNL     1      -8.193   4.560 -30.787  1.00  0.00    -0.007 A 
HETATM   16  C   UNL     1      -9.448   6.580 -30.246  1.00  0.00     0.012 A 
HETATM   17  C   UNL     1      -9.427   3.923 -31.062  1.00  0.00     0.013 A 
HETATM   18  C   UNL     1     -10.641   4.600 -30.924  1.00  0.00     0.001 A 
HETATM   19  C   UNL     1     -10.650   5.927 -30.514  1.00  0.00     0.001 A 
BRANCH  11  20
HETATM   20  O   UNL     1      -4.576   3.860 -30.692  1.00  0.00    -0.350 OA
BRANCH  20  21
HETATM   21  C   UNL     1      -3.536   4.340 -31.540  1.00  0.00     0.171 C 
HETATM   22  C   UNL     1      -3.134   3.204 -32.464  1.00  0.00     0.034 C 
ENDBRANCH  20  21
ENDBRANCH  11  20
ENDBRANCH   7  10
ENDBRANCH   1   6
BRANCH   2  23
HETATM   23  C   UNL     1      -9.091   1.365 -33.993  1.00  0.00     0.732 A 
HETATM   24  N   UNL     1      -9.128   2.603 -34.395  1.00  0.00    -0.067 NA
HETATM   25  C   UNL     1     -10.387   3.120 -34.495  1.00  0.00     0.065 A 
HETATM   26  C   UNL     1     -11.524   2.478 -34.216  1.00  0.00     0.036 A 
HETATM   27  C   UNL     1     -10.652   4.516 -34.949  1.00  0.00     0.061 C 
HETATM   28  C   UNL     1     -12.735   3.302 -34.426  1.00  0.00     0.047 C 
HETATM   29  C   UNL     1     -11.464   1.090 -33.757  1.00  0.00     0.268 A 
HETATM   30  C   UNL     1     -12.167   4.503 -35.195  1.00  0.00     0.011 C 
HETATM   31  O   UNL     1     -12.464   0.444 -33.480  1.00  0.00    -0.267 OA
HETATM   32  N   UNL     1     -10.190   0.602 -33.673  1.00  0.00    -0.152 N 
HETATM   33  H   UNL     1     -10.050  -0.356 -33.366  1.00  0.00     0.188 HD
ENDBRANCH   2  23
BRANCH   4  34
HETATM   34  C   UNL     1      -6.014  -2.363 -34.299  1.00  0.00     0.105 A 
HETATM   35  O   UNL     1      -4.714  -2.743 -34.106  1.00  0.00    -0.320 OA
HETATM   36  C   UNL     1      -4.615  -4.048 -34.468  1.00  0.00     0.142 A 
HETATM   37  C   UNL     1      -5.831  -4.523 -34.893  1.00  0.00     0.027 A 
HETATM   38  C   UNL     1      -6.735  -3.437 -34.787  1.00  0.00     0.041 A 
ENDBRANCH   4  34
TORSDOF 6
ENDMDL
MODEL 10
REMARK VINA RESULT:      -8.9      1.918      6.956
REMARK  6 active torsions:
REMARK  status: ('A' for Active; 'I' for Inactive)
REMARK    1  A    between atoms: C_2  and  O_3 
REMARK    2  A    between atoms: O_3  and  C_4 
REMARK    3  A    between atoms: C_5  and  C_6 
REMARK       I    between atoms: C_6  and  N_7 
REMARK    4  A    between atoms: N_7  and  C_8 
REMARK    5  A    between atoms: N_9  and  C_10 
REMARK    6  A    between atoms: C_21  and  C_22 
ROOT
HETATM    1  C   UNL     1      -6.335   1.106 -33.640  1.00  0.00     0.152 A 
HETATM    2  N   UNL     1      -7.639   0.635 -33.632  1.00  0.00    -0.044 N 
HETATM    3  N   UNL     1      -7.713  -0.705 -33.894  1.00  0.00    -0.148 NA
HETATM    4  C   UNL     1      -6.434  -1.066 -34.070  1.00  0.00     0.115 A 
HETATM    5  C   UNL     1      -5.547   0.024 -33.955  1.00  0.00     0.087 A 
ENDROOT
BRANCH   1   6
HETATM    6  N   UNL     1      -6.032   2.422 -33.335  1.00  0.00    -0.307 N 
HETATM    7  C   UNL     1      -5.237   2.799 -32.273  1.00  0.00     0.261 C 
HETATM    8  O   UNL     1      -4.532   2.081 -31.575  1.00  0.00    -0.267 OA
HETATM    9  H   UNL     1      -6.484   3.149 -33.894  1.00  0.00     0.170 HD
BRANCH   7  10
HETATM   10  C   UNL     1      -5.280   4.257 -32.023  1.00  0.00     0.076 A 
HETATM   11  C   UNL     1      -4.484   5.080 -32.841  1.00  0.00     0.085 A 
HETATM   12  C   UNL     1      -4.464   6.451 -32.594  1.00  0.00     0.039 A 
HETATM   13  C   UNL     1      -5.219   6.986 -31.546  1.00  0.00     0.015 A 
HETATM   14  C   UNL     1      -6.008   6.168 -30.721  1.00  0.00    -0.025 A 
HETATM   15  C   UNL     1      -6.057   4.774 -30.955  1.00  0.00    -0.007 A 
HETATM   16  C   UNL     1      -6.743   6.725 -29.662  1.00  0.00     0.012 A 
HETATM   17  C   UNL     1      -6.866   3.984 -30.104  1.00  0.00     0.013 A 
HETATM   18  C   UNL     1      -7.589   4.553 -29.054  1.00  0.00     0.001 A 
HETATM   19  C   UNL     1      -7.525   5.923 -28.832  1.00  0.00     0.001 A 
BRANCH  11  20
HETATM   20  O   UNL     1      -3.754   4.455 -33.815  1.00  0.00    -0.350 OA
BRANCH  20  21
HETATM   21  C   UNL     1      -3.263   5.237 -34.900  1.00  0.00     0.171 C 
HETATM   22  C   UNL     1      -1.746   5.193 -34.849  1.00  0.00     0.034 C 
ENDBRANCH  20  21
ENDBRANCH  11  20
ENDBRANCH   7  10
ENDBRANCH   1   6
BRANCH   2  23
HETATM   23  C   UNL     1      -8.818   1.366 -33.388  1.00  0.00     0.732 A 
HETATM   24  N   UNL     1      -8.966   2.157 -32.365  1.00  0.00    -0.067 NA
HETATM   25  C   UNL     1     -10.177   2.783 -32.314  1.00  0.00     0.065 A 
HETATM   26  C   UNL     1     -11.171   2.643 -33.193  1.00  0.00     0.036 A 
HETATM   27  C   UNL     1     -10.545   3.739 -31.229  1.00  0.00     0.061 C 
HETATM   28  C   UNL     1     -12.364   3.458 -32.874  1.00  0.00     0.047 C 
HETATM   29  C   UNL     1     -10.992   1.744 -34.334  1.00  0.00     0.268 A 
HETATM   30  C   UNL     1     -11.821   4.391 -31.782  1.00  0.00     0.011 C 
HETATM   31  O   UNL     1     -11.860   1.565 -35.175  1.00  0.00    -0.267 OA
HETATM   32  N   UNL     1      -9.767   1.137 -34.358  1.00  0.00    -0.152 N 
HETATM   33  H   UNL     1      -9.551   0.497 -35.116  1.00  0.00     0.188 HD
ENDBRANCH   2  23
BRANCH   4  34
HETATM   34  C   UNL     1      -6.024  -2.476 -34.332  1.00  0.00     0.105 A 
HETATM   35  O   UNL     1      -4.770  -2.974 -34.104  1.00  0.00    -0.320 OA
HETATM   36  C   UNL     1      -4.789  -4.290 -34.440  1.00  0.00     0.142 A 
HETATM   37  C   UNL     1      -6.036  -4.655 -34.884  1.00  0.00     0.027 A 
HETATM   38  C   UNL     1      -6.834  -3.487 -34.817  1.00  0.00     0.041 A 
ENDBRANCH   4  34
TORSDOF 6
ENDMDL
