MODEL 1
REMARK VINA RESULT:      -8.3      0.000      0.000
REMARK  7 active torsions:
REMARK  status: ('A' for Active; 'I' for Inactive)
REMARK    1  A    between atoms: C_2  and  N_3 
REMARK    2  A    between atoms: C_2  and  C_17 
REMARK       I    between atoms: N_3  and  C_4 
REMARK    3  A    between atoms: C_4  and  C_5 
REMARK    4  A    between atoms: C_7  and  N_8 
REMARK    5  A    between atoms: C_17  and  O_18 
REMARK    6  A    between atoms: C_17  and  C_19 
REMARK    7  A    between atoms: C_22  and  O_23 
ROOT
HETATM    1  N   UNL     1      -4.861   2.510 -32.104  1.00  0.00    -0.349 N 
HETATM    2  C   UNL     1      -3.523   2.362 -31.823  1.00  0.00     0.270 C 
HETATM    3  O   UNL     1      -3.047   1.352 -31.317  1.00  0.00    -0.266 OA
HETATM    4  H   UNL     1      -5.124   3.401 -32.518  1.00  0.00     0.163 HD
ENDROOT
BRANCH   1   5
HETATM    5  C   UNL     1      -5.884   1.468 -31.970  1.00  0.00     0.114 C 
HETATM    6  C   UNL     1      -6.949   1.891 -30.952  1.00  0.00     0.035 C 
BRANCH   5   7
HETATM    7  C   UNL     1      -6.535   0.986 -33.304  1.00  0.00     0.173 C 
BRANCH   7   8
HETATM    8  O   UNL     1      -6.363   1.891 -34.395  1.00  0.00    -0.389 OA
HETATM    9  H   UNL     1      -7.244   2.266 -34.604  1.00  0.00     0.210 HD
ENDBRANCH   7   8
BRANCH   7  10
HETATM   10  C   UNL     1      -6.124  -0.420 -33.703  1.00  0.00    -0.028 A 
HETATM   11  C   UNL     1      -4.800  -0.839 -33.515  1.00  0.00     0.012 A 
HETATM   12  C   UNL     1      -4.404  -2.130 -33.874  1.00  0.00     0.037 A 
HETATM   13  C   UNL     1      -5.320  -3.027 -34.426  1.00  0.00     0.068 A 
HETATM   14  C   UNL     1      -6.636  -2.615 -34.631  1.00  0.00     0.037 A 
HETATM   15  C   UNL     1      -7.033  -1.321 -34.273  1.00  0.00     0.012 A 
BRANCH  13  16
HETATM   16  O   UNL     1      -4.806  -4.260 -34.722  1.00  0.00    -0.356 OA
HETATM   17  C   UNL     1      -3.746  -4.724 -33.896  1.00  0.00     0.210 C 
ENDBRANCH  13  16
ENDBRANCH   7  10
ENDBRANCH   5   7
ENDBRANCH   1   5
BRANCH   2  18
HETATM   18  C   UNL     1      -2.670   3.538 -32.192  1.00  0.00     0.126 A 
HETATM   19  N   UNL     1      -1.978   4.122 -31.173  1.00  0.00    -0.224 NA
HETATM   20  C   UNL     1      -1.224   5.210 -31.496  1.00  0.00     0.151 A 
HETATM   21  C   UNL     1      -1.144   5.718 -32.794  1.00  0.00     0.052 A 
HETATM   22  C   UNL     1      -1.865   5.092 -33.809  1.00  0.00     0.006 A 
HETATM   23  C   UNL     1      -2.645   3.982 -33.508  1.00  0.00     0.037 A 
BRANCH  20  24
HETATM   24  N   UNL     1      -0.489   5.857 -30.457  1.00  0.00    -0.227 N 
HETATM   25  N   UNL     1       0.182   5.166 -29.495  1.00  0.00    -0.179 NA
HETATM   26  C   UNL     1       0.734   6.111 -28.731  1.00  0.00     0.141 A 
HETATM   27  C   UNL     1       0.437   7.409 -29.175  1.00  0.00     0.040 A 
HETATM   28  C   UNL     1      -0.351   7.220 -30.284  1.00  0.00     0.122 A 
ENDBRANCH  20  24
ENDBRANCH   2  18
TORSDOF 7
ENDMDL
MODEL 2
REMARK VINA RESULT:      -8.2      0.575      1.145
REMARK  7 active torsions:
REMARK  status: ('A' for Active; 'I' for Inactive)
REMARK    1  A    between atoms: C_2  and  N_3 
REMARK    2  A    between atoms: C_2  and  C_17 
REMARK       I    between atoms: N_3  and  C_4 
REMARK    3  A    between atoms: C_4  and  C_5 
REMARK    4  A    between atoms: C_7  and  N_8 
REMARK    5  A    between atoms: C_17  and  O_18 
REMARK    6  A    between atoms: C_17  and  C_19 
REMARK    7  A    between atoms: C_22  and  O_23 
ROOT
HETATM    1  N   UNL     1      -4.835   2.707 -32.047  1.00  0.00    -0.349 N 
HETATM    2  C   UNL     1      -3.501   2.502 -31.785  1.00  0.00     0.270 C 
HETATM    3  O   UNL     1      -3.059   1.465 -31.300  1.00  0.00    -0.266 OA
HETATM    4  H   UNL     1      -5.068   3.614 -32.443  1.00  0.00     0.163 HD
ENDROOT
BRANCH   1   5
HETATM    5  C   UNL     1      -5.897   1.704 -31.917  1.00  0.00     0.114 C 
HETATM    6  C   UNL     1      -6.948   2.165 -30.902  1.00  0.00     0.035 C 
BRANCH   5   7
HETATM    7  C   UNL     1      -6.562   1.249 -33.255  1.00  0.00     0.173 C 
BRANCH   7   8
HETATM    8  O   UNL     1      -6.385   2.168 -34.333  1.00  0.00    -0.389 OA
HETATM    9  H   UNL     1      -7.210   2.158 -34.862  1.00  0.00     0.210 HD
ENDBRANCH   7   8
BRANCH   7  10
HETATM   10  C   UNL     1      -6.170  -0.155 -33.677  1.00  0.00    -0.028 A 
HETATM   11  C   UNL     1      -7.129  -1.006 -34.244  1.00  0.00     0.012 A 
HETATM   12  C   UNL     1      -6.785  -2.301 -34.641  1.00  0.00     0.037 A 
HETATM   13  C   UNL     1      -5.482  -2.772 -34.482  1.00  0.00     0.068 A 
HETATM   14  C   UNL     1      -4.524  -1.939 -33.904  1.00  0.00     0.037 A 
HETATM   15  C   UNL     1      -4.867  -0.642 -33.505  1.00  0.00     0.012 A 
BRANCH  13  16
HETATM   16  O   UNL     1      -5.278  -4.051 -34.921  1.00  0.00    -0.356 OA
HETATM   17  C   UNL     1      -6.398  -4.718 -35.487  1.00  0.00     0.210 C 
ENDBRANCH  13  16
ENDBRANCH   7  10
ENDBRANCH   5   7
ENDBRANCH   1   5
BRANCH   2  18
HETATM   18  C   UNL     1      -2.606   3.650 -32.143  1.00  0.00     0.126 A 
HETATM   19  N   UNL     1      -1.942   4.241 -31.110  1.00  0.00    -0.224 NA
HETATM   20  C   UNL     1      -1.150   5.303 -31.426  1.00  0.00     0.151 A 
HETATM   21  C   UNL     1      -1.006   5.780 -32.731  1.00  0.00     0.052 A 
HETATM   22  C   UNL     1      -1.701   5.148 -33.760  1.00  0.00     0.006 A 
HETATM   23  C   UNL     1      -2.518   4.063 -33.466  1.00  0.00     0.037 A 
BRANCH  20  24
HETATM   24  N   UNL     1      -0.442   5.958 -30.372  1.00  0.00    -0.227 N 
HETATM   25  N   UNL     1       0.232   5.273 -29.408  1.00  0.00    -0.179 NA
HETATM   26  C   UNL     1       0.754   6.223 -28.630  1.00  0.00     0.141 A 
HETATM   27  C   UNL     1       0.434   7.518 -29.066  1.00  0.00     0.040 A 
HETATM   28  C   UNL     1      -0.337   7.322 -30.186  1.00  0.00     0.122 A 
ENDBRANCH  20  24
ENDBRANCH   2  18
TORSDOF 7
ENDMDL
MODEL 3
REMARK VINA RESULT:      -7.9      1.712      2.099
REMARK  7 active torsions:
REMARK  status: ('A' for Active; 'I' for Inactive)
REMARK    1  A    between atoms: C_2  and  N_3 
REMARK    2  A    between atoms: C_2  and  C_17 
REMARK       I    between atoms: N_3  and  C_4 
REMARK    3  A    between atoms: C_4  and  C_5 
REMARK    4  A    between atoms: C_7  and  N_8 
REMARK    5  A    between atoms: C_17  and  O_18 
REMARK    6  A    between atoms: C_17  and  C_19 
REMARK    7  A    between atoms: C_22  and  O_23 
ROOT
HETATM    1  N   UNL     1      -5.335   2.975 -32.917  1.00  0.00    -0.349 N 
HETATM    2  C   UNL     1      -5.115   4.332 -32.945  1.00  0.00     0.270 C 
HETATM    3  O   UNL     1      -6.007   5.164 -32.822  1.00  0.00    -0.266 OA
HETATM    4  H   UNL     1      -4.509   2.396 -33.037  1.00  0.00     0.163 HD
ENDROOT
BRANCH   1   5
HETATM    5  C   UNL     1      -6.613   2.322 -32.614  1.00  0.00     0.114 C 
HETATM    6  C   UNL     1      -7.466   2.199 -33.880  1.00  0.00     0.035 C 
BRANCH   5   7
HETATM    7  C   UNL     1      -6.511   0.955 -31.865  1.00  0.00     0.173 C 
BRANCH   7   8
HETATM    8  O   UNL     1      -7.643   0.654 -31.049  1.00  0.00    -0.389 OA
HETATM    9  H   UNL     1      -7.673   1.325 -30.335  1.00  0.00     0.210 HD
ENDBRANCH   7   8
BRANCH   7  10
HETATM   10  C   UNL     1      -6.182  -0.211 -32.779  1.00  0.00    -0.028 A 
HETATM   11  C   UNL     1      -7.219  -0.950 -33.367  1.00  0.00     0.012 A 
HETATM   12  C   UNL     1      -6.935  -2.025 -34.213  1.00  0.00     0.037 A 
HETATM   13  C   UNL     1      -5.615  -2.384 -34.489  1.00  0.00     0.068 A 
HETATM   14  C   UNL     1      -4.577  -1.667 -33.897  1.00  0.00     0.037 A 
HETATM   15  C   UNL     1      -4.860  -0.589 -33.048  1.00  0.00     0.012 A 
BRANCH  13  16
HETATM   16  O   UNL     1      -5.478  -3.447 -35.340  1.00  0.00    -0.356 OA
HETATM   17  C   UNL     1      -6.427  -4.497 -35.208  1.00  0.00     0.210 C 
ENDBRANCH  13  16
ENDBRANCH   7  10
ENDBRANCH   5   7
ENDBRANCH   1   5
BRANCH   2  18
HETATM   18  C   UNL     1      -3.683   4.732 -33.133  1.00  0.00     0.126 A 
HETATM   19  N   UNL     1      -2.938   4.851 -31.998  1.00  0.00    -0.224 NA
HETATM   20  C   UNL     1      -1.642   5.243 -32.160  1.00  0.00     0.151 A 
HETATM   21  C   UNL     1      -1.083   5.511 -33.410  1.00  0.00     0.052 A 
HETATM   22  C   UNL     1      -1.877   5.376 -34.548  1.00  0.00     0.006 A 
HETATM   23  C   UNL     1      -3.202   4.980 -34.412  1.00  0.00     0.037 A 
BRANCH  20  24
HETATM   24  N   UNL     1      -0.828   5.389 -30.995  1.00  0.00    -0.227 N 
HETATM   25  N   UNL     1       0.179   4.524 -30.693  1.00  0.00    -0.179 NA
HETATM   26  C   UNL     1       0.693   4.999 -29.557  1.00  0.00     0.141 A 
HETATM   27  C   UNL     1       0.041   6.157 -29.109  1.00  0.00     0.040 A 
HETATM   28  C   UNL     1      -0.933   6.388 -30.049  1.00  0.00     0.122 A 
ENDBRANCH  20  24
ENDBRANCH   2  18
TORSDOF 7
ENDMDL
MODEL 4
REMARK VINA RESULT:      -7.5      2.383      3.253
REMARK  7 active torsions:
REMARK  status: ('A' for Active; 'I' for Inactive)
REMARK    1  A    between atoms: C_2  and  N_3 
REMARK    2  A    between atoms: C_2  and  C_17 
REMARK       I    between atoms: N_3  and  C_4 
REMARK    3  A    between atoms: C_4  and  C_5 
REMARK    4  A    between atoms: C_7  and  N_8 
REMARK    5  A    between atoms: C_17  and  O_18 
REMARK    6  A    between atoms: C_17  and  C_19 
REMARK    7  A    between atoms: C_22  and  O_23 
ROOT
HETATM    1  N   UNL     1      -6.937   2.139 -31.863  1.00  0.00    -0.349 N 
HETATM    2  C   UNL     1      -6.019   2.302 -30.853  1.00  0.00     0.270 C 
HETATM    3  O   UNL     1      -5.730   1.417 -30.054  1.00  0.00    -0.266 OA
HETATM    4  H   UNL     1      -7.088   2.955 -32.452  1.00  0.00     0.163 HD
ENDROOT
BRANCH   1   5
HETATM    5  C   UNL     1      -7.603   0.883 -32.220  1.00  0.00     0.114 C 
HETATM    6  C   UNL     1      -9.090   0.941 -31.855  1.00  0.00     0.035 C 
BRANCH   5   7
HETATM    7  C   UNL     1      -7.400   0.406 -33.693  1.00  0.00     0.173 C 
BRANCH   7   8
HETATM    8  O   UNL     1      -7.082   1.458 -34.605  1.00  0.00    -0.389 OA
HETATM    9  H   UNL     1      -7.912   1.706 -35.065  1.00  0.00     0.210 HD
ENDBRANCH   7   8
BRANCH   7  10
HETATM   10  C   UNL     1      -6.410  -0.737 -33.827  1.00  0.00    -0.028 A 
HETATM   11  C   UNL     1      -6.781  -1.904 -34.511  1.00  0.00     0.012 A 
HETATM   12  C   UNL     1      -5.883  -2.965 -34.646  1.00  0.00     0.037 A 
HETATM   13  C   UNL     1      -4.599  -2.884 -34.105  1.00  0.00     0.068 A 
HETATM   14  C   UNL     1      -4.226  -1.735 -33.410  1.00  0.00     0.037 A 
HETATM   15  C   UNL     1      -5.126  -0.671 -33.273  1.00  0.00     0.012 A 
BRANCH  13  16
HETATM   16  O   UNL     1      -3.818  -3.987 -34.318  1.00  0.00    -0.356 OA
HETATM   17  C   UNL     1      -4.448  -5.253 -34.174  1.00  0.00     0.210 C 
ENDBRANCH  13  16
ENDBRANCH   7  10
ENDBRANCH   5   7
ENDBRANCH   1   5
BRANCH   2  18
HETATM   18  C   UNL     1      -5.378   3.656 -30.798  1.00  0.00     0.126 A 
HETATM   19  N   UNL     1      -4.526   3.960 -31.817  1.00  0.00    -0.224 NA
HETATM   20  C   UNL     1      -3.918   5.178 -31.758  1.00  0.00     0.151 A 
HETATM   21  C   UNL     1      -4.140   6.086 -30.721  1.00  0.00     0.052 A 
HETATM   22  C   UNL     1      -5.020   5.739 -29.698  1.00  0.00     0.006 A 
HETATM   23  C   UNL     1      -5.653   4.502 -29.731  1.00  0.00     0.037 A 
BRANCH  20  24
HETATM   24  N   UNL     1      -3.010   5.533 -32.801  1.00  0.00    -0.227 N 
HETATM   25  N   UNL     1      -2.702   6.827 -33.095  1.00  0.00    -0.179 NA
HETATM   26  C   UNL     1      -1.833   6.740 -34.103  1.00  0.00     0.141 A 
HETATM   27  C   UNL     1      -1.566   5.414 -34.477  1.00  0.00     0.040 A 
HETATM   28  C   UNL     1      -2.334   4.657 -33.627  1.00  0.00     0.122 A 
ENDBRANCH  20  24
ENDBRANCH   2  18
TORSDOF 7
ENDMDL
MODEL 5
REMARK VINA RESULT:      -7.5      3.496      7.654
REMARK  7 active torsions:
REMARK  status: ('A' for Active; 'I' for Inactive)
REMARK    1  A    between atoms: C_2  and  N_3 
REMARK    2  A    between atoms: C_2  and  C_17 
REMARK       I    between atoms: N_3  and  C_4 
REMARK    3  A    between atoms: C_4  and  C_5 
REMARK    4  A    between atoms: C_7  and  N_8 
REMARK    5  A    between atoms: C_17  and  O_18 
REMARK    6  A    between atoms: C_17  and  C_19 
REMARK    7  A    between atoms: C_22  and  O_23 
ROOT
HETATM    1  N   UNL     1      -6.932   2.486 -31.901  1.00  0.00    -0.349 N 
HETATM    2  C   UNL     1      -6.525   2.426 -33.213  1.00  0.00     0.270 C 
HETATM    3  O   UNL     1      -6.218   3.415 -33.871  1.00  0.00    -0.266 OA
HETATM    4  H   UNL     1      -7.163   1.592 -31.475  1.00  0.00     0.163 HD
ENDROOT
BRANCH   1   5
HETATM    5  C   UNL     1      -6.938   3.687 -31.061  1.00  0.00     0.114 C 
HETATM    6  C   UNL     1      -8.137   3.667 -30.107  1.00  0.00     0.035 C 
BRANCH   5   7
HETATM    7  C   UNL     1      -5.610   3.982 -30.295  1.00  0.00     0.173 C 
BRANCH   7   8
HETATM    8  O   UNL     1      -5.108   2.870 -29.553  1.00  0.00    -0.389 OA
HETATM    9  H   UNL     1      -4.883   3.196 -28.656  1.00  0.00     0.210 HD
ENDBRANCH   7   8
BRANCH   7  10
HETATM   10  C   UNL     1      -4.524   4.573 -31.176  1.00  0.00    -0.028 A 
HETATM   11  C   UNL     1      -3.426   3.787 -31.553  1.00  0.00     0.012 A 
HETATM   12  C   UNL     1      -2.418   4.314 -32.364  1.00  0.00     0.037 A 
HETATM   13  C   UNL     1      -2.485   5.632 -32.816  1.00  0.00     0.068 A 
HETATM   14  C   UNL     1      -3.564   6.428 -32.434  1.00  0.00     0.037 A 
HETATM   15  C   UNL     1      -4.575   5.901 -31.620  1.00  0.00     0.012 A 
BRANCH  13  16
HETATM   16  O   UNL     1      -1.441   6.018 -33.612  1.00  0.00    -0.356 OA
HETATM   17  C   UNL     1      -1.286   5.323 -34.842  1.00  0.00     0.210 C 
ENDBRANCH  13  16
ENDBRANCH   7  10
ENDBRANCH   5   7
ENDBRANCH   1   5
BRANCH   2  18
HETATM   18  C   UNL     1      -6.476   1.045 -33.794  1.00  0.00     0.126 A 
HETATM   19  N   UNL     1      -5.576   0.189 -33.233  1.00  0.00    -0.224 NA
HETATM   20  C   UNL     1      -5.506  -1.059 -33.776  1.00  0.00     0.151 A 
HETATM   21  C   UNL     1      -6.304  -1.465 -34.848  1.00  0.00     0.052 A 
HETATM   22  C   UNL     1      -7.212  -0.561 -35.393  1.00  0.00     0.006 A 
HETATM   23  C   UNL     1      -7.304   0.720 -34.861  1.00  0.00     0.037 A 
BRANCH  20  24
HETATM   24  N   UNL     1      -4.571  -1.986 -33.224  1.00  0.00    -0.227 N 
HETATM   25  N   UNL     1      -4.399  -3.240 -33.727  1.00  0.00    -0.179 NA
HETATM   26  C   UNL     1      -3.451  -3.779 -32.957  1.00  0.00     0.141 A 
HETATM   27  C   UNL     1      -3.000  -2.902 -31.959  1.00  0.00     0.040 A 
HETATM   28  C   UNL     1      -3.735  -1.757 -32.149  1.00  0.00     0.122 A 
ENDBRANCH  20  24
ENDBRANCH   2  18
TORSDOF 7
ENDMDL
MODEL 6
REMARK VINA RESULT:      -7.4      4.699      8.577
REMARK  7 active torsions:
REMARK  status: ('A' for Active; 'I' for Inactive)
REMARK    1  A    between atoms: C_2  and  N_3 
REMARK    2  A    between atoms: C_2  and  C_17 
REMARK       I    between atoms: N_3  and  C_4 
REMARK    3  A    between atoms: C_4  and  C_5 
REMARK    4  A    between atoms: C_7  and  N_8 
REMARK    5  A    between atoms: C_17  and  O_18 
REMARK    6  A    between atoms: C_17  and  C_19 
REMARK    7  A    between atoms: C_22  and  O_23 
ROOT
HETATM    1  N   UNL     1      -7.671   2.632 -32.074  1.00  0.00    -0.349 N 
HETATM    2  C   UNL     1      -8.573   2.636 -33.111  1.00  0.00     0.270 C 
HETATM    3  O   UNL     1      -8.308   2.232 -34.239  1.00  0.00    -0.266 OA
HETATM    4  H   UNL     1      -8.018   3.001 -31.192  1.00  0.00     0.163 HD
ENDROOT
BRANCH   1   5
HETATM    5  C   UNL     1      -6.329   2.043 -32.110  1.00  0.00     0.114 C 
HETATM    6  C   UNL     1      -5.308   2.997 -31.481  1.00  0.00     0.035 C 
BRANCH   5   7
HETATM    7  C   UNL     1      -6.206   0.607 -31.510  1.00  0.00     0.173 C 
BRANCH   7   8
HETATM    8  O   UNL     1      -7.241   0.274 -30.584  1.00  0.00    -0.389 OA
HETATM    9  H   UNL     1      -7.873  -0.310 -31.052  1.00  0.00     0.210 HD
ENDBRANCH   7   8
BRANCH   7  10
HETATM   10  C   UNL     1      -6.060  -0.477 -32.563  1.00  0.00    -0.028 A 
HETATM   11  C   UNL     1      -4.819  -1.100 -32.755  1.00  0.00     0.012 A 
HETATM   12  C   UNL     1      -4.667  -2.102 -33.718  1.00  0.00     0.037 A 
HETATM   13  C   UNL     1      -5.747  -2.501 -34.506  1.00  0.00     0.068 A 
HETATM   14  C   UNL     1      -6.981  -1.876 -34.334  1.00  0.00     0.037 A 
HETATM   15  C   UNL     1      -7.135  -0.872 -33.370  1.00  0.00     0.012 A 
BRANCH  13  16
HETATM   16  O   UNL     1      -5.465  -3.496 -35.400  1.00  0.00    -0.356 OA
HETATM   17  C   UNL     1      -6.373  -4.589 -35.446  1.00  0.00     0.210 C 
ENDBRANCH  13  16
ENDBRANCH   7  10
ENDBRANCH   5   7
ENDBRANCH   1   5
BRANCH   2  18
HETATM   18  C   UNL     1      -9.930   3.170 -32.762  1.00  0.00     0.126 A 
HETATM   19  N   UNL     1     -10.993   2.410 -33.148  1.00  0.00    -0.224 NA
HETATM   20  C   UNL     1     -12.230   2.904 -32.860  1.00  0.00     0.151 A 
HETATM   21  C   UNL     1     -12.425   4.121 -32.202  1.00  0.00     0.052 A 
HETATM   22  C   UNL     1     -11.312   4.868 -31.823  1.00  0.00     0.006 A 
HETATM   23  C   UNL     1     -10.039   4.389 -32.106  1.00  0.00     0.037 A 
BRANCH  20  24
HETATM   24  N   UNL     1     -13.372   2.144 -33.254  1.00  0.00    -0.227 N 
HETATM   25  N   UNL     1     -14.590   2.294 -32.665  1.00  0.00    -0.179 NA
HETATM   26  C   UNL     1     -15.378   1.429 -33.307  1.00  0.00     0.141 A 
HETATM   27  C   UNL     1     -14.698   0.714 -34.305  1.00  0.00     0.040 A 
HETATM   28  C   UNL     1     -13.411   1.190 -34.252  1.00  0.00     0.122 A 
ENDBRANCH  20  24
ENDBRANCH   2  18
TORSDOF 7
ENDMDL
MODEL 7
REMARK VINA RESULT:      -7.4      3.050      8.944
REMARK  7 active torsions:
REMARK  status: ('A' for Active; 'I' for Inactive)
REMARK    1  A    between atoms: C_2  and  N_3 
REMARK    2  A    between atoms: C_2  and  C_17 
REMARK       I    between atoms: N_3  and  C_4 
REMARK    3  A    between atoms: C_4  and  C_5 
REMARK    4  A    between atoms: C_7  and  N_8 
REMARK    5  A    between atoms: C_17  and  O_18 
REMARK    6  A    between atoms: C_17  and  C_19 
REMARK    7  A    between atoms: C_22  and  O_23 
ROOT
HETATM    1  N   UNL     1      -2.172   4.791 -32.727  1.00  0.00    -0.349 N 
HETATM    2  C   UNL     1      -3.522   5.016 -32.861  1.00  0.00     0.270 C 
HETATM    3  O   UNL     1      -3.994   5.873 -33.600  1.00  0.00    -0.266 OA
HETATM    4  H   UNL     1      -1.915   4.054 -32.076  1.00  0.00     0.163 HD
ENDROOT
BRANCH   1   5
HETATM    5  C   UNL     1      -1.116   5.429 -33.518  1.00  0.00     0.114 C 
HETATM    6  C   UNL     1      -1.362   5.213 -35.015  1.00  0.00     0.035 C 
BRANCH   5   7
HETATM    7  C   UNL     1      -0.850   6.934 -33.200  1.00  0.00     0.173 C 
BRANCH   7   8
HETATM    8  O   UNL     1      -1.762   7.832 -33.832  1.00  0.00    -0.389 OA
HETATM    9  H   UNL     1      -2.654   7.427 -33.777  1.00  0.00     0.210 HD
ENDBRANCH   7   8
BRANCH   7  10
HETATM   10  C   UNL     1      -0.750   7.228 -31.714  1.00  0.00    -0.028 A 
HETATM   11  C   UNL     1       0.356   6.769 -30.985  1.00  0.00     0.012 A 
HETATM   12  C   UNL     1       0.466   7.033 -29.617  1.00  0.00     0.037 A 
HETATM   13  C   UNL     1      -0.522   7.759 -28.950  1.00  0.00     0.068 A 
HETATM   14  C   UNL     1      -1.634   8.206 -29.663  1.00  0.00     0.037 A 
HETATM   15  C   UNL     1      -1.746   7.942 -31.034  1.00  0.00     0.012 A 
BRANCH  13  16
HETATM   16  O   UNL     1      -0.287   7.955 -27.617  1.00  0.00    -0.356 OA
HETATM   17  C   UNL     1       0.051   6.805 -26.853  1.00  0.00     0.210 C 
ENDBRANCH  13  16
ENDBRANCH   7  10
ENDBRANCH   5   7
ENDBRANCH   1   5
BRANCH   2  18
HETATM   18  C   UNL     1      -4.394   4.121 -32.032  1.00  0.00     0.126 A 
HETATM   19  N   UNL     1      -4.819   2.973 -32.631  1.00  0.00    -0.224 NA
HETATM   20  C   UNL     1      -5.635   2.170 -31.893  1.00  0.00     0.151 A 
HETATM   21  C   UNL     1      -6.028   2.481 -30.590  1.00  0.00     0.052 A 
HETATM   22  C   UNL     1      -5.571   3.664 -30.012  1.00  0.00     0.006 A 
HETATM   23  C   UNL     1      -4.739   4.503 -30.742  1.00  0.00     0.037 A 
BRANCH  20  24
HETATM   24  N   UNL     1      -6.112   0.961 -32.485  1.00  0.00    -0.227 N 
HETATM   25  N   UNL     1      -7.438   0.667 -32.583  1.00  0.00    -0.179 NA
HETATM   26  C   UNL     1      -7.470  -0.521 -33.191  1.00  0.00     0.141 A 
HETATM   27  C   UNL     1      -6.190  -1.011 -33.492  1.00  0.00     0.040 A 
HETATM   28  C   UNL     1      -5.334  -0.042 -33.028  1.00  0.00     0.122 A 
ENDBRANCH  20  24
ENDBRANCH   2  18
TORSDOF 7
ENDMDL
MODEL 8
REMARK VINA RESULT:      -7.4      5.048      8.692
REMARK  7 active torsions:
REMARK  status: ('A' for Active; 'I' for Inactive)
REMARK    1  A    between atoms: C_2  and  N_3 
REMARK    2  A    between atoms: C_2  and  C_17 
REMARK       I    between atoms: N_3  and  C_4 
REMARK    3  A    between atoms: C_4  and  C_5 
REMARK    4  A    between atoms: C_7  and  N_8 
REMARK    5  A    between atoms: C_17  and  O_18 
REMARK    6  A    between atoms: C_17  and  C_19 
REMARK    7  A    between atoms: C_22  and  O_23 
ROOT
HETATM    1  N   UNL     1      -7.939   1.833 -33.043  1.00  0.00    -0.349 N 
HETATM    2  C   UNL     1      -7.193   1.274 -32.032  1.00  0.00     0.270 C 
HETATM    3  O   UNL     1      -7.453   1.415 -30.842  1.00  0.00    -0.266 OA
HETATM    4  H   UNL     1      -7.610   1.643 -33.986  1.00  0.00     0.163 HD
ENDROOT
BRANCH   1   5
HETATM    5  C   UNL     1      -9.202   2.558 -32.873  1.00  0.00     0.114 C 
HETATM    6  C   UNL     1      -8.935   4.024 -32.517  1.00  0.00     0.035 C 
BRANCH   5   7
HETATM    7  C   UNL     1     -10.214   2.437 -34.056  1.00  0.00     0.173 C 
BRANCH   7   8
HETATM    8  O   UNL     1      -9.869   1.436 -35.014  1.00  0.00    -0.389 OA
HETATM    9  H   UNL     1      -9.565   1.900 -35.823  1.00  0.00     0.210 HD
ENDBRANCH   7   8
BRANCH   7  10
HETATM   10  C   UNL     1     -11.654   2.275 -33.605  1.00  0.00    -0.028 A 
HETATM   11  C   UNL     1     -12.328   1.068 -33.842  1.00  0.00     0.012 A 
HETATM   12  C   UNL     1     -13.653   0.900 -33.432  1.00  0.00     0.037 A 
HETATM   13  C   UNL     1     -14.331   1.929 -32.777  1.00  0.00     0.068 A 
HETATM   14  C   UNL     1     -13.675   3.139 -32.551  1.00  0.00     0.037 A 
HETATM   15  C   UNL     1     -12.348   3.309 -32.963  1.00  0.00     0.012 A 
BRANCH  13  16
HETATM   16  O   UNL     1     -15.617   1.630 -32.420  1.00  0.00    -0.356 OA
HETATM   17  C   UNL     1     -16.471   2.730 -32.133  1.00  0.00     0.210 C 
ENDBRANCH  13  16
ENDBRANCH   7  10
ENDBRANCH   5   7
ENDBRANCH   1   5
BRANCH   2  18
HETATM   18  C   UNL     1      -6.022   0.459 -32.493  1.00  0.00     0.126 A 
HETATM   19  N   UNL     1      -6.316  -0.730 -33.092  1.00  0.00    -0.224 NA
HETATM   20  C   UNL     1      -5.255  -1.489 -33.487  1.00  0.00     0.151 A 
HETATM   21  C   UNL     1      -3.929  -1.093 -33.302  1.00  0.00     0.052 A 
HETATM   22  C   UNL     1      -3.670   0.130 -32.687  1.00  0.00     0.006 A 
HETATM   23  C   UNL     1      -4.733   0.924 -32.272  1.00  0.00     0.037 A 
BRANCH  20  24
HETATM   24  N   UNL     1      -5.517  -2.747 -34.111  1.00  0.00    -0.227 N 
HETATM   25  N   UNL     1      -4.580  -3.731 -34.196  1.00  0.00    -0.179 NA
HETATM   26  C   UNL     1      -5.203  -4.728 -34.828  1.00  0.00     0.141 A 
HETATM   27  C   UNL     1      -6.530  -4.414 -35.161  1.00  0.00     0.040 A 
HETATM   28  C   UNL     1      -6.708  -3.135 -34.691  1.00  0.00     0.122 A 
ENDBRANCH  20  24
ENDBRANCH   2  18
TORSDOF 7
ENDMDL
MODEL 9
REMARK VINA RESULT:      -7.3      2.947      8.734
REMARK  7 active torsions:
REMARK  status: ('A' for Active; 'I' for Inactive)
REMARK    1  A    between atoms: C_2  and  N_3 
REMARK    2  A    between atoms: C_2  and  C_17 
REMARK       I    between atoms: N_3  and  C_4 
REMARK    3  A    between atoms: C_4  and  C_5 
REMARK    4  A    between atoms: C_7  and  N_8 
REMARK    5  A    between atoms: C_17  and  O_18 
REMARK    6  A    between atoms: C_17  and  C_19 
REMARK    7  A    between atoms: C_22  and  O_23 
ROOT
HETATM    1  N   UNL     1      -5.680   3.761 -33.875  1.00  0.00    -0.349 N 
HETATM    2  C   UNL     1      -5.386   2.674 -33.086  1.00  0.00     0.270 C 
HETATM    3  O   UNL     1      -4.435   2.639 -32.312  1.00  0.00    -0.266 OA
HETATM    4  H   UNL     1      -6.493   3.656 -34.477  1.00  0.00     0.163 HD
ENDROOT
BRANCH   1   5
HETATM    5  C   UNL     1      -5.006   5.062 -33.827  1.00  0.00     0.114 C 
HETATM    6  C   UNL     1      -5.034   5.627 -32.404  1.00  0.00     0.035 C 
BRANCH   5   7
HETATM    7  C   UNL     1      -3.563   5.095 -34.422  1.00  0.00     0.173 C 
BRANCH   7   8
HETATM    8  O   UNL     1      -3.473   5.744 -35.691  1.00  0.00    -0.389 OA
HETATM    9  H   UNL     1      -3.224   6.678 -35.523  1.00  0.00     0.210 HD
ENDBRANCH   7   8
BRANCH   7  10
HETATM   10  C   UNL     1      -2.526   5.649 -33.461  1.00  0.00    -0.028 A 
HETATM   11  C   UNL     1      -1.845   4.783 -32.595  1.00  0.00     0.012 A 
HETATM   12  C   UNL     1      -0.886   5.275 -31.706  1.00  0.00     0.037 A 
HETATM   13  C   UNL     1      -0.586   6.637 -31.664  1.00  0.00     0.068 A 
HETATM   14  C   UNL     1      -1.269   7.509 -32.510  1.00  0.00     0.037 A 
HETATM   15  C   UNL     1      -2.232   7.018 -33.401  1.00  0.00     0.012 A 
BRANCH  13  16
HETATM   16  O   UNL     1       0.378   6.983 -30.757  1.00  0.00    -0.356 OA
HETATM   17  C   UNL     1       0.410   6.240 -29.546  1.00  0.00     0.210 C 
ENDBRANCH  13  16
ENDBRANCH   7  10
ENDBRANCH   5   7
ENDBRANCH   1   5
BRANCH   2  18
HETATM   18  C   UNL     1      -6.328   1.517 -33.233  1.00  0.00     0.126 A 
HETATM   19  N   UNL     1      -5.769   0.330 -33.601  1.00  0.00    -0.224 NA
HETATM   20  C   UNL     1      -6.623  -0.719 -33.765  1.00  0.00     0.151 A 
HETATM   21  C   UNL     1      -8.002  -0.611 -33.570  1.00  0.00     0.052 A 
HETATM   22  C   UNL     1      -8.535   0.620 -33.192  1.00  0.00     0.006 A 
HETATM   23  C   UNL     1      -7.687   1.708 -33.020  1.00  0.00     0.037 A 
BRANCH  20  24
HETATM   24  N   UNL     1      -6.081  -1.980 -34.159  1.00  0.00    -0.227 N 
HETATM   25  N   UNL     1      -4.750  -2.259 -34.083  1.00  0.00    -0.179 NA
HETATM   26  C   UNL     1      -4.650  -3.514 -34.527  1.00  0.00     0.141 A 
HETATM   27  C   UNL     1      -5.889  -4.061 -34.893  1.00  0.00     0.040 A 
HETATM   28  C   UNL     1      -6.793  -3.056 -34.649  1.00  0.00     0.122 A 
ENDBRANCH  20  24
ENDBRANCH   2  18
TORSDOF 7
ENDMDL
MODEL 10
REMARK VINA RESULT:      -7.3      2.670      8.989
REMARK  7 active torsions:
REMARK  status: ('A' for Active; 'I' for Inactive)
REMARK    1  A    between atoms: C_2  and  N_3 
REMARK    2  A    between atoms: C_2  and  C_17 
REMARK       I    between atoms: N_3  and  C_4 
REMARK    3  A    between atoms: C_4  and  C_5 
REMARK    4  A    between atoms: C_7  and  N_8 
REMARK    5  A    between atoms: C_17  and  O_18 
REMARK    6  A    between atoms: C_17  and  C_19 
REMARK    7  A    between atoms: C_22  and  O_23 
ROOT
HETATM    1  N   UNL     1      -3.508   3.752 -33.070  1.00  0.00    -0.349 N 
HETATM    2  C   UNL     1      -3.334   2.926 -31.984  1.00  0.00     0.270 C 
HETATM    3  O   UNL     1      -2.369   2.997 -31.230  1.00  0.00    -0.266 OA
HETATM    4  H   UNL     1      -4.348   3.583 -33.617  1.00  0.00     0.163 HD
ENDROOT
BRANCH   1   5
HETATM    5  C   UNL     1      -2.664   4.900 -33.416  1.00  0.00     0.114 C 
HETATM    6  C   UNL     1      -2.678   5.139 -34.929  1.00  0.00     0.035 C 
BRANCH   5   7
HETATM    7  C   UNL     1      -2.961   6.217 -32.631  1.00  0.00     0.173 C 
BRANCH   7   8
HETATM    8  O   UNL     1      -4.239   6.237 -31.994  1.00  0.00    -0.389 OA
HETATM    9  H   UNL     1      -4.444   7.173 -31.784  1.00  0.00     0.210 HD
ENDBRANCH   7   8
BRANCH   7  10
HETATM   10  C   UNL     1      -1.866   6.596 -31.650  1.00  0.00    -0.028 A 
HETATM   11  C   UNL     1      -2.135   7.516 -30.627  1.00  0.00     0.012 A 
HETATM   12  C   UNL     1      -1.140   7.874 -29.713  1.00  0.00     0.037 A 
HETATM   13  C   UNL     1       0.139   7.323 -29.801  1.00  0.00     0.068 A 
HETATM   14  C   UNL     1       0.421   6.419 -30.824  1.00  0.00     0.037 A 
HETATM   15  C   UNL     1      -0.575   6.060 -31.741  1.00  0.00     0.012 A 
BRANCH  13  16
HETATM   16  O   UNL     1       1.013   7.750 -28.839  1.00  0.00    -0.356 OA
HETATM   17  C   UNL     1       0.455   8.453 -27.737  1.00  0.00     0.210 C 
ENDBRANCH  13  16
ENDBRANCH   7  10
ENDBRANCH   5   7
ENDBRANCH   1   5
BRANCH   2  18
HETATM   18  C   UNL     1      -4.426   1.921 -31.778  1.00  0.00     0.126 A 
HETATM   19  N   UNL     1      -4.425   0.850 -32.622  1.00  0.00    -0.224 NA
HETATM   20  C   UNL     1      -5.432  -0.053 -32.458  1.00  0.00     0.151 A 
HETATM   21  C   UNL     1      -6.424   0.086 -31.485  1.00  0.00     0.052 A 
HETATM   22  C   UNL     1      -6.390   1.195 -30.641  1.00  0.00     0.006 A 
HETATM   23  C   UNL     1      -5.375   2.133 -30.787  1.00  0.00     0.037 A 
BRANCH  20  24
HETATM   24  N   UNL     1      -5.474  -1.186 -33.327  1.00  0.00    -0.227 N 
HETATM   25  N   UNL     1      -4.387  -1.973 -33.555  1.00  0.00    -0.179 NA
HETATM   26  C   UNL     1      -4.827  -2.909 -34.399  1.00  0.00     0.141 A 
HETATM   27  C   UNL     1      -6.181  -2.749 -34.728  1.00  0.00     0.040 A 
HETATM   28  C   UNL     1      -6.575  -1.635 -34.028  1.00  0.00     0.122 A 
ENDBRANCH  20  24
ENDBRANCH   2  18
TORSDOF 7
ENDMDL
