MODEL 1
REMARK VINA RESULT:      -9.3      0.000      0.000
REMARK  3 active torsions:
REMARK  status: ('A' for Active; 'I' for Inactive)
REMARK    1  A    between atoms: C_2  and  N_3 
REMARK       I    between atoms: N_6  and  C_7 
REMARK    2  A    between atoms: C_7  and  C_8 
REMARK    3  A    between atoms: C_24  and  O_25 
ROOT
HETATM    1  N   UNL     1      -6.329  -0.586 -33.798  1.00  0.00    -0.280 NA
HETATM    2  C   UNL     1      -6.784  -0.380 -32.396  1.00  0.00     0.115 C 
HETATM    3  C   UNL     1      -7.031   1.112 -32.104  1.00  0.00     0.141 C 
HETATM    4  N   UNL     1      -7.901   1.738 -33.105  1.00  0.00    -0.346 N 
HETATM    5  C   UNL     1      -8.638   2.852 -32.709  1.00  0.00     0.256 C 
HETATM    6  O   UNL     1      -8.524   3.372 -31.601  1.00  0.00    -0.267 OA
HETATM    7  C   UNL     1      -7.442   1.525 -34.487  1.00  0.00     0.141 C 
HETATM    8  C   UNL     1      -7.234   0.031 -34.792  1.00  0.00     0.115 C 
ENDROOT
BRANCH   5   9
HETATM    9  C   UNL     1      -9.650   3.408 -33.631  1.00  0.00     0.064 A 
HETATM   10  C   UNL     1     -10.834   2.739 -33.870  1.00  0.00     0.077 A 
HETATM   11  C   UNL     1     -11.789   3.237 -34.762  1.00  0.00     0.065 A 
HETATM   12  N   UNL     1     -11.322   1.534 -33.360  1.00  0.00    -0.330 N 
HETATM   13  N   UNL     1     -12.860   2.346 -34.791  1.00  0.00    -0.331 N 
HETATM   14  C   UNL     1     -11.606   4.404 -35.463  1.00  0.00     0.074 A 
HETATM   15  C   UNL     1     -12.569   1.276 -33.935  1.00  0.00     0.176 A 
HETATM   16  H   UNL     1     -13.693   2.418 -35.357  1.00  0.00     0.168 HD
HETATM   17  S   UNL     1     -13.520  -0.043 -33.671  1.00  0.00    -0.041 SA
HETATM   18  C   UNL     1     -10.398   5.067 -35.252  1.00  0.00     0.119 A 
HETATM   19  F   UNL     1     -10.153   6.201 -35.921  1.00  0.00    -0.206 F 
HETATM   20  C   UNL     1      -9.421   4.582 -34.363  1.00  0.00     0.061 A 
HETATM   21  H   UNL     1     -10.808   0.916 -32.742  1.00  0.00     0.168 HD
ENDBRANCH   5   9
BRANCH   1  22
HETATM   22  C   UNL     1      -5.898  -1.904 -34.045  1.00  0.00     0.010 A 
HETATM   23  C   UNL     1      -4.595  -2.357 -33.785  1.00  0.00     0.026 A 
HETATM   24  C   UNL     1      -4.215  -3.677 -34.052  1.00  0.00     0.038 A 
HETATM   25  C   UNL     1      -5.138  -4.570 -34.573  1.00  0.00     0.065 A 
HETATM   26  C   UNL     1      -6.441  -4.165 -34.826  1.00  0.00     0.038 A 
HETATM   27  C   UNL     1      -6.811  -2.842 -34.558  1.00  0.00     0.026 A 
BRANCH  25  28
HETATM   28  O   UNL     1      -4.725  -5.844 -34.822  1.00  0.00    -0.361 OA
HETATM   29  H   UNL     1      -5.383  -6.277 -35.390  1.00  0.00     0.217 HD
ENDBRANCH  25  28
ENDBRANCH   1  22
TORSDOF 3
ENDMDL
MODEL 2
REMARK VINA RESULT:      -9.3      5.521      7.036
REMARK  3 active torsions:
REMARK  status: ('A' for Active; 'I' for Inactive)
REMARK    1  A    between atoms: C_2  and  N_3 
REMARK       I    between atoms: N_6  and  C_7 
REMARK    2  A    between atoms: C_7  and  C_8 
REMARK    3  A    between atoms: C_24  and  O_25 
ROOT
HETATM    1  N   UNL     1      -4.609  -0.460 -32.766  1.00  0.00    -0.280 NA
HETATM    2  C   UNL     1      -5.778   0.345 -33.212  1.00  0.00     0.115 C 
HETATM    3  C   UNL     1      -5.843   1.692 -32.468  1.00  0.00     0.141 C 
HETATM    4  N   UNL     1      -4.570   2.419 -32.522  1.00  0.00    -0.346 N 
HETATM    5  C   UNL     1      -4.617   3.806 -32.403  1.00  0.00     0.256 C 
HETATM    6  O   UNL     1      -5.654   4.425 -32.174  1.00  0.00    -0.267 OA
HETATM    7  C   UNL     1      -3.422   1.611 -32.081  1.00  0.00     0.141 C 
HETATM    8  C   UNL     1      -3.333   0.282 -32.853  1.00  0.00     0.115 C 
ENDROOT
BRANCH   5   9
HETATM    9  C   UNL     1      -3.382   4.587 -32.621  1.00  0.00     0.064 A 
HETATM   10  C   UNL     1      -2.917   5.463 -31.661  1.00  0.00     0.077 A 
HETATM   11  C   UNL     1      -1.767   6.230 -31.863  1.00  0.00     0.065 A 
HETATM   12  N   UNL     1      -3.419   5.782 -30.396  1.00  0.00    -0.330 N 
HETATM   13  N   UNL     1      -1.559   7.009 -30.727  1.00  0.00    -0.331 N 
HETATM   14  C   UNL     1      -1.039   6.175 -33.027  1.00  0.00     0.074 A 
HETATM   15  C   UNL     1      -2.593   6.749 -29.818  1.00  0.00     0.176 A 
HETATM   16  H   UNL     1      -0.823   7.683 -30.580  1.00  0.00     0.168 HD
HETATM   17  S   UNL     1      -2.796   7.464 -28.348  1.00  0.00    -0.041 SA
HETATM   18  C   UNL     1      -1.522   5.319 -34.016  1.00  0.00     0.119 A 
HETATM   19  F   UNL     1      -0.866   5.236 -35.181  1.00  0.00    -0.206 F 
HETATM   20  C   UNL     1      -2.680   4.541 -33.835  1.00  0.00     0.061 A 
HETATM   21  H   UNL     1      -4.288   5.429 -30.012  1.00  0.00     0.168 HD
ENDBRANCH   5   9
BRANCH   1  22
HETATM   22  C   UNL     1      -4.628  -1.776 -33.269  1.00  0.00     0.010 A 
HETATM   23  C   UNL     1      -5.524  -2.218 -34.255  1.00  0.00     0.026 A 
HETATM   24  C   UNL     1      -5.505  -3.538 -34.719  1.00  0.00     0.038 A 
HETATM   25  C   UNL     1      -4.579  -4.436 -34.211  1.00  0.00     0.065 A 
HETATM   26  C   UNL     1      -3.664  -4.032 -33.250  1.00  0.00     0.038 A 
HETATM   27  C   UNL     1      -3.692  -2.710 -32.790  1.00  0.00     0.026 A 
BRANCH  25  28
HETATM   28  O   UNL     1      -4.598  -5.711 -34.689  1.00  0.00    -0.361 OA
HETATM   29  H   UNL     1      -5.414  -6.142 -34.387  1.00  0.00     0.217 HD
ENDBRANCH  25  28
ENDBRANCH   1  22
TORSDOF 3
ENDMDL
MODEL 3
REMARK VINA RESULT:      -9.0      2.382      2.876
REMARK  3 active torsions:
REMARK  status: ('A' for Active; 'I' for Inactive)
REMARK    1  A    between atoms: C_2  and  N_3 
REMARK       I    between atoms: N_6  and  C_7 
REMARK    2  A    between atoms: C_7  and  C_8 
REMARK    3  A    between atoms: C_24  and  O_25 
ROOT
HETATM    1  N   UNL     1      -6.453  -0.701 -33.847  1.00  0.00    -0.280 NA
HETATM    2  C   UNL     1      -6.635  -0.188 -32.462  1.00  0.00     0.115 C 
HETATM    3  C   UNL     1      -7.338   1.183 -32.463  1.00  0.00     0.141 C 
HETATM    4  N   UNL     1      -8.571   1.174 -33.256  1.00  0.00    -0.346 N 
HETATM    5  C   UNL     1      -9.558   2.099 -32.919  1.00  0.00     0.256 C 
HETATM    6  O   UNL     1      -9.402   2.961 -32.058  1.00  0.00    -0.267 OA
HETATM    7  C   UNL     1      -8.379   0.662 -34.622  1.00  0.00     0.141 C 
HETATM    8  C   UNL     1      -7.714  -0.726 -34.620  1.00  0.00     0.115 C 
ENDROOT
BRANCH   5   9
HETATM    9  C   UNL     1     -10.877   2.012 -33.578  1.00  0.00     0.064 A 
HETATM   10  C   UNL     1     -11.447   3.119 -34.174  1.00  0.00     0.077 A 
HETATM   11  C   UNL     1     -12.707   3.061 -34.776  1.00  0.00     0.065 A 
HETATM   12  N   UNL     1     -10.979   4.430 -34.303  1.00  0.00    -0.330 N 
HETATM   13  N   UNL     1     -13.006   4.325 -35.279  1.00  0.00    -0.331 N 
HETATM   14  C   UNL     1     -13.460   1.912 -34.800  1.00  0.00     0.074 A 
HETATM   15  C   UNL     1     -11.944   5.186 -34.972  1.00  0.00     0.176 A 
HETATM   16  H   UNL     1     -13.855   4.606 -35.748  1.00  0.00     0.168 HD
HETATM   17  S   UNL     1     -11.861   6.792 -35.329  1.00  0.00    -0.041 SA
HETATM   18  C   UNL     1     -12.906   0.798 -34.171  1.00  0.00     0.119 A 
HETATM   19  F   UNL     1     -13.601  -0.346 -34.145  1.00  0.00    -0.206 F 
HETATM   20  C   UNL     1     -11.642   0.836 -33.555  1.00  0.00     0.061 A 
HETATM   21  H   UNL     1     -10.119   4.780 -33.896  1.00  0.00     0.168 HD
ENDBRANCH   5   9
BRANCH   1  22
HETATM   22  C   UNL     1      -5.637  -1.848 -33.902  1.00  0.00     0.010 A 
HETATM   23  C   UNL     1      -4.422  -1.971 -33.209  1.00  0.00     0.026 A 
HETATM   24  C   UNL     1      -3.645  -3.132 -33.300  1.00  0.00     0.038 A 
HETATM   25  C   UNL     1      -4.078  -4.194 -34.079  1.00  0.00     0.065 A 
HETATM   26  C   UNL     1      -5.282  -4.117 -34.764  1.00  0.00     0.038 A 
HETATM   27  C   UNL     1      -6.052  -2.952 -34.668  1.00  0.00     0.026 A 
BRANCH  25  28
HETATM   28  O   UNL     1      -3.289  -5.302 -34.142  1.00  0.00    -0.361 OA
HETATM   29  H   UNL     1      -3.445  -5.838 -33.347  1.00  0.00     0.217 HD
ENDBRANCH  25  28
ENDBRANCH   1  22
TORSDOF 3
ENDMDL
MODEL 4
REMARK VINA RESULT:      -9.0      4.507      5.661
REMARK  3 active torsions:
REMARK  status: ('A' for Active; 'I' for Inactive)
REMARK    1  A    between atoms: C_2  and  N_3 
REMARK       I    between atoms: N_6  and  C_7 
REMARK    2  A    between atoms: C_7  and  C_8 
REMARK    3  A    between atoms: C_24  and  O_25 
ROOT
HETATM    1  N   UNL     1      -5.980  -0.168 -33.711  1.00  0.00    -0.280 NA
HETATM    2  C   UNL     1      -6.824   0.499 -34.739  1.00  0.00     0.115 C 
HETATM    3  C   UNL     1      -7.258   1.903 -34.278  1.00  0.00     0.141 C 
HETATM    4  N   UNL     1      -6.123   2.716 -33.829  1.00  0.00    -0.346 N 
HETATM    5  C   UNL     1      -6.250   4.101 -33.915  1.00  0.00     0.256 C 
HETATM    6  O   UNL     1      -7.288   4.658 -34.266  1.00  0.00    -0.267 OA
HETATM    7  C   UNL     1      -5.295   2.044 -32.814  1.00  0.00     0.141 C 
HETATM    8  C   UNL     1      -4.827   0.658 -33.290  1.00  0.00     0.115 C 
ENDROOT
BRANCH   5   9
HETATM    9  C   UNL     1      -5.073   4.948 -33.634  1.00  0.00     0.064 A 
HETATM   10  C   UNL     1      -5.065   5.817 -32.561  1.00  0.00     0.077 A 
HETATM   11  C   UNL     1      -3.971   6.646 -32.299  1.00  0.00     0.065 A 
HETATM   12  N   UNL     1      -6.032   6.074 -31.586  1.00  0.00    -0.330 N 
HETATM   13  N   UNL     1      -4.262   7.401 -31.164  1.00  0.00    -0.331 N 
HETATM   14  C   UNL     1      -2.850   6.662 -33.092  1.00  0.00     0.074 A 
HETATM   15  C   UNL     1      -5.549   7.063 -30.726  1.00  0.00     0.176 A 
HETATM   16  H   UNL     1      -3.678   8.107 -30.739  1.00  0.00     0.168 HD
HETATM   17  S   UNL     1      -6.342   7.723 -29.442  1.00  0.00    -0.041 SA
HETATM   18  C   UNL     1      -2.865   5.812 -34.198  1.00  0.00     0.119 A 
HETATM   19  F   UNL     1      -1.808   5.796 -35.020  1.00  0.00    -0.206 F 
HETATM   20  C   UNL     1      -3.957   4.972 -34.483  1.00  0.00     0.061 A 
HETATM   21  H   UNL     1      -6.960   5.666 -31.569  1.00  0.00     0.168 HD
ENDBRANCH   5   9
BRANCH   1  22
HETATM   22  C   UNL     1      -5.733  -1.524 -34.002  1.00  0.00     0.010 A 
HETATM   23  C   UNL     1      -4.494  -2.150 -33.796  1.00  0.00     0.026 A 
HETATM   24  C   UNL     1      -4.298  -3.501 -34.105  1.00  0.00     0.038 A 
HETATM   25  C   UNL     1      -5.345  -4.252 -34.616  1.00  0.00     0.065 A 
HETATM   26  C   UNL     1      -6.591  -3.674 -34.815  1.00  0.00     0.038 A 
HETATM   27  C   UNL     1      -6.777  -2.322 -34.505  1.00  0.00     0.026 A 
BRANCH  25  28
HETATM   28  O   UNL     1      -5.110  -5.561 -34.906  1.00  0.00    -0.361 OA
HETATM   29  H   UNL     1      -5.959  -5.991 -35.102  1.00  0.00     0.217 HD
ENDBRANCH  25  28
ENDBRANCH   1  22
TORSDOF 3
ENDMDL
MODEL 5
REMARK VINA RESULT:      -8.6      4.349      5.857
REMARK  3 active torsions:
REMARK  status: ('A' for Active; 'I' for Inactive)
REMARK    1  A    between atoms: C_2  and  N_3 
REMARK       I    between atoms: N_6  and  C_7 
REMARK    2  A    between atoms: C_7  and  C_8 
REMARK    3  A    between atoms: C_24  and  O_25 
ROOT
HETATM    1  N   UNL     1      -6.541  -0.527 -33.701  1.00  0.00    -0.280 NA
HETATM    2  C   UNL     1      -6.714   0.321 -34.911  1.00  0.00     0.115 C 
HETATM    3  C   UNL     1      -7.371   1.669 -34.559  1.00  0.00     0.141 C 
HETATM    4  N   UNL     1      -6.685   2.349 -33.455  1.00  0.00    -0.346 N 
HETATM    5  C   UNL     1      -6.788   3.737 -33.392  1.00  0.00     0.256 C 
HETATM    6  O   UNL     1      -7.487   4.393 -34.162  1.00  0.00    -0.267 OA
HETATM    7  C   UNL     1      -6.519   1.499 -32.264  1.00  0.00     0.141 C 
HETATM    8  C   UNL     1      -5.825   0.169 -32.609  1.00  0.00     0.115 C 
ENDROOT
BRANCH   5   9
HETATM    9  C   UNL     1      -5.977   4.473 -32.400  1.00  0.00     0.064 A 
HETATM   10  C   UNL     1      -4.694   4.885 -32.698  1.00  0.00     0.077 A 
HETATM   11  C   UNL     1      -3.904   5.556 -31.760  1.00  0.00     0.065 A 
HETATM   12  N   UNL     1      -3.937   4.745 -33.864  1.00  0.00    -0.330 N 
HETATM   13  N   UNL     1      -2.673   5.834 -32.351  1.00  0.00    -0.331 N 
HETATM   14  C   UNL     1      -4.343   5.833 -30.488  1.00  0.00     0.074 A 
HETATM   15  C   UNL     1      -2.680   5.317 -33.653  1.00  0.00     0.176 A 
HETATM   16  H   UNL     1      -1.882   6.289 -31.919  1.00  0.00     0.168 HD
HETATM   17  S   UNL     1      -1.430   5.367 -34.724  1.00  0.00    -0.041 SA
HETATM   18  C   UNL     1      -5.626   5.389 -30.169  1.00  0.00     0.119 A 
HETATM   19  F   UNL     1      -6.103   5.612 -28.938  1.00  0.00    -0.206 F 
HETATM   20  C   UNL     1      -6.436   4.708 -31.096  1.00  0.00     0.061 A 
HETATM   21  H   UNL     1      -4.232   4.234 -34.688  1.00  0.00     0.168 HD
ENDBRANCH   5   9
BRANCH   1  22
HETATM   22  C   UNL     1      -6.135  -1.840 -34.007  1.00  0.00     0.010 A 
HETATM   23  C   UNL     1      -7.001  -2.825 -34.509  1.00  0.00     0.026 A 
HETATM   24  C   UNL     1      -6.548  -4.118 -34.794  1.00  0.00     0.038 A 
HETATM   25  C   UNL     1      -5.216  -4.444 -34.592  1.00  0.00     0.065 A 
HETATM   26  C   UNL     1      -4.325  -3.493 -34.115  1.00  0.00     0.038 A 
HETATM   27  C   UNL     1      -4.788  -2.203 -33.831  1.00  0.00     0.026 A 
BRANCH  25  28
HETATM   28  O   UNL     1      -4.819  -5.715 -34.878  1.00  0.00    -0.361 OA
HETATM   29  H   UNL     1      -5.610  -6.271 -34.977  1.00  0.00     0.217 HD
ENDBRANCH  25  28
ENDBRANCH   1  22
TORSDOF 3
ENDMDL
MODEL 6
REMARK VINA RESULT:      -8.3     14.897     16.287
REMARK  3 active torsions:
REMARK  status: ('A' for Active; 'I' for Inactive)
REMARK    1  A    between atoms: C_2  and  N_3 
REMARK       I    between atoms: N_6  and  C_7 
REMARK    2  A    between atoms: C_7  and  C_8 
REMARK    3  A    between atoms: C_24  and  O_25 
ROOT
HETATM    1  N   UNL     1      -3.337 -13.455 -38.671  1.00  0.00    -0.280 NA
HETATM    2  C   UNL     1      -3.811 -14.093 -37.414  1.00  0.00     0.115 C 
HETATM    3  C   UNL     1      -5.100 -13.424 -36.901  1.00  0.00     0.141 C 
HETATM    4  N   UNL     1      -6.130 -13.335 -37.941  1.00  0.00    -0.346 N 
HETATM    5  C   UNL     1      -7.460 -13.284 -37.526  1.00  0.00     0.256 C 
HETATM    6  O   UNL     1      -7.791 -13.227 -36.344  1.00  0.00    -0.267 OA
HETATM    7  C   UNL     1      -5.649 -12.704 -39.181  1.00  0.00     0.141 C 
HETATM    8  C   UNL     1      -4.384 -13.397 -39.716  1.00  0.00     0.115 C 
ENDROOT
BRANCH   5   9
HETATM    9  C   UNL     1      -8.531 -13.364 -38.540  1.00  0.00     0.064 A 
HETATM   10  C   UNL     1      -9.060 -14.582 -38.919  1.00  0.00     0.077 A 
HETATM   11  C   UNL     1     -10.053 -14.677 -39.898  1.00  0.00     0.065 A 
HETATM   12  N   UNL     1      -8.768 -15.879 -38.489  1.00  0.00    -0.330 N 
HETATM   13  N   UNL     1     -10.375 -16.023 -40.060  1.00  0.00    -0.331 N 
HETATM   14  C   UNL     1     -10.552 -13.576 -40.551  1.00  0.00     0.074 A 
HETATM   15  C   UNL     1      -9.566 -16.777 -39.200  1.00  0.00     0.176 A 
HETATM   16  H   UNL     1     -11.040 -16.413 -40.711  1.00  0.00     0.168 HD
HETATM   17  S   UNL     1      -9.557 -18.419 -39.067  1.00  0.00    -0.041 SA
HETATM   18  C   UNL     1      -9.999 -12.346 -40.198  1.00  0.00     0.119 A 
HETATM   19  F   UNL     1     -10.432 -11.238 -40.813  1.00  0.00    -0.206 F 
HETATM   20  C   UNL     1      -8.996 -12.228 -39.219  1.00  0.00     0.061 A 
HETATM   21  H   UNL     1      -8.034 -16.119 -37.832  1.00  0.00     0.168 HD
ENDBRANCH   5   9
BRANCH   1  22
HETATM   22  C   UNL     1      -2.058 -13.897 -39.061  1.00  0.00     0.010 A 
HETATM   23  C   UNL     1      -1.758 -14.372 -40.348  1.00  0.00     0.026 A 
HETATM   24  C   UNL     1      -0.470 -14.805 -40.684  1.00  0.00     0.038 A 
HETATM   25  C   UNL     1       0.543 -14.759 -39.740  1.00  0.00     0.065 A 
HETATM   26  C   UNL     1       0.291 -14.278 -38.463  1.00  0.00     0.038 A 
HETATM   27  C   UNL     1      -1.001 -13.850 -38.135  1.00  0.00     0.026 A 
BRANCH  25  28
HETATM   28  O   UNL     1       1.780 -15.193 -40.109  1.00  0.00    -0.361 OA
HETATM   29  H   UNL     1       2.012 -15.963 -39.564  1.00  0.00     0.217 HD
ENDBRANCH  25  28
ENDBRANCH   1  22
TORSDOF 3
ENDMDL
MODEL 7
REMARK VINA RESULT:      -8.1      3.742      7.467
REMARK  3 active torsions:
REMARK  status: ('A' for Active; 'I' for Inactive)
REMARK    1  A    between atoms: C_2  and  N_3 
REMARK       I    between atoms: N_6  and  C_7 
REMARK    2  A    between atoms: C_7  and  C_8 
REMARK    3  A    between atoms: C_24  and  O_25 
ROOT
HETATM    1  N   UNL     1      -9.967   1.580 -33.244  1.00  0.00    -0.280 NA
HETATM    2  C   UNL     1      -9.263   2.398 -34.268  1.00  0.00     0.115 C 
HETATM    3  C   UNL     1      -7.919   2.926 -33.732  1.00  0.00     0.141 C 
HETATM    4  N   UNL     1      -7.092   1.859 -33.160  1.00  0.00    -0.346 N 
HETATM    5  C   UNL     1      -5.711   2.051 -33.152  1.00  0.00     0.256 C 
HETATM    6  O   UNL     1      -5.177   3.094 -33.520  1.00  0.00    -0.267 OA
HETATM    7  C   UNL     1      -7.799   1.056 -32.150  1.00  0.00     0.141 C 
HETATM    8  C   UNL     1      -9.123   0.494 -32.698  1.00  0.00     0.115 C 
ENDROOT
BRANCH   5   9
HETATM    9  C   UNL     1      -4.835   0.934 -32.741  1.00  0.00     0.064 A 
HETATM   10  C   UNL     1      -5.020  -0.336 -33.248  1.00  0.00     0.077 A 
HETATM   11  C   UNL     1      -4.218  -1.409 -32.848  1.00  0.00     0.065 A 
HETATM   12  N   UNL     1      -5.950  -0.826 -34.169  1.00  0.00    -0.330 N 
HETATM   13  N   UNL     1      -4.647  -2.548 -33.526  1.00  0.00    -0.331 N 
HETATM   14  C   UNL     1      -3.213  -1.273 -31.921  1.00  0.00     0.074 A 
HETATM   15  C   UNL     1      -5.736  -2.196 -34.335  1.00  0.00     0.176 A 
HETATM   16  H   UNL     1      -4.281  -3.484 -33.432  1.00  0.00     0.168 HD
HETATM   17  S   UNL     1      -6.603  -3.218 -35.293  1.00  0.00    -0.041 SA
HETATM   18  C   UNL     1      -3.043   0.000 -31.379  1.00  0.00     0.119 A 
HETATM   19  F   UNL     1      -2.091   0.192 -30.457  1.00  0.00    -0.206 F 
HETATM   20  C   UNL     1      -3.841   1.093 -31.764  1.00  0.00     0.061 A 
HETATM   21  H   UNL     1      -6.704  -0.284 -34.574  1.00  0.00     0.168 HD
ENDBRANCH   5   9
BRANCH   1  22
HETATM   22  C   UNL     1     -11.284   1.250 -33.618  1.00  0.00     0.010 A 
HETATM   23  C   UNL     1     -12.122   2.108 -34.347  1.00  0.00     0.026 A 
HETATM   24  C   UNL     1     -13.427   1.735 -34.692  1.00  0.00     0.038 A 
HETATM   25  C   UNL     1     -13.910   0.490 -34.320  1.00  0.00     0.065 A 
HETATM   26  C   UNL     1     -13.105  -0.393 -33.614  1.00  0.00     0.038 A 
HETATM   27  C   UNL     1     -11.803  -0.010 -33.273  1.00  0.00     0.026 A 
BRANCH  25  28
HETATM   28  O   UNL     1     -15.186   0.169 -34.673  1.00  0.00    -0.361 OA
HETATM   29  H   UNL     1     -15.636  -0.204 -33.897  1.00  0.00     0.217 HD
ENDBRANCH  25  28
ENDBRANCH   1  22
TORSDOF 3
ENDMDL
MODEL 8
REMARK VINA RESULT:      -8.1      6.807      8.537
REMARK  3 active torsions:
REMARK  status: ('A' for Active; 'I' for Inactive)
REMARK    1  A    between atoms: C_2  and  N_3 
REMARK       I    between atoms: N_6  and  C_7 
REMARK    2  A    between atoms: C_7  and  C_8 
REMARK    3  A    between atoms: C_24  and  O_25 
ROOT
HETATM    1  N   UNL     1      -5.410   2.149 -32.769  1.00  0.00    -0.280 NA
HETATM    2  C   UNL     1      -5.405   3.266 -33.752  1.00  0.00     0.115 C 
HETATM    3  C   UNL     1      -5.213   4.624 -33.051  1.00  0.00     0.141 C 
HETATM    4  N   UNL     1      -4.056   4.626 -32.151  1.00  0.00    -0.346 N 
HETATM    5  C   UNL     1      -3.443   5.851 -31.895  1.00  0.00     0.256 C 
HETATM    6  O   UNL     1      -3.878   6.919 -32.318  1.00  0.00    -0.267 OA
HETATM    7  C   UNL     1      -4.071   3.515 -31.185  1.00  0.00     0.141 C 
HETATM    8  C   UNL     1      -4.222   2.154 -31.888  1.00  0.00     0.115 C 
ENDROOT
BRANCH   5   9
HETATM    9  C   UNL     1      -2.178   5.875 -31.132  1.00  0.00     0.064 A 
HETATM   10  C   UNL     1      -2.073   6.588 -29.955  1.00  0.00     0.077 A 
HETATM   11  C   UNL     1      -0.875   6.645 -29.236  1.00  0.00     0.065 A 
HETATM   12  N   UNL     1      -3.014   7.358 -29.265  1.00  0.00    -0.330 N 
HETATM   13  N   UNL     1      -1.083   7.436 -28.109  1.00  0.00    -0.331 N 
HETATM   14  C   UNL     1       0.269   6.012 -29.659  1.00  0.00     0.074 A 
HETATM   15  C   UNL     1      -2.406   7.898 -28.130  1.00  0.00     0.176 A 
HETATM   16  H   UNL     1      -0.400   7.684 -27.408  1.00  0.00     0.168 HD
HETATM   17  S   UNL     1      -3.102   8.900 -27.023  1.00  0.00    -0.041 SA
HETATM   18  C   UNL     1       0.179   5.318 -30.865  1.00  0.00     0.119 A 
HETATM   19  F   UNL     1       1.266   4.696 -31.339  1.00  0.00    -0.206 F 
HETATM   20  C   UNL     1      -1.015   5.252 -31.606  1.00  0.00     0.061 A 
HETATM   21  H   UNL     1      -3.953   7.554 -29.592  1.00  0.00     0.168 HD
ENDBRANCH   5   9
BRANCH   1  22
HETATM   22  C   UNL     1      -5.784   0.918 -33.343  1.00  0.00     0.010 A 
HETATM   23  C   UNL     1      -6.736   0.796 -34.367  1.00  0.00     0.026 A 
HETATM   24  C   UNL     1      -7.078  -0.453 -34.901  1.00  0.00     0.038 A 
HETATM   25  C   UNL     1      -6.461  -1.599 -34.425  1.00  0.00     0.065 A 
HETATM   26  C   UNL     1      -5.502  -1.517 -33.426  1.00  0.00     0.038 A 
HETATM   27  C   UNL     1      -5.169  -0.265 -32.897  1.00  0.00     0.026 A 
BRANCH  25  28
HETATM   28  O   UNL     1      -6.826  -2.793 -34.970  1.00  0.00    -0.361 OA
HETATM   29  H   UNL     1      -7.563  -3.156 -34.453  1.00  0.00     0.217 HD
ENDBRANCH  25  28
ENDBRANCH   1  22
TORSDOF 3
ENDMDL
MODEL 9
REMARK VINA RESULT:      -8.0      2.822      3.489
REMARK  3 active torsions:
REMARK  status: ('A' for Active; 'I' for Inactive)
REMARK    1  A    between atoms: C_2  and  N_3 
REMARK       I    between atoms: N_6  and  C_7 
REMARK    2  A    between atoms: C_7  and  C_8 
REMARK    3  A    between atoms: C_24  and  O_25 
ROOT
HETATM    1  N   UNL     1      -5.916  -0.436 -33.643  1.00  0.00    -0.280 NA
HETATM    2  C   UNL     1      -6.314  -0.244 -32.223  1.00  0.00     0.115 C 
HETATM    3  C   UNL     1      -6.332   1.250 -31.846  1.00  0.00     0.141 C 
HETATM    4  N   UNL     1      -7.115   2.051 -32.792  1.00  0.00    -0.346 N 
HETATM    5  C   UNL     1      -7.672   3.239 -32.320  1.00  0.00     0.256 C 
HETATM    6  O   UNL     1      -7.466   3.673 -31.190  1.00  0.00    -0.267 OA
HETATM    7  C   UNL     1      -6.714   1.851 -34.193  1.00  0.00     0.141 C 
HETATM    8  C   UNL     1      -6.734   0.362 -34.582  1.00  0.00     0.115 C 
ENDROOT
BRANCH   5   9
HETATM    9  C   UNL     1      -8.605   3.988 -33.188  1.00  0.00     0.064 A 
HETATM   10  C   UNL     1      -8.702   5.362 -33.104  1.00  0.00     0.077 A 
HETATM   11  C   UNL     1      -9.600   6.082 -33.897  1.00  0.00     0.065 A 
HETATM   12  N   UNL     1      -8.024   6.279 -32.297  1.00  0.00    -0.330 N 
HETATM   13  N   UNL     1      -9.467   7.434 -33.584  1.00  0.00    -0.331 N 
HETATM   14  C   UNL     1     -10.447   5.474 -34.791  1.00  0.00     0.074 A 
HETATM   15  C   UNL     1      -8.501   7.561 -32.577  1.00  0.00     0.176 A 
HETATM   16  H   UNL     1      -9.995   8.201 -33.972  1.00  0.00     0.168 HD
HETATM   17  S   UNL     1      -8.031   8.965 -31.855  1.00  0.00    -0.041 SA
HETATM   18  C   UNL     1     -10.379   4.083 -34.856  1.00  0.00     0.119 A 
HETATM   19  F   UNL     1     -11.193   3.431 -35.696  1.00  0.00    -0.206 F 
HETATM   20  C   UNL     1      -9.486   3.338 -34.065  1.00  0.00     0.061 A 
HETATM   21  H   UNL     1      -7.361   6.032 -31.571  1.00  0.00     0.168 HD
ENDBRANCH   5   9
BRANCH   1  22
HETATM   22  C   UNL     1      -5.689  -1.787 -33.970  1.00  0.00     0.010 A 
HETATM   23  C   UNL     1      -6.645  -2.608 -34.589  1.00  0.00     0.026 A 
HETATM   24  C   UNL     1      -6.372  -3.948 -34.889  1.00  0.00     0.038 A 
HETATM   25  C   UNL     1      -5.131  -4.485 -34.584  1.00  0.00     0.065 A 
HETATM   26  C   UNL     1      -4.153  -3.700 -33.989  1.00  0.00     0.038 A 
HETATM   27  C   UNL     1      -4.436  -2.362 -33.691  1.00  0.00     0.026 A 
BRANCH  25  28
HETATM   28  O   UNL     1      -4.909  -5.793 -34.890  1.00  0.00    -0.361 OA
HETATM   29  H   UNL     1      -5.767  -6.231 -35.017  1.00  0.00     0.217 HD
ENDBRANCH  25  28
ENDBRANCH   1  22
TORSDOF 3
ENDMDL
MODEL 10
REMARK VINA RESULT:      -7.8      4.371      4.975
REMARK  3 active torsions:
REMARK  status: ('A' for Active; 'I' for Inactive)
REMARK    1  A    between atoms: C_2  and  N_3 
REMARK       I    between atoms: N_6  and  C_7 
REMARK    2  A    between atoms: C_7  and  C_8 
REMARK    3  A    between atoms: C_24  and  O_25 
ROOT
HETATM    1  N   UNL     1      -5.214  -0.278 -33.519  1.00  0.00    -0.280 NA
HETATM    2  C   UNL     1      -4.246   0.041 -32.435  1.00  0.00     0.115 C 
HETATM    3  C   UNL     1      -4.122   1.563 -32.228  1.00  0.00     0.141 C 
HETATM    4  N   UNL     1      -5.427   2.209 -32.062  1.00  0.00    -0.346 N 
HETATM    5  C   UNL     1      -5.466   3.403 -31.346  1.00  0.00     0.256 C 
HETATM    6  O   UNL     1      -4.458   3.969 -30.930  1.00  0.00    -0.267 OA
HETATM    7  C   UNL     1      -6.376   1.884 -33.139  1.00  0.00     0.141 C 
HETATM    8  C   UNL     1      -6.532   0.363 -33.319  1.00  0.00     0.115 C 
ENDROOT
BRANCH   5   9
HETATM    9  C   UNL     1      -6.778   3.997 -31.011  1.00  0.00     0.064 A 
HETATM   10  C   UNL     1      -6.942   5.366 -30.950  1.00  0.00     0.077 A 
HETATM   11  C   UNL     1      -8.168   5.943 -30.607  1.00  0.00     0.065 A 
HETATM   12  N   UNL     1      -6.035   6.406 -31.174  1.00  0.00    -0.330 N 
HETATM   13  N   UNL     1      -8.017   7.328 -30.628  1.00  0.00    -0.331 N 
HETATM   14  C   UNL     1      -9.275   5.191 -30.295  1.00  0.00     0.074 A 
HETATM   15  C   UNL     1      -6.688   7.622 -30.962  1.00  0.00     0.176 A 
HETATM   16  H   UNL     1      -8.718   8.018 -30.402  1.00  0.00     0.168 HD
HETATM   17  S   UNL     1      -6.025   9.126 -31.072  1.00  0.00    -0.041 SA
HETATM   18  C   UNL     1      -9.107   3.807 -30.321  1.00  0.00     0.119 A 
HETATM   19  F   UNL     1     -10.145   3.021 -30.009  1.00  0.00    -0.206 F 
HETATM   20  C   UNL     1      -7.882   3.206 -30.660  1.00  0.00     0.061 A 
HETATM   21  H   UNL     1      -5.049   6.282 -31.370  1.00  0.00     0.168 HD
ENDBRANCH   5   9
BRANCH   1  22
HETATM   22  C   UNL     1      -5.204  -1.640 -33.877  1.00  0.00     0.010 A 
HETATM   23  C   UNL     1      -6.239  -2.263 -34.592  1.00  0.00     0.026 A 
HETATM   24  C   UNL     1      -6.184  -3.622 -34.921  1.00  0.00     0.038 A 
HETATM   25  C   UNL     1      -5.085  -4.379 -34.548  1.00  0.00     0.065 A 
HETATM   26  C   UNL     1      -4.033  -3.795 -33.856  1.00  0.00     0.038 A 
HETATM   27  C   UNL     1      -4.098  -2.436 -33.530  1.00  0.00     0.026 A 
BRANCH  25  28
HETATM   28  O   UNL     1      -5.074  -5.699 -34.884  1.00  0.00    -0.361 OA
HETATM   29  H   UNL     1      -5.877  -6.114 -34.532  1.00  0.00     0.217 HD
ENDBRANCH  25  28
ENDBRANCH   1  22
TORSDOF 3
ENDMDL
