MODEL 1
REMARK VINA RESULT:      -8.3      0.000      0.000
REMARK  5 active torsions:
REMARK  status: ('A' for Active; 'I' for Inactive)
REMARK    1  A    between atoms: C_6  and  N_7 
REMARK       I    between atoms: N_7  and  C_8 
REMARK    2  A    between atoms: C_8  and  C_9 
REMARK    3  A    between atoms: C_9  and  O_10 
REMARK    4  A    between atoms: O_10  and  C_11 
REMARK    5  A    between atoms: C_20  and  C_21 
ROOT
HETATM    1  C   UNL     1      -6.907  -1.478 -34.607  1.00  0.00     0.073 C 
HETATM    2  C   UNL     1      -6.730  -0.804 -33.296  1.00  0.00     0.065 A 
HETATM    3  N   UNL     1      -5.731  -1.172 -32.484  1.00  0.00    -0.177 NA
HETATM    4  N   UNL     1      -5.888  -0.394 -31.401  1.00  0.00    -0.262 N 
HETATM    5  H   UNL     1      -5.210  -0.479 -30.648  1.00  0.00     0.191 HD
HETATM    6  C   UNL     1      -6.953   0.465 -31.481  1.00  0.00     0.137 A 
HETATM    7  C   UNL     1      -7.521   0.226 -32.718  1.00  0.00     0.046 A 
ENDROOT
BRANCH   6   8
HETATM    8  N   UNL     1      -7.294   1.403 -30.528  1.00  0.00    -0.309 N 
HETATM    9  C   UNL     1      -6.941   2.726 -30.478  1.00  0.00     0.247 C 
HETATM   10  O   UNL     1      -7.540   3.478 -29.705  1.00  0.00    -0.271 OA
HETATM   11  H   UNL     1      -7.875   1.100 -29.753  1.00  0.00     0.170 HD
BRANCH   9  12
HETATM   12  C   UNL     1      -5.703   3.197 -31.238  1.00  0.00     0.278 C 
BRANCH  12  13
HETATM   13  O   UNL     1      -6.008   3.858 -32.458  1.00  0.00    -0.342 OA
BRANCH  13  14
HETATM   14  C   UNL     1      -4.922   4.266 -33.192  1.00  0.00     0.072 A 
HETATM   15  C   UNL     1      -3.690   4.146 -32.544  1.00  0.00     0.082 A 
HETATM   16  C   UNL     1      -2.523   4.533 -33.198  1.00  0.00     0.157 A 
HETATM   17  F   UNL     1      -1.346   4.400 -32.571  1.00  0.00    -0.203 F 
HETATM   18  C   UNL     1      -2.573   5.046 -34.487  1.00  0.00     0.155 A 
HETATM   19  F   UNL     1      -1.449   5.415 -35.114  1.00  0.00    -0.203 F 
HETATM   20  C   UNL     1      -3.792   5.184 -35.138  1.00  0.00     0.048 A 
HETATM   21  C   UNL     1      -4.970   4.795 -34.490  1.00  0.00     0.040 A 
ENDBRANCH  13  14
ENDBRANCH  12  13
ENDBRANCH   9  12
ENDBRANCH   6   8
BRANCH   7  22
HETATM   22  C   UNL     1      -8.783   0.792 -33.153  1.00  0.00    -0.020 A 
HETATM   23  C   UNL     1      -9.994   0.129 -32.924  1.00  0.00     0.014 A 
HETATM   24  C   UNL     1     -11.187   0.663 -33.418  1.00  0.00     0.020 A 
HETATM   25  C   UNL     1     -11.169   1.862 -34.133  1.00  0.00     0.011 A 
HETATM   26 BR   UNL     1     -12.779   2.571 -34.821  1.00  0.00    -0.051 Br
HETATM   27  C   UNL     1      -9.970   2.537 -34.350  1.00  0.00     0.020 A 
HETATM   28  C   UNL     1      -8.778   2.002 -33.859  1.00  0.00     0.014 A 
ENDBRANCH   7  22
TORSDOF 5
ENDMDL
MODEL 2
REMARK VINA RESULT:      -8.2      4.307      6.320
REMARK  5 active torsions:
REMARK  status: ('A' for Active; 'I' for Inactive)
REMARK    1  A    between atoms: C_6  and  N_7 
REMARK       I    between atoms: N_7  and  C_8 
REMARK    2  A    between atoms: C_8  and  C_9 
REMARK    3  A    between atoms: C_9  and  O_10 
REMARK    4  A    between atoms: O_10  and  C_11 
REMARK    5  A    between atoms: C_20  and  C_21 
ROOT
HETATM    1  C   UNL     1      -5.150   5.281 -34.229  1.00  0.00     0.073 C 
HETATM    2  C   UNL     1      -4.350   4.376 -33.367  1.00  0.00     0.065 A 
HETATM    3  N   UNL     1      -3.040   4.596 -33.201  1.00  0.00    -0.177 NA
HETATM    4  N   UNL     1      -2.639   3.592 -32.405  1.00  0.00    -0.262 N 
HETATM    5  H   UNL     1      -1.666   3.571 -32.114  1.00  0.00     0.191 HD
HETATM    6  C   UNL     1      -3.642   2.727 -32.051  1.00  0.00     0.137 A 
HETATM    7  C   UNL     1      -4.780   3.221 -32.659  1.00  0.00     0.046 A 
ENDROOT
BRANCH   6   8
HETATM    8  N   UNL     1      -3.502   1.650 -31.199  1.00  0.00    -0.309 N 
HETATM    9  C   UNL     1      -3.258   0.341 -31.523  1.00  0.00     0.247 C 
HETATM   10  O   UNL     1      -2.907  -0.441 -30.637  1.00  0.00    -0.271 OA
HETATM   11  H   UNL     1      -3.591   1.820 -30.203  1.00  0.00     0.170 HD
BRANCH   9  12
HETATM   12  C   UNL     1      -3.604  -0.157 -32.926  1.00  0.00     0.278 C 
BRANCH  12  13
HETATM   13  O   UNL     1      -3.407  -1.553 -33.091  1.00  0.00    -0.342 OA
BRANCH  13  14
HETATM   14  C   UNL     1      -4.439  -2.223 -33.702  1.00  0.00     0.072 A 
HETATM   15  C   UNL     1      -4.170  -3.555 -34.026  1.00  0.00     0.082 A 
HETATM   16  C   UNL     1      -5.147  -4.327 -34.650  1.00  0.00     0.157 A 
HETATM   17  F   UNL     1      -4.882  -5.608 -34.943  1.00  0.00    -0.203 F 
HETATM   18  C   UNL     1      -6.384  -3.782 -34.962  1.00  0.00     0.155 A 
HETATM   19  F   UNL     1      -7.323  -4.527 -35.560  1.00  0.00    -0.203 F 
HETATM   20  C   UNL     1      -6.661  -2.455 -34.658  1.00  0.00     0.048 A 
HETATM   21  C   UNL     1      -5.687  -1.672 -34.029  1.00  0.00     0.040 A 
ENDBRANCH  13  14
ENDBRANCH  12  13
ENDBRANCH   9  12
ENDBRANCH   6   8
BRANCH   7  22
HETATM   22  C   UNL     1      -6.048   2.519 -32.697  1.00  0.00    -0.020 A 
HETATM   23  C   UNL     1      -6.781   2.280 -31.530  1.00  0.00     0.014 A 
HETATM   24  C   UNL     1      -7.964   1.538 -31.587  1.00  0.00     0.020 A 
HETATM   25  C   UNL     1      -8.415   1.043 -32.812  1.00  0.00     0.011 A 
HETATM   26 BR   UNL     1     -10.002   0.020 -32.885  1.00  0.00    -0.051 Br
HETATM   27  C   UNL     1      -7.701   1.291 -33.981  1.00  0.00     0.020 A 
HETATM   28  C   UNL     1      -6.518   2.029 -33.923  1.00  0.00     0.014 A 
ENDBRANCH   7  22
TORSDOF 5
ENDMDL
MODEL 3
REMARK VINA RESULT:      -8.0      4.494      6.839
REMARK  5 active torsions:
REMARK  status: ('A' for Active; 'I' for Inactive)
REMARK    1  A    between atoms: C_6  and  N_7 
REMARK       I    between atoms: N_7  and  C_8 
REMARK    2  A    between atoms: C_8  and  C_9 
REMARK    3  A    between atoms: C_9  and  O_10 
REMARK    4  A    between atoms: O_10  and  C_11 
REMARK    5  A    between atoms: C_20  and  C_21 
ROOT
HETATM    1  C   UNL     1      -8.590   2.555 -32.665  1.00  0.00     0.073 C 
HETATM    2  C   UNL     1      -7.584   1.690 -32.000  1.00  0.00     0.065 A 
HETATM    3  N   UNL     1      -7.935   0.478 -31.551  1.00  0.00    -0.177 NA
HETATM    4  N   UNL     1      -6.812  -0.001 -30.994  1.00  0.00    -0.262 N 
HETATM    5  H   UNL     1      -6.833  -0.940 -30.606  1.00  0.00     0.191 HD
HETATM    6  C   UNL     1      -5.745   0.856 -31.064  1.00  0.00     0.137 A 
HETATM    7  C   UNL     1      -6.218   1.972 -31.728  1.00  0.00     0.046 A 
ENDROOT
BRANCH   6   8
HETATM    8  N   UNL     1      -4.469   0.579 -30.616  1.00  0.00    -0.309 N 
HETATM    9  C   UNL     1      -3.359   0.270 -31.360  1.00  0.00     0.247 C 
HETATM   10  O   UNL     1      -2.249   0.306 -30.824  1.00  0.00    -0.271 OA
HETATM   11  H   UNL     1      -4.305   0.595 -29.615  1.00  0.00     0.170 HD
BRANCH   9  12
HETATM   12  C   UNL     1      -3.539  -0.287 -32.771  1.00  0.00     0.278 C 
BRANCH  12  13
HETATM   13  O   UNL     1      -3.436  -1.702 -32.835  1.00  0.00    -0.342 OA
BRANCH  13  14
HETATM   14  C   UNL     1      -4.429  -2.332 -33.543  1.00  0.00     0.072 A 
HETATM   15  C   UNL     1      -4.156  -3.656 -33.894  1.00  0.00     0.082 A 
HETATM   16  C   UNL     1      -5.097  -4.389 -34.616  1.00  0.00     0.157 A 
HETATM   17  F   UNL     1      -4.829  -5.663 -34.934  1.00  0.00    -0.203 F 
HETATM   18  C   UNL     1      -6.299  -3.811 -34.998  1.00  0.00     0.155 A 
HETATM   19  F   UNL     1      -7.202  -4.519 -35.689  1.00  0.00    -0.203 F 
HETATM   20  C   UNL     1      -6.577  -2.491 -34.667  1.00  0.00     0.048 A 
HETATM   21  C   UNL     1      -5.641  -1.748 -33.940  1.00  0.00     0.040 A 
ENDBRANCH  13  14
ENDBRANCH  12  13
ENDBRANCH   9  12
ENDBRANCH   6   8
BRANCH   7  22
HETATM   22  C   UNL     1      -5.471   3.206 -31.870  1.00  0.00    -0.020 A 
HETATM   23  C   UNL     1      -4.846   3.543 -33.077  1.00  0.00     0.014 A 
HETATM   24  C   UNL     1      -4.074   4.704 -33.163  1.00  0.00     0.020 A 
HETATM   25  C   UNL     1      -3.933   5.530 -32.047  1.00  0.00     0.011 A 
HETATM   26 BR   UNL     1      -2.869   7.088 -32.157  1.00  0.00    -0.051 Br
HETATM   27  C   UNL     1      -4.566   5.212 -30.847  1.00  0.00     0.020 A 
HETATM   28  C   UNL     1      -5.335   4.051 -30.760  1.00  0.00     0.014 A 
ENDBRANCH   7  22
TORSDOF 5
ENDMDL
MODEL 4
REMARK VINA RESULT:      -8.0      2.355      3.152
REMARK  5 active torsions:
REMARK  status: ('A' for Active; 'I' for Inactive)
REMARK    1  A    between atoms: C_6  and  N_7 
REMARK       I    between atoms: N_7  and  C_8 
REMARK    2  A    between atoms: C_8  and  C_9 
REMARK    3  A    between atoms: C_9  and  O_10 
REMARK    4  A    between atoms: O_10  and  C_11 
REMARK    5  A    between atoms: C_20  and  C_21 
ROOT
HETATM    1  C   UNL     1      -4.394  -2.600 -33.841  1.00  0.00     0.073 C 
HETATM    2  C   UNL     1      -4.138  -1.571 -32.802  1.00  0.00     0.065 A 
HETATM    3  N   UNL     1      -3.066  -1.676 -32.007  1.00  0.00    -0.177 NA
HETATM    4  N   UNL     1      -3.163  -0.618 -31.187  1.00  0.00    -0.262 N 
HETATM    5  H   UNL     1      -2.425  -0.472 -30.504  1.00  0.00     0.191 HD
HETATM    6  C   UNL     1      -4.261   0.169 -31.420  1.00  0.00     0.137 A 
HETATM    7  C   UNL     1      -4.916  -0.426 -32.481  1.00  0.00     0.046 A 
ENDROOT
BRANCH   6   8
HETATM    8  N   UNL     1      -4.558   1.341 -30.754  1.00  0.00    -0.309 N 
HETATM    9  C   UNL     1      -4.342   2.629 -31.169  1.00  0.00     0.247 C 
HETATM   10  O   UNL     1      -4.899   3.553 -30.571  1.00  0.00    -0.271 OA
HETATM   11  H   UNL     1      -4.987   1.268 -29.837  1.00  0.00     0.170 HD
BRANCH   9  12
HETATM   12  C   UNL     1      -3.282   2.901 -32.234  1.00  0.00     0.278 C 
BRANCH  12  13
HETATM   13  O   UNL     1      -3.341   4.217 -32.764  1.00  0.00    -0.342 OA
BRANCH  13  14
HETATM   14  C   UNL     1      -2.272   5.022 -32.458  1.00  0.00     0.072 A 
HETATM   15  C   UNL     1      -1.521   4.614 -31.353  1.00  0.00     0.082 A 
HETATM   16  C   UNL     1      -0.414   5.360 -30.954  1.00  0.00     0.157 A 
HETATM   17  F   UNL     1       0.306   4.950 -29.900  1.00  0.00    -0.203 F 
HETATM   18  C   UNL     1      -0.055   6.512 -31.639  1.00  0.00     0.155 A 
HETATM   19  F   UNL     1       1.011   7.225 -31.255  1.00  0.00    -0.203 F 
HETATM   20  C   UNL     1      -0.801   6.937 -32.731  1.00  0.00     0.048 A 
HETATM   21  C   UNL     1      -1.912   6.193 -33.142  1.00  0.00     0.040 A 
ENDBRANCH  13  14
ENDBRANCH  12  13
ENDBRANCH   9  12
ENDBRANCH   6   8
BRANCH   7  22
HETATM   22  C   UNL     1      -6.228  -0.025 -32.951  1.00  0.00    -0.020 A 
HETATM   23  C   UNL     1      -6.420   0.449 -34.253  1.00  0.00     0.014 A 
HETATM   24  C   UNL     1      -7.682   0.897 -34.655  1.00  0.00     0.020 A 
HETATM   25  C   UNL     1      -8.750   0.862 -33.757  1.00  0.00     0.011 A 
HETATM   26 BR   UNL     1     -10.450   1.489 -34.294  1.00  0.00    -0.051 Br
HETATM   27  C   UNL     1      -8.572   0.375 -32.464  1.00  0.00     0.020 A 
HETATM   28  C   UNL     1      -7.311  -0.068 -32.063  1.00  0.00     0.014 A 
ENDBRANCH   7  22
TORSDOF 5
ENDMDL
MODEL 5
REMARK VINA RESULT:      -7.8      5.241      7.920
REMARK  5 active torsions:
REMARK  status: ('A' for Active; 'I' for Inactive)
REMARK    1  A    between atoms: C_6  and  N_7 
REMARK       I    between atoms: N_7  and  C_8 
REMARK    2  A    between atoms: C_8  and  C_9 
REMARK    3  A    between atoms: C_9  and  O_10 
REMARK    4  A    between atoms: O_10  and  C_11 
REMARK    5  A    between atoms: C_20  and  C_21 
ROOT
HETATM    1  C   UNL     1      -5.415   3.549 -32.168  1.00  0.00     0.073 C 
HETATM    2  C   UNL     1      -6.744   2.962 -31.864  1.00  0.00     0.065 A 
HETATM    3  N   UNL     1      -7.647   3.671 -31.175  1.00  0.00    -0.177 NA
HETATM    4  N   UNL     1      -8.695   2.840 -31.060  1.00  0.00    -0.262 N 
HETATM    5  H   UNL     1      -9.528   3.183 -30.589  1.00  0.00     0.191 HD
HETATM    6  C   UNL     1      -8.504   1.617 -31.646  1.00  0.00     0.137 A 
HETATM    7  C   UNL     1      -7.235   1.669 -32.191  1.00  0.00     0.046 A 
ENDROOT
BRANCH   6   8
HETATM    8  N   UNL     1      -9.444   0.609 -31.714  1.00  0.00    -0.309 N 
HETATM    9  C   UNL     1     -10.201   0.228 -32.792  1.00  0.00     0.247 C 
HETATM   10  O   UNL     1     -10.799  -0.850 -32.754  1.00  0.00    -0.271 OA
HETATM   11  H   UNL     1      -9.621   0.069 -30.873  1.00  0.00     0.170 HD
BRANCH   9  12
HETATM   12  C   UNL     1     -10.433   1.222 -33.928  1.00  0.00     0.278 C 
BRANCH  12  13
HETATM   13  O   UNL     1     -11.057   2.425 -33.505  1.00  0.00    -0.342 OA
BRANCH  13  14
HETATM   14  C   UNL     1     -12.403   2.332 -33.256  1.00  0.00     0.072 A 
HETATM   15  C   UNL     1     -13.102   1.458 -34.093  1.00  0.00     0.082 A 
HETATM   16  C   UNL     1     -14.475   1.289 -33.928  1.00  0.00     0.157 A 
HETATM   17  F   UNL     1     -15.130   0.437 -34.728  1.00  0.00    -0.203 F 
HETATM   18  C   UNL     1     -15.158   1.987 -32.943  1.00  0.00     0.155 A 
HETATM   19  F   UNL     1     -16.477   1.820 -32.785  1.00  0.00    -0.203 F 
HETATM   20  C   UNL     1     -14.479   2.869 -32.112  1.00  0.00     0.048 A 
HETATM   21  C   UNL     1     -13.100   3.044 -32.268  1.00  0.00     0.040 A 
ENDBRANCH  13  14
ENDBRANCH  12  13
ENDBRANCH   9  12
ENDBRANCH   6   8
BRANCH   7  22
HETATM   22  C   UNL     1      -6.549   0.525 -32.760  1.00  0.00    -0.020 A 
HETATM   23  C   UNL     1      -6.800   0.106 -34.071  1.00  0.00     0.014 A 
HETATM   24  C   UNL     1      -6.178  -1.043 -34.568  1.00  0.00     0.020 A 
HETATM   25  C   UNL     1      -5.303  -1.766 -33.757  1.00  0.00     0.011 A 
HETATM   26 BR   UNL     1      -4.481  -3.333 -34.421  1.00  0.00    -0.051 Br
HETATM   27  C   UNL     1      -5.034  -1.347 -32.456  1.00  0.00     0.020 A 
HETATM   28  C   UNL     1      -5.657  -0.201 -31.959  1.00  0.00     0.014 A 
ENDBRANCH   7  22
TORSDOF 5
ENDMDL
MODEL 6
REMARK VINA RESULT:      -7.8      4.750      7.862
REMARK  5 active torsions:
REMARK  status: ('A' for Active; 'I' for Inactive)
REMARK    1  A    between atoms: C_6  and  N_7 
REMARK       I    between atoms: N_7  and  C_8 
REMARK    2  A    between atoms: C_8  and  C_9 
REMARK    3  A    between atoms: C_9  and  O_10 
REMARK    4  A    between atoms: O_10  and  C_11 
REMARK    5  A    between atoms: C_20  and  C_21 
ROOT
HETATM    1  C   UNL     1      -1.107   5.599 -35.017  1.00  0.00     0.073 C 
HETATM    2  C   UNL     1      -2.462   5.428 -34.438  1.00  0.00     0.065 A 
HETATM    3  N   UNL     1      -3.513   5.227 -35.243  1.00  0.00    -0.177 NA
HETATM    4  N   UNL     1      -4.557   5.147 -34.403  1.00  0.00    -0.262 N 
HETATM    5  H   UNL     1      -5.475   4.963 -34.796  1.00  0.00     0.191 HD
HETATM    6  C   UNL     1      -4.222   5.291 -33.082  1.00  0.00     0.137 A 
HETATM    7  C   UNL     1      -2.851   5.467 -33.071  1.00  0.00     0.046 A 
ENDROOT
BRANCH   6   8
HETATM    8  N   UNL     1      -5.100   5.194 -32.021  1.00  0.00    -0.309 N 
HETATM    9  C   UNL     1      -5.500   4.065 -31.354  1.00  0.00     0.247 C 
HETATM   10  O   UNL     1      -6.083   4.182 -30.273  1.00  0.00    -0.271 OA
HETATM   11  H   UNL     1      -5.519   6.050 -31.675  1.00  0.00     0.170 HD
BRANCH   9  12
HETATM   12  C   UNL     1      -5.383   2.708 -32.046  1.00  0.00     0.278 C 
BRANCH  12  13
HETATM   13  O   UNL     1      -6.031   2.663 -33.309  1.00  0.00    -0.342 OA
BRANCH  13  14
HETATM   14  C   UNL     1      -6.322   1.405 -33.774  1.00  0.00     0.072 A 
HETATM   15  C   UNL     1      -5.520   0.383 -33.260  1.00  0.00     0.082 A 
HETATM   16  C   UNL     1      -5.729  -0.933 -33.666  1.00  0.00     0.157 A 
HETATM   17  F   UNL     1      -4.962  -1.906 -33.154  1.00  0.00    -0.203 F 
HETATM   18  C   UNL     1      -6.721  -1.238 -34.586  1.00  0.00     0.155 A 
HETATM   19  F   UNL     1      -6.921  -2.505 -34.973  1.00  0.00    -0.203 F 
HETATM   20  C   UNL     1      -7.517  -0.231 -35.116  1.00  0.00     0.048 A 
HETATM   21  C   UNL     1      -7.317   1.093 -34.713  1.00  0.00     0.040 A 
ENDBRANCH  13  14
ENDBRANCH  12  13
ENDBRANCH   9  12
ENDBRANCH   6   8
BRANCH   7  22
HETATM   22  C   UNL     1      -2.090   5.832 -31.893  1.00  0.00    -0.020 A 
HETATM   23  C   UNL     1      -2.185   7.112 -31.334  1.00  0.00     0.014 A 
HETATM   24  C   UNL     1      -1.386   7.458 -30.241  1.00  0.00     0.020 A 
HETATM   25  C   UNL     1      -0.499   6.523 -29.705  1.00  0.00     0.011 A 
HETATM   26 BR   UNL     1       0.598   7.000 -28.242  1.00  0.00    -0.051 Br
HETATM   27  C   UNL     1      -0.411   5.242 -30.243  1.00  0.00     0.020 A 
HETATM   28  C   UNL     1      -1.207   4.897 -31.337  1.00  0.00     0.014 A 
ENDBRANCH   7  22
TORSDOF 5
ENDMDL
MODEL 7
REMARK VINA RESULT:      -7.8      4.300      6.710
REMARK  5 active torsions:
REMARK  status: ('A' for Active; 'I' for Inactive)
REMARK    1  A    between atoms: C_6  and  N_7 
REMARK       I    between atoms: N_7  and  C_8 
REMARK    2  A    between atoms: C_8  and  C_9 
REMARK    3  A    between atoms: C_9  and  O_10 
REMARK    4  A    between atoms: O_10  and  C_11 
REMARK    5  A    between atoms: C_20  and  C_21 
ROOT
HETATM    1  C   UNL     1      -9.815   4.684 -33.221  1.00  0.00     0.073 C 
HETATM    2  C   UNL     1      -9.292   3.617 -32.332  1.00  0.00     0.065 A 
HETATM    3  N   UNL     1     -10.133   2.915 -31.562  1.00  0.00    -0.177 NA
HETATM    4  N   UNL     1      -9.332   2.077 -30.884  1.00  0.00    -0.262 N 
HETATM    5  H   UNL     1      -9.763   1.413 -30.247  1.00  0.00     0.191 HD
HETATM    6  C   UNL     1      -8.002   2.212 -31.185  1.00  0.00     0.137 A 
HETATM    7  C   UNL     1      -7.944   3.209 -32.140  1.00  0.00     0.046 A 
ENDROOT
BRANCH   6   8
HETATM    8  N   UNL     1      -6.984   1.435 -30.668  1.00  0.00    -0.309 N 
HETATM    9  C   UNL     1      -6.285   0.433 -31.290  1.00  0.00     0.247 C 
HETATM   10  O   UNL     1      -5.243   0.020 -30.775  1.00  0.00    -0.271 OA
HETATM   11  H   UNL     1      -6.703   1.602 -29.708  1.00  0.00     0.170 HD
BRANCH   9  12
HETATM   12  C   UNL     1      -6.903  -0.270 -32.497  1.00  0.00     0.278 C 
BRANCH  12  13
HETATM   13  O   UNL     1      -6.011  -0.391 -33.595  1.00  0.00    -0.342 OA
BRANCH  13  14
HETATM   14  C   UNL     1      -5.612  -1.671 -33.889  1.00  0.00     0.072 A 
HETATM   15  C   UNL     1      -6.549  -2.438 -34.587  1.00  0.00     0.082 A 
HETATM   16  C   UNL     1      -6.248  -3.753 -34.936  1.00  0.00     0.157 A 
HETATM   17  F   UNL     1      -7.150  -4.472 -35.617  1.00  0.00    -0.203 F 
HETATM   18  C   UNL     1      -5.027  -4.312 -34.588  1.00  0.00     0.155 A 
HETATM   19  F   UNL     1      -4.739  -5.575 -34.927  1.00  0.00    -0.203 F 
HETATM   20  C   UNL     1      -4.091  -3.566 -33.882  1.00  0.00     0.048 A 
HETATM   21  C   UNL     1      -4.383  -2.245 -33.530  1.00  0.00     0.040 A 
ENDBRANCH  13  14
ENDBRANCH  12  13
ENDBRANCH   9  12
ENDBRANCH   6   8
BRANCH   7  22
HETATM   22  C   UNL     1      -6.710   3.800 -32.620  1.00  0.00    -0.020 A 
HETATM   23  C   UNL     1      -5.919   4.603 -31.790  1.00  0.00     0.014 A 
HETATM   24  C   UNL     1      -4.773   5.219 -32.301  1.00  0.00     0.020 A 
HETATM   25  C   UNL     1      -4.416   5.025 -33.637  1.00  0.00     0.011 A 
HETATM   26 BR   UNL     1      -2.879   5.877 -34.332  1.00  0.00    -0.051 Br
HETATM   27  C   UNL     1      -5.188   4.214 -34.465  1.00  0.00     0.020 A 
HETATM   28  C   UNL     1      -6.334   3.601 -33.955  1.00  0.00     0.014 A 
ENDBRANCH   7  22
TORSDOF 5
ENDMDL
MODEL 8
REMARK VINA RESULT:      -7.6      4.443      6.190
REMARK  5 active torsions:
REMARK  status: ('A' for Active; 'I' for Inactive)
REMARK    1  A    between atoms: C_6  and  N_7 
REMARK       I    between atoms: N_7  and  C_8 
REMARK    2  A    between atoms: C_8  and  C_9 
REMARK    3  A    between atoms: C_9  and  O_10 
REMARK    4  A    between atoms: O_10  and  C_11 
REMARK    5  A    between atoms: C_20  and  C_21 
ROOT
HETATM    1  C   UNL     1     -14.180   1.159 -34.293  1.00  0.00     0.073 C 
HETATM    2  C   UNL     1     -12.769   1.041 -33.849  1.00  0.00     0.065 A 
HETATM    3  N   UNL     1     -12.303  -0.133 -33.405  1.00  0.00    -0.177 NA
HETATM    4  N   UNL     1     -11.030   0.128 -33.068  1.00  0.00    -0.262 N 
HETATM    5  H   UNL     1     -10.458  -0.640 -32.726  1.00  0.00     0.191 HD
HETATM    6  C   UNL     1     -10.654   1.429 -33.275  1.00  0.00     0.137 A 
HETATM    7  C   UNL     1     -11.771   2.052 -33.797  1.00  0.00     0.046 A 
ENDROOT
BRANCH   6   8
HETATM    8  N   UNL     1      -9.388   1.937 -33.062  1.00  0.00    -0.309 N 
HETATM    9  C   UNL     1      -8.237   1.660 -33.754  1.00  0.00     0.247 C 
HETATM   10  O   UNL     1      -7.255   2.390 -33.600  1.00  0.00    -0.271 OA
HETATM   11  H   UNL     1      -9.265   2.597 -32.301  1.00  0.00     0.170 HD
BRANCH   9  12
HETATM   12  C   UNL     1      -8.139   0.359 -34.548  1.00  0.00     0.278 C 
BRANCH  12  13
HETATM   13  O   UNL     1      -8.017  -0.794 -33.728  1.00  0.00    -0.342 OA
BRANCH  13  14
HETATM   14  C   UNL     1      -6.856  -1.508 -33.888  1.00  0.00     0.072 A 
HETATM   15  C   UNL     1      -6.996  -2.720 -34.570  1.00  0.00     0.082 A 
HETATM   16  C   UNL     1      -5.881  -3.526 -34.787  1.00  0.00     0.157 A 
HETATM   17  F   UNL     1      -6.026  -4.678 -35.455  1.00  0.00    -0.203 F 
HETATM   18  C   UNL     1      -4.631  -3.140 -34.323  1.00  0.00     0.155 A 
HETATM   19  F   UNL     1      -3.561  -3.916 -34.536  1.00  0.00    -0.203 F 
HETATM   20  C   UNL     1      -4.480  -1.945 -33.631  1.00  0.00     0.048 A 
HETATM   21  C   UNL     1      -5.593  -1.128 -33.411  1.00  0.00     0.040 A 
ENDBRANCH  13  14
ENDBRANCH  12  13
ENDBRANCH   9  12
ENDBRANCH   6   8
BRANCH   7  22
HETATM   22  C   UNL     1     -11.879   3.483 -34.004  1.00  0.00    -0.020 A 
HETATM   23  C   UNL     1     -12.567   4.299 -33.099  1.00  0.00     0.014 A 
HETATM   24  C   UNL     1     -12.716   5.664 -33.362  1.00  0.00     0.020 A 
HETATM   25  C   UNL     1     -12.170   6.211 -34.525  1.00  0.00     0.011 A 
HETATM   26 BR   UNL     1     -12.392   8.052 -34.891  1.00  0.00    -0.051 Br
HETATM   27  C   UNL     1     -11.468   5.410 -35.422  1.00  0.00     0.020 A 
HETATM   28  C   UNL     1     -11.323   4.046 -35.161  1.00  0.00     0.014 A 
ENDBRANCH   7  22
TORSDOF 5
ENDMDL
MODEL 9
REMARK VINA RESULT:      -7.6      4.300      6.198
REMARK  5 active torsions:
REMARK  status: ('A' for Active; 'I' for Inactive)
REMARK    1  A    between atoms: C_6  and  N_7 
REMARK       I    between atoms: N_7  and  C_8 
REMARK    2  A    between atoms: C_8  and  C_9 
REMARK    3  A    between atoms: C_9  and  O_10 
REMARK    4  A    between atoms: O_10  and  C_11 
REMARK    5  A    between atoms: C_20  and  C_21 
ROOT
HETATM    1  C   UNL     1     -11.650   2.580 -34.021  1.00  0.00     0.073 C 
HETATM    2  C   UNL     1     -10.755   1.656 -33.282  1.00  0.00     0.065 A 
HETATM    3  N   UNL     1     -11.054   0.353 -33.205  1.00  0.00    -0.177 NA
HETATM    4  N   UNL     1     -10.068  -0.165 -32.456  1.00  0.00    -0.262 N 
HETATM    5  H   UNL     1     -10.071  -1.166 -32.286  1.00  0.00     0.191 HD
HETATM    6  C   UNL     1      -9.141   0.755 -32.042  1.00  0.00     0.137 A 
HETATM    7  C   UNL     1      -9.559   1.959 -32.577  1.00  0.00     0.046 A 
ENDROOT
BRANCH   6   8
HETATM    8  N   UNL     1      -8.005   0.470 -31.311  1.00  0.00    -0.309 N 
HETATM    9  C   UNL     1      -6.709   0.403 -31.751  1.00  0.00     0.247 C 
HETATM   10  O   UNL     1      -5.794   0.393 -30.924  1.00  0.00    -0.271 OA
HETATM   11  H   UNL     1      -8.116   0.277 -30.321  1.00  0.00     0.170 HD
BRANCH   9  12
HETATM   12  C   UNL     1      -6.437   0.157 -33.234  1.00  0.00     0.278 C 
BRANCH  12  13
HETATM   13  O   UNL     1      -5.115  -0.289 -33.498  1.00  0.00    -0.342 OA
BRANCH  13  14
HETATM   14  C   UNL     1      -4.991  -1.629 -33.765  1.00  0.00     0.072 A 
HETATM   15  C   UNL     1      -6.029  -2.182 -34.519  1.00  0.00     0.082 A 
HETATM   16  C   UNL     1      -6.003  -3.536 -34.847  1.00  0.00     0.157 A 
HETATM   17  F   UNL     1      -6.999  -4.050 -35.583  1.00  0.00    -0.203 F 
HETATM   18  C   UNL     1      -4.958  -4.344 -34.424  1.00  0.00     0.155 A 
HETATM   19  F   UNL     1      -4.935  -5.644 -34.743  1.00  0.00    -0.203 F 
HETATM   20  C   UNL     1      -3.926  -3.811 -33.663  1.00  0.00     0.048 A 
HETATM   21  C   UNL     1      -3.941  -2.453 -33.330  1.00  0.00     0.040 A 
ENDBRANCH  13  14
ENDBRANCH  12  13
ENDBRANCH   9  12
ENDBRANCH   6   8
BRANCH   7  22
HETATM   22  C   UNL     1      -8.966   3.241 -32.248  1.00  0.00    -0.020 A 
HETATM   23  C   UNL     1      -9.284   3.905 -31.058  1.00  0.00     0.014 A 
HETATM   24  C   UNL     1      -8.754   5.172 -30.801  1.00  0.00     0.020 A 
HETATM   25  C   UNL     1      -7.901   5.770 -31.730  1.00  0.00     0.011 A 
HETATM   26 BR   UNL     1      -7.203   7.493 -31.393  1.00  0.00    -0.051 Br
HETATM   27  C   UNL     1      -7.566   5.109 -32.910  1.00  0.00     0.020 A 
HETATM   28  C   UNL     1      -8.098   3.845 -33.167  1.00  0.00     0.014 A 
ENDBRANCH   7  22
TORSDOF 5
ENDMDL
MODEL 10
REMARK VINA RESULT:      -7.5      7.087      9.500
REMARK  5 active torsions:
REMARK  status: ('A' for Active; 'I' for Inactive)
REMARK    1  A    between atoms: C_6  and  N_7 
REMARK       I    between atoms: N_7  and  C_8 
REMARK    2  A    between atoms: C_8  and  C_9 
REMARK    3  A    between atoms: C_9  and  O_10 
REMARK    4  A    between atoms: O_10  and  C_11 
REMARK    5  A    between atoms: C_20  and  C_21 
ROOT
HETATM    1  C   UNL     1       1.670   4.653 -30.429  1.00  0.00     0.073 C 
HETATM    2  C   UNL     1       0.258   5.068 -30.238  1.00  0.00     0.065 A 
HETATM    3  N   UNL     1      -0.690   4.616 -31.069  1.00  0.00    -0.177 NA
HETATM    4  N   UNL     1      -1.814   5.203 -30.630  1.00  0.00    -0.262 N 
HETATM    5  H   UNL     1      -2.687   4.980 -31.101  1.00  0.00     0.191 HD
HETATM    6  C   UNL     1      -1.630   6.021 -29.546  1.00  0.00     0.137 A 
HETATM    7  C   UNL     1      -0.280   5.945 -29.259  1.00  0.00     0.046 A 
ENDROOT
BRANCH   6   8
HETATM    8  N   UNL     1      -2.631   6.694 -28.875  1.00  0.00    -0.309 N 
HETATM    9  C   UNL     1      -3.347   7.784 -29.295  1.00  0.00     0.247 C 
HETATM   10  O   UNL     1      -4.374   8.098 -28.687  1.00  0.00    -0.271 OA
HETATM   11  H   UNL     1      -2.885   6.364 -27.949  1.00  0.00     0.170 HD
BRANCH   9  12
HETATM   12  C   UNL     1      -2.764   8.686 -30.382  1.00  0.00     0.278 C 
BRANCH  12  13
HETATM   13  O   UNL     1      -3.424   8.559 -31.633  1.00  0.00    -0.342 OA
BRANCH  13  14
HETATM   14  C   UNL     1      -2.825   7.708 -32.528  1.00  0.00     0.072 A 
HETATM   15  C   UNL     1      -3.655   6.710 -33.043  1.00  0.00     0.082 A 
HETATM   16  C   UNL     1      -3.149   5.792 -33.960  1.00  0.00     0.157 A 
HETATM   17  F   UNL     1      -3.960   4.848 -34.458  1.00  0.00    -0.203 F 
HETATM   18  C   UNL     1      -1.822   5.854 -34.361  1.00  0.00     0.155 A 
HETATM   19  F   UNL     1      -1.338   4.971 -35.244  1.00  0.00    -0.203 F 
HETATM   20  C   UNL     1      -0.981   6.832 -33.847  1.00  0.00     0.048 A 
HETATM   21  C   UNL     1      -1.481   7.761 -32.928  1.00  0.00     0.040 A 
ENDBRANCH  13  14
ENDBRANCH  12  13
ENDBRANCH   9  12
ENDBRANCH   6   8
BRANCH   7  22
HETATM   22  C   UNL     1       0.390   6.790 -28.290  1.00  0.00    -0.020 A 
HETATM   23  C   UNL     1       0.368   6.488 -26.924  1.00  0.00     0.014 A 
HETATM   24  C   UNL     1       0.962   7.360 -26.006  1.00  0.00     0.020 A 
HETATM   25  C   UNL     1       1.583   8.526 -26.456  1.00  0.00     0.011 A 
HETATM   26 BR   UNL     1       2.365   9.715 -25.212  1.00  0.00    -0.051 Br
HETATM   27  C   UNL     1       1.625   8.825 -27.816  1.00  0.00     0.020 A 
HETATM   28  C   UNL     1       1.029   7.957 -28.732  1.00  0.00     0.014 A 
ENDBRANCH   7  22
TORSDOF 5
ENDMDL
