MODEL 1
REMARK VINA RESULT:     -10.0      0.000      0.000
REMARK  4 active torsions:
REMARK  status: ('A' for Active; 'I' for Inactive)
REMARK    1  A    between atoms: C_4  and  N_5 
REMARK    2  A    between atoms: N_5  and  C_6 
REMARK    3  A    between atoms: C_8  and  C_9 
REMARK    4  A    between atoms: C_23  and  O_24 
ROOT
HETATM    1  C   UNL     1      -4.768   1.317 -31.858  1.00  0.00     0.722 A 
HETATM    2  N   UNL     1      -4.720   0.194 -32.514  1.00  0.00    -0.063 NA
HETATM    3  C   UNL     1      -5.904  -0.449 -32.806  1.00  0.00     0.091 A 
HETATM    4  C   UNL     1      -7.111   0.033 -32.480  1.00  0.00     0.108 A 
HETATM    5  C   UNL     1      -7.170   1.296 -31.739  1.00  0.00     0.261 A 
HETATM    6  O   UNL     1      -8.240   1.787 -31.399  1.00  0.00    -0.268 OA
HETATM    7  N   UNL     1      -5.963   1.857 -31.469  1.00  0.00    -0.154 N 
HETATM    8  H   UNL     1      -5.949   2.732 -30.957  1.00  0.00     0.187 HD
ENDROOT
BRANCH   1   9
HETATM    9  N   UNL     1      -3.611   1.965 -31.560  1.00  0.00    -0.017 N 
HETATM   10  H   UNL     1      -3.006   1.557 -30.866  1.00  0.00     0.203 HD
BRANCH   9  11
HETATM   11  C   UNL     1      -3.118   3.154 -32.068  1.00  0.00     0.742 A 
HETATM   12  N   UNL     1      -3.666   3.701 -33.162  1.00  0.00    -0.066 NA
HETATM   13  C   UNL     1      -3.154   4.869 -33.607  1.00  0.00     0.062 A 
HETATM   14  C   UNL     1      -3.817   5.429 -34.834  1.00  0.00     0.072 C 
HETATM   15  C   UNL     1      -2.084   5.515 -32.979  1.00  0.00     0.021 A 
HETATM   16  C   UNL     1      -1.568   4.863 -31.850  1.00  0.00     0.121 A 
HETATM   17  C   UNL     1      -1.525   6.740 -33.414  1.00  0.00     0.016 A 
HETATM   18  N   UNL     1      -2.091   3.700 -31.412  1.00  0.00    -0.059 NA
HETATM   19  C   UNL     1      -0.477   5.455 -31.186  1.00  0.00     0.098 A 
HETATM   20  C   UNL     1       0.063   6.677 -31.614  1.00  0.00     0.039 A 
HETATM   21  C   UNL     1      -0.461   7.318 -32.730  1.00  0.00     0.004 A 
BRANCH  19  22
HETATM   22  O   UNL     1      -0.006   4.779 -30.080  1.00  0.00    -0.354 OA
HETATM   23  C   UNL     1       0.442   5.569 -28.987  1.00  0.00     0.210 C 
ENDBRANCH  19  22
ENDBRANCH   9  11
ENDBRANCH   1   9
BRANCH   3  24
HETATM   24  C   UNL     1      -5.814  -1.725 -33.560  1.00  0.00    -0.006 A 
HETATM   25  C   UNL     1      -6.978  -2.291 -34.112  1.00  0.00     0.017 A 
HETATM   26  C   UNL     1      -6.923  -3.488 -34.831  1.00  0.00     0.043 A 
HETATM   27  C   UNL     1      -5.701  -4.124 -35.008  1.00  0.00     0.116 A 
HETATM   28  F   UNL     1      -5.647  -5.273 -35.695  1.00  0.00    -0.206 F 
HETATM   29  C   UNL     1      -4.533  -3.582 -34.489  1.00  0.00     0.043 A 
HETATM   30  C   UNL     1      -4.588  -2.382 -33.772  1.00  0.00     0.017 A 
ENDBRANCH   3  24
TORSDOF 4
ENDMDL
MODEL 2
REMARK VINA RESULT:      -9.5      3.824      8.766
REMARK  4 active torsions:
REMARK  status: ('A' for Active; 'I' for Inactive)
REMARK    1  A    between atoms: C_4  and  N_5 
REMARK    2  A    between atoms: N_5  and  C_6 
REMARK    3  A    between atoms: C_8  and  C_9 
REMARK    4  A    between atoms: C_23  and  O_24 
ROOT
HETATM    1  C   UNL     1      -3.833   3.354 -32.391  1.00  0.00     0.722 A 
HETATM    2  N   UNL     1      -2.986   4.008 -31.651  1.00  0.00    -0.063 NA
HETATM    3  C   UNL     1      -2.528   5.229 -32.097  1.00  0.00     0.091 A 
HETATM    4  C   UNL     1      -2.930   5.800 -33.241  1.00  0.00     0.108 A 
HETATM    5  C   UNL     1      -3.881   5.066 -34.080  1.00  0.00     0.261 A 
HETATM    6  O   UNL     1      -4.281   5.525 -35.143  1.00  0.00    -0.268 OA
HETATM    7  N   UNL     1      -4.269   3.863 -33.584  1.00  0.00    -0.154 N 
HETATM    8  H   UNL     1      -4.927   3.315 -34.127  1.00  0.00     0.187 HD
ENDROOT
BRANCH   1   9
HETATM    9  N   UNL     1      -4.296   2.148 -31.968  1.00  0.00    -0.017 N 
HETATM   10  H   UNL     1      -4.239   1.938 -30.985  1.00  0.00     0.203 HD
BRANCH   9  11
HETATM   11  C   UNL     1      -4.841   1.111 -32.706  1.00  0.00     0.742 A 
HETATM   12  N   UNL     1      -5.922   1.322 -33.471  1.00  0.00    -0.066 NA
HETATM   13  C   UNL     1      -6.405   0.279 -34.179  1.00  0.00     0.062 A 
HETATM   14  C   UNL     1      -7.613   0.584 -35.019  1.00  0.00     0.072 C 
HETATM   15  C   UNL     1      -5.830  -0.996 -34.139  1.00  0.00     0.021 A 
HETATM   16  C   UNL     1      -4.712  -1.124 -33.302  1.00  0.00     0.121 A 
HETATM   17  C   UNL     1      -6.306  -2.110 -34.870  1.00  0.00     0.016 A 
HETATM   18  N   UNL     1      -4.235  -0.074 -32.603  1.00  0.00    -0.059 NA
HETATM   19  C   UNL     1      -4.101  -2.388 -33.205  1.00  0.00     0.098 A 
HETATM   20  C   UNL     1      -4.570  -3.485 -33.943  1.00  0.00     0.039 A 
HETATM   21  C   UNL     1      -5.674  -3.344 -34.774  1.00  0.00     0.004 A 
BRANCH  19  22
HETATM   22  O   UNL     1      -3.004  -2.464 -32.372  1.00  0.00    -0.354 OA
HETATM   23  C   UNL     1      -2.861  -3.653 -31.606  1.00  0.00     0.210 C 
ENDBRANCH  19  22
ENDBRANCH   9  11
ENDBRANCH   1   9
BRANCH   3  24
HETATM   24  C   UNL     1      -1.566   5.952 -31.226  1.00  0.00    -0.006 A 
HETATM   25  C   UNL     1      -0.208   6.007 -31.586  1.00  0.00     0.017 A 
HETATM   26  C   UNL     1       0.719   6.684 -30.788  1.00  0.00     0.043 A 
HETATM   27  C   UNL     1       0.290   7.317 -29.629  1.00  0.00     0.116 A 
HETATM   28  F   UNL     1       1.177   7.966 -28.862  1.00  0.00    -0.206 F 
HETATM   29  C   UNL     1      -1.048   7.294 -29.256  1.00  0.00     0.043 A 
HETATM   30  C   UNL     1      -1.975   6.618 -30.056  1.00  0.00     0.017 A 
ENDBRANCH   3  24
TORSDOF 4
ENDMDL
MODEL 3
REMARK VINA RESULT:      -9.4      1.748      2.034
REMARK  4 active torsions:
REMARK  status: ('A' for Active; 'I' for Inactive)
REMARK    1  A    between atoms: C_4  and  N_5 
REMARK    2  A    between atoms: N_5  and  C_6 
REMARK    3  A    between atoms: C_8  and  C_9 
REMARK    4  A    between atoms: C_23  and  O_24 
ROOT
HETATM    1  C   UNL     1      -4.604   1.808 -32.359  1.00  0.00     0.722 A 
HETATM    2  N   UNL     1      -4.587   0.605 -32.854  1.00  0.00    -0.063 NA
HETATM    3  C   UNL     1      -5.783   0.025 -33.216  1.00  0.00     0.091 A 
HETATM    4  C   UNL     1      -6.968   0.643 -33.118  1.00  0.00     0.108 A 
HETATM    5  C   UNL     1      -6.993   1.997 -32.558  1.00  0.00     0.261 A 
HETATM    6  O   UNL     1      -8.043   2.616 -32.429  1.00  0.00    -0.268 OA
HETATM    7  N   UNL     1      -5.779   2.492 -32.204  1.00  0.00    -0.154 N 
HETATM    8  H   UNL     1      -5.742   3.426 -31.811  1.00  0.00     0.187 HD
ENDROOT
BRANCH   1   9
HETATM    9  N   UNL     1      -3.434   2.396 -31.995  1.00  0.00    -0.017 N 
HETATM   10  H   UNL     1      -2.777   1.851 -31.460  1.00  0.00     0.203 HD
BRANCH   9  11
HETATM   11  C   UNL     1      -2.988   3.684 -32.237  1.00  0.00     0.742 A 
HETATM   12  N   UNL     1      -2.304   3.962 -33.357  1.00  0.00    -0.066 NA
HETATM   13  C   UNL     1      -1.903   5.237 -33.550  1.00  0.00     0.062 A 
HETATM   14  C   UNL     1      -1.148   5.482 -34.825  1.00  0.00     0.072 C 
HETATM   15  C   UNL     1      -2.168   6.261 -32.634  1.00  0.00     0.021 A 
HETATM   16  C   UNL     1      -2.877   5.874 -31.488  1.00  0.00     0.121 A 
HETATM   17  C   UNL     1      -1.768   7.608 -32.804  1.00  0.00     0.016 A 
HETATM   18  N   UNL     1      -3.276   4.598 -31.308  1.00  0.00    -0.059 NA
HETATM   19  C   UNL     1      -3.157   6.856 -30.520  1.00  0.00     0.098 A 
HETATM   20  C   UNL     1      -2.769   8.192 -30.702  1.00  0.00     0.039 A 
HETATM   21  C   UNL     1      -2.073   8.566 -31.845  1.00  0.00     0.004 A 
BRANCH  19  22
HETATM   22  O   UNL     1      -3.858   6.428 -29.412  1.00  0.00    -0.354 OA
HETATM   23  C   UNL     1      -4.017   7.362 -28.352  1.00  0.00     0.210 C 
ENDBRANCH  19  22
ENDBRANCH   9  11
ENDBRANCH   1   9
BRANCH   3  24
HETATM   24  C   UNL     1      -5.728  -1.347 -33.783  1.00  0.00    -0.006 A 
HETATM   25  C   UNL     1      -4.494  -2.018 -33.862  1.00  0.00     0.017 A 
HETATM   26  C   UNL     1      -4.413  -3.311 -34.386  1.00  0.00     0.043 A 
HETATM   27  C   UNL     1      -5.567  -3.944 -34.827  1.00  0.00     0.116 A 
HETATM   28  F   UNL     1      -5.491  -5.183 -35.331  1.00  0.00    -0.206 F 
HETATM   29  C   UNL     1      -6.802  -3.313 -34.747  1.00  0.00     0.043 A 
HETATM   30  C   UNL     1      -6.884  -2.020 -34.220  1.00  0.00     0.017 A 
ENDBRANCH   3  24
TORSDOF 4
ENDMDL
MODEL 4
REMARK VINA RESULT:      -9.2      4.673      7.805
REMARK  4 active torsions:
REMARK  status: ('A' for Active; 'I' for Inactive)
REMARK    1  A    between atoms: C_4  and  N_5 
REMARK    2  A    between atoms: N_5  and  C_6 
REMARK    3  A    between atoms: C_8  and  C_9 
REMARK    4  A    between atoms: C_23  and  O_24 
ROOT
HETATM    1  C   UNL     1      -8.412   1.107 -34.379  1.00  0.00     0.722 A 
HETATM    2  N   UNL     1      -7.936  -0.093 -34.547  1.00  0.00    -0.063 NA
HETATM    3  C   UNL     1      -6.699  -0.390 -34.019  1.00  0.00     0.091 A 
HETATM    4  C   UNL     1      -5.966   0.479 -33.309  1.00  0.00     0.108 A 
HETATM    5  C   UNL     1      -6.496   1.832 -33.120  1.00  0.00     0.261 A 
HETATM    6  O   UNL     1      -5.873   2.679 -32.491  1.00  0.00    -0.268 OA
HETATM    7  N   UNL     1      -7.708   2.056 -33.688  1.00  0.00    -0.154 N 
HETATM    8  H   UNL     1      -8.119   2.977 -33.586  1.00  0.00     0.187 HD
ENDROOT
BRANCH   1   9
HETATM    9  N   UNL     1      -9.630   1.420 -34.894  1.00  0.00    -0.017 N 
HETATM   10  H   UNL     1      -9.742   1.390 -35.895  1.00  0.00     0.203 HD
BRANCH   9  11
HETATM   11  C   UNL     1     -10.787   1.804 -34.238  1.00  0.00     0.742 A 
HETATM   12  N   UNL     1     -11.962   1.240 -34.552  1.00  0.00    -0.066 NA
HETATM   13  C   UNL     1     -13.056   1.643 -33.872  1.00  0.00     0.062 A 
HETATM   14  C   UNL     1     -14.338   0.968 -34.269  1.00  0.00     0.072 C 
HETATM   15  C   UNL     1     -13.009   2.618 -32.870  1.00  0.00     0.021 A 
HETATM   16  C   UNL     1     -11.740   3.160 -32.619  1.00  0.00     0.121 A 
HETATM   17  C   UNL     1     -14.133   3.062 -32.134  1.00  0.00     0.016 A 
HETATM   18  N   UNL     1     -10.653   2.747 -33.301  1.00  0.00    -0.059 NA
HETATM   19  C   UNL     1     -11.632   4.161 -31.635  1.00  0.00     0.098 A 
HETATM   20  C   UNL     1     -12.748   4.586 -30.899  1.00  0.00     0.039 A 
HETATM   21  C   UNL     1     -13.999   4.037 -31.152  1.00  0.00     0.004 A 
BRANCH  19  22
HETATM   22  O   UNL     1     -10.365   4.661 -31.422  1.00  0.00    -0.354 OA
HETATM   23  C   UNL     1      -9.673   4.190 -30.272  1.00  0.00     0.210 C 
ENDBRANCH  19  22
ENDBRANCH   9  11
ENDBRANCH   1   9
BRANCH   3  24
HETATM   24  C   UNL     1      -6.188  -1.769 -34.224  1.00  0.00    -0.006 A 
HETATM   25  C   UNL     1      -4.829  -2.050 -33.989  1.00  0.00     0.017 A 
HETATM   26  C   UNL     1      -4.321  -3.339 -34.170  1.00  0.00     0.043 A 
HETATM   27  C   UNL     1      -5.171  -4.358 -34.579  1.00  0.00     0.116 A 
HETATM   28  F   UNL     1      -4.686  -5.595 -34.754  1.00  0.00    -0.206 F 
HETATM   29  C   UNL     1      -6.520  -4.115 -34.803  1.00  0.00     0.043 A 
HETATM   30  C   UNL     1      -7.029  -2.826 -34.620  1.00  0.00     0.017 A 
ENDBRANCH   3  24
TORSDOF 4
ENDMDL
MODEL 5
REMARK VINA RESULT:      -9.2      4.327      8.280
REMARK  4 active torsions:
REMARK  status: ('A' for Active; 'I' for Inactive)
REMARK    1  A    between atoms: C_4  and  N_5 
REMARK    2  A    between atoms: N_5  and  C_6 
REMARK    3  A    between atoms: C_8  and  C_9 
REMARK    4  A    between atoms: C_23  and  O_24 
ROOT
HETATM    1  C   UNL     1      -7.799   1.409 -34.200  1.00  0.00     0.722 A 
HETATM    2  N   UNL     1      -7.494   0.162 -34.413  1.00  0.00    -0.063 NA
HETATM    3  C   UNL     1      -6.268  -0.299 -33.985  1.00  0.00     0.091 A 
HETATM    4  C   UNL     1      -5.377   0.458 -33.330  1.00  0.00     0.108 A 
HETATM    5  C   UNL     1      -5.714   1.864 -33.090  1.00  0.00     0.261 A 
HETATM    6  O   UNL     1      -4.941   2.615 -32.507  1.00  0.00    -0.268 OA
HETATM    7  N   UNL     1      -6.928   2.249 -33.560  1.00  0.00    -0.154 N 
HETATM    8  H   UNL     1      -7.209   3.213 -33.420  1.00  0.00     0.187 HD
ENDROOT
BRANCH   1   9
HETATM    9  N   UNL     1      -9.003   1.881 -34.615  1.00  0.00    -0.017 N 
HETATM   10  H   UNL     1      -9.202   1.867 -35.602  1.00  0.00     0.203 HD
BRANCH   9  11
HETATM   11  C   UNL     1     -10.038   2.418 -33.869  1.00  0.00     0.742 A 
HETATM   12  N   UNL     1      -9.822   3.477 -33.077  1.00  0.00    -0.066 NA
HETATM   13  C   UNL     1     -10.869   3.968 -32.380  1.00  0.00     0.062 A 
HETATM   14  C   UNL     1     -10.560   5.159 -31.517  1.00  0.00     0.072 C 
HETATM   15  C   UNL     1     -12.152   3.414 -32.451  1.00  0.00     0.021 A 
HETATM   16  C   UNL     1     -12.280   2.301 -33.295  1.00  0.00     0.121 A 
HETATM   17  C   UNL     1     -13.273   3.903 -31.740  1.00  0.00     0.016 A 
HETATM   18  N   UNL     1     -11.227   1.823 -33.989  1.00  0.00    -0.059 NA
HETATM   19  C   UNL     1     -13.543   1.688 -33.392  1.00  0.00     0.098 A 
HETATM   20  C   UNL     1     -14.653   2.187 -32.695  1.00  0.00     0.039 A 
HETATM   21  C   UNL     1     -14.516   3.294 -31.868  1.00  0.00     0.004 A 
BRANCH  19  22
HETATM   22  O   UNL     1     -13.620   0.599 -34.235  1.00  0.00    -0.354 OA
HETATM   23  C   UNL     1     -13.662  -0.684 -33.625  1.00  0.00     0.210 C 
ENDBRANCH  19  22
ENDBRANCH   9  11
ENDBRANCH   1   9
BRANCH   3  24
HETATM   24  C   UNL     1      -5.954  -1.728 -34.240  1.00  0.00    -0.006 A 
HETATM   25  C   UNL     1      -4.639  -2.195 -34.059  1.00  0.00     0.017 A 
HETATM   26  C   UNL     1      -4.316  -3.535 -34.286  1.00  0.00     0.043 A 
HETATM   27  C   UNL     1      -5.308  -4.420 -34.688  1.00  0.00     0.116 A 
HETATM   28  F   UNL     1      -4.999  -5.705 -34.908  1.00  0.00    -0.206 F 
HETATM   29  C   UNL     1      -6.618  -3.992 -34.860  1.00  0.00     0.043 A 
HETATM   30  C   UNL     1      -6.942  -2.651 -34.630  1.00  0.00     0.017 A 
ENDBRANCH   3  24
TORSDOF 4
ENDMDL
MODEL 6
REMARK VINA RESULT:      -9.2      3.671      8.977
REMARK  4 active torsions:
REMARK  status: ('A' for Active; 'I' for Inactive)
REMARK    1  A    between atoms: C_4  and  N_5 
REMARK    2  A    between atoms: N_5  and  C_6 
REMARK    3  A    between atoms: C_8  and  C_9 
REMARK    4  A    between atoms: C_23  and  O_24 
ROOT
HETATM    1  C   UNL     1      -3.458   2.845 -31.774  1.00  0.00     0.722 A 
HETATM    2  N   UNL     1      -2.618   3.633 -31.168  1.00  0.00    -0.063 NA
HETATM    3  C   UNL     1      -2.379   4.879 -31.706  1.00  0.00     0.091 A 
HETATM    4  C   UNL     1      -2.989   5.343 -32.807  1.00  0.00     0.108 A 
HETATM    5  C   UNL     1      -3.933   4.458 -33.494  1.00  0.00     0.261 A 
HETATM    6  O   UNL     1      -4.516   4.814 -34.511  1.00  0.00    -0.268 OA
HETATM    7  N   UNL     1      -4.098   3.240 -32.918  1.00  0.00    -0.154 N 
HETATM    8  H   UNL     1      -4.742   2.590 -33.356  1.00  0.00     0.187 HD
ENDROOT
BRANCH   1   9
HETATM    9  N   UNL     1      -3.706   1.612 -31.260  1.00  0.00    -0.017 N 
HETATM   10  H   UNL     1      -3.676   1.502 -30.259  1.00  0.00     0.203 HD
BRANCH   9  11
HETATM   11  C   UNL     1      -3.990   0.428 -31.919  1.00  0.00     0.742 A 
HETATM   12  N   UNL     1      -3.321  -0.693 -31.612  1.00  0.00    -0.066 NA
HETATM   13  C   UNL     1      -3.647  -1.823 -32.277  1.00  0.00     0.062 A 
HETATM   14  C   UNL     1      -2.865  -3.043 -31.881  1.00  0.00     0.072 C 
HETATM   15  C   UNL     1      -4.638  -1.862 -33.264  1.00  0.00     0.021 A 
HETATM   16  C   UNL     1      -5.273  -0.640 -33.526  1.00  0.00     0.121 A 
HETATM   17  C   UNL     1      -5.008  -3.026 -33.978  1.00  0.00     0.016 A 
HETATM   18  N   UNL     1      -4.943   0.481 -32.852  1.00  0.00    -0.059 NA
HETATM   19  C   UNL     1      -6.266  -0.612 -34.523  1.00  0.00     0.098 A 
HETATM   20  C   UNL     1      -6.638  -1.773 -35.217  1.00  0.00     0.039 A 
HETATM   21  C   UNL     1      -6.006  -2.980 -34.944  1.00  0.00     0.004 A 
BRANCH  19  22
HETATM   22  O   UNL     1      -6.864   0.612 -34.743  1.00  0.00    -0.354 OA
HETATM   23  C   UNL     1      -8.280   0.664 -34.627  1.00  0.00     0.210 C 
ENDBRANCH  19  22
ENDBRANCH   9  11
ENDBRANCH   1   9
BRANCH   3  24
HETATM   24  C   UNL     1      -1.420   5.755 -30.987  1.00  0.00    -0.006 A 
HETATM   25  C   UNL     1      -0.097   5.868 -31.452  1.00  0.00     0.017 A 
HETATM   26  C   UNL     1       0.826   6.688 -30.798  1.00  0.00     0.043 A 
HETATM   27  C   UNL     1       0.429   7.408 -29.679  1.00  0.00     0.116 A 
HETATM   28  F   UNL     1       1.313   8.194 -29.050  1.00  0.00    -0.206 F 
HETATM   29  C   UNL     1      -0.874   7.329 -29.206  1.00  0.00     0.043 A 
HETATM   30  C   UNL     1      -1.799   6.510 -29.862  1.00  0.00     0.017 A 
ENDBRANCH   3  24
TORSDOF 4
ENDMDL
MODEL 7
REMARK VINA RESULT:      -9.0      2.579      3.551
REMARK  4 active torsions:
REMARK  status: ('A' for Active; 'I' for Inactive)
REMARK    1  A    between atoms: C_4  and  N_5 
REMARK    2  A    between atoms: N_5  and  C_6 
REMARK    3  A    between atoms: C_8  and  C_9 
REMARK    4  A    between atoms: C_23  and  O_24 
ROOT
HETATM    1  C   UNL     1      -4.455   0.923 -32.405  1.00  0.00     0.722 A 
HETATM    2  N   UNL     1      -5.719   1.185 -32.572  1.00  0.00    -0.063 NA
HETATM    3  C   UNL     1      -6.505   0.255 -33.217  1.00  0.00     0.091 A 
HETATM    4  C   UNL     1      -6.049  -0.926 -33.657  1.00  0.00     0.108 A 
HETATM    5  C   UNL     1      -4.626  -1.225 -33.474  1.00  0.00     0.261 A 
HETATM    6  O   UNL     1      -4.141  -2.281 -33.862  1.00  0.00    -0.268 OA
HETATM    7  N   UNL     1      -3.913  -0.252 -32.852  1.00  0.00    -0.154 N 
HETATM    8  H   UNL     1      -2.923  -0.410 -32.701  1.00  0.00     0.187 HD
ENDROOT
BRANCH   1   9
HETATM    9  N   UNL     1      -3.664   1.828 -31.773  1.00  0.00    -0.017 N 
HETATM   10  H   UNL     1      -3.383   1.631 -30.826  1.00  0.00     0.203 HD
BRANCH   9  11
HETATM   11  C   UNL     1      -3.174   3.038 -32.235  1.00  0.00     0.742 A 
HETATM   12  N   UNL     1      -3.696   3.603 -33.334  1.00  0.00    -0.066 NA
HETATM   13  C   UNL     1      -3.189   4.789 -33.733  1.00  0.00     0.062 A 
HETATM   14  C   UNL     1      -3.822   5.369 -34.967  1.00  0.00     0.072 C 
HETATM   15  C   UNL     1      -2.151   5.436 -33.055  1.00  0.00     0.021 A 
HETATM   16  C   UNL     1      -1.661   4.765 -31.926  1.00  0.00     0.121 A 
HETATM   17  C   UNL     1      -1.599   6.680 -33.442  1.00  0.00     0.016 A 
HETATM   18  N   UNL     1      -2.178   3.583 -31.533  1.00  0.00    -0.059 NA
HETATM   19  C   UNL     1      -0.602   5.358 -31.213  1.00  0.00     0.098 A 
HETATM   20  C   UNL     1      -0.069   6.598 -31.594  1.00  0.00     0.039 A 
HETATM   21  C   UNL     1      -0.567   7.257 -32.710  1.00  0.00     0.004 A 
BRANCH  19  22
HETATM   22  O   UNL     1      -0.155   4.661 -30.109  1.00  0.00    -0.354 OA
HETATM   23  C   UNL     1       0.615   5.388 -29.160  1.00  0.00     0.210 C 
ENDBRANCH  19  22
ENDBRANCH   9  11
ENDBRANCH   1   9
BRANCH   3  24
HETATM   24  C   UNL     1      -7.944   0.584 -33.386  1.00  0.00    -0.006 A 
HETATM   25  C   UNL     1      -8.920  -0.247 -32.807  1.00  0.00     0.017 A 
HETATM   26  C   UNL     1     -10.281   0.040 -32.946  1.00  0.00     0.043 A 
HETATM   27  C   UNL     1     -10.673   1.165 -33.659  1.00  0.00     0.116 A 
HETATM   28  F   UNL     1     -11.977   1.441 -33.795  1.00  0.00    -0.206 F 
HETATM   29  C   UNL     1      -9.732   2.013 -34.229  1.00  0.00     0.043 A 
HETATM   30  C   UNL     1      -8.370   1.727 -34.088  1.00  0.00     0.017 A 
ENDBRANCH   3  24
TORSDOF 4
ENDMDL
MODEL 8
REMARK VINA RESULT:      -8.8      2.234      3.047
REMARK  4 active torsions:
REMARK  status: ('A' for Active; 'I' for Inactive)
REMARK    1  A    between atoms: C_4  and  N_5 
REMARK    2  A    between atoms: N_5  and  C_6 
REMARK    3  A    between atoms: C_8  and  C_9 
REMARK    4  A    between atoms: C_23  and  O_24 
ROOT
HETATM    1  C   UNL     1      -6.790   1.874 -33.892  1.00  0.00     0.722 A 
HETATM    2  N   UNL     1      -6.244   0.710 -34.094  1.00  0.00    -0.063 NA
HETATM    3  C   UNL     1      -7.006  -0.419 -33.885  1.00  0.00     0.091 A 
HETATM    4  C   UNL     1      -8.294  -0.388 -33.513  1.00  0.00     0.108 A 
HETATM    5  C   UNL     1      -8.912   0.920 -33.282  1.00  0.00     0.261 A 
HETATM    6  O   UNL     1     -10.081   1.020 -32.931  1.00  0.00    -0.268 OA
HETATM    7  N   UNL     1      -8.092   1.983 -33.487  1.00  0.00    -0.154 N 
HETATM    8  H   UNL     1      -8.472   2.912 -33.340  1.00  0.00     0.187 HD
ENDROOT
BRANCH   1   9
HETATM    9  N   UNL     1      -6.055   2.999 -34.093  1.00  0.00    -0.017 N 
HETATM   10  H   UNL     1      -5.888   3.292 -35.042  1.00  0.00     0.203 HD
BRANCH   9  11
HETATM   11  C   UNL     1      -5.458   3.834 -33.163  1.00  0.00     0.742 A 
HETATM   12  N   UNL     1      -5.885   3.842 -31.892  1.00  0.00    -0.066 NA
HETATM   13  C   UNL     1      -5.260   4.666 -31.023  1.00  0.00     0.062 A 
HETATM   14  C   UNL     1      -5.783   4.623 -29.615  1.00  0.00     0.072 C 
HETATM   15  C   UNL     1      -4.203   5.502 -31.399  1.00  0.00     0.021 A 
HETATM   16  C   UNL     1      -3.835   5.434 -32.750  1.00  0.00     0.121 A 
HETATM   17  C   UNL     1      -3.523   6.374 -30.517  1.00  0.00     0.016 A 
HETATM   18  N   UNL     1      -4.463   4.604 -33.608  1.00  0.00    -0.059 NA
HETATM   19  C   UNL     1      -2.790   6.267 -33.193  1.00  0.00     0.098 A 
HETATM   20  C   UNL     1      -2.110   7.119 -32.309  1.00  0.00     0.039 A 
HETATM   21  C   UNL     1      -2.480   7.172 -30.971  1.00  0.00     0.004 A 
BRANCH  19  22
HETATM   22  O   UNL     1      -2.462   6.163 -34.528  1.00  0.00    -0.354 OA
HETATM   23  C   UNL     1      -1.266   5.461 -34.843  1.00  0.00     0.210 C 
ENDBRANCH  19  22
ENDBRANCH   9  11
ENDBRANCH   1   9
BRANCH   3  24
HETATM   24  C   UNL     1      -6.355  -1.731 -34.129  1.00  0.00    -0.006 A 
HETATM   25  C   UNL     1      -4.977  -1.881 -33.886  1.00  0.00     0.017 A 
HETATM   26  C   UNL     1      -4.339  -3.105 -34.102  1.00  0.00     0.043 A 
HETATM   27  C   UNL     1      -5.076  -4.190 -34.556  1.00  0.00     0.116 A 
HETATM   28  F   UNL     1      -4.466  -5.364 -34.765  1.00  0.00    -0.206 F 
HETATM   29  C   UNL     1      -6.441  -4.078 -34.789  1.00  0.00     0.043 A 
HETATM   30  C   UNL     1      -7.080  -2.853 -34.570  1.00  0.00     0.017 A 
ENDBRANCH   3  24
TORSDOF 4
ENDMDL
MODEL 9
REMARK VINA RESULT:      -8.7      2.250      3.236
REMARK  4 active torsions:
REMARK  status: ('A' for Active; 'I' for Inactive)
REMARK    1  A    between atoms: C_4  and  N_5 
REMARK    2  A    between atoms: N_5  and  C_6 
REMARK    3  A    between atoms: C_8  and  C_9 
REMARK    4  A    between atoms: C_23  and  O_24 
ROOT
HETATM    1  C   UNL     1      -4.227   3.149 -32.111  1.00  0.00     0.722 A 
HETATM    2  N   UNL     1      -4.353   2.026 -32.756  1.00  0.00    -0.063 NA
HETATM    3  C   UNL     1      -5.344   1.150 -32.367  1.00  0.00     0.091 A 
HETATM    4  C   UNL     1      -6.211   1.402 -31.376  1.00  0.00     0.108 A 
HETATM    5  C   UNL     1      -6.071   2.665 -30.645  1.00  0.00     0.261 A 
HETATM    6  O   UNL     1      -6.824   2.953 -29.722  1.00  0.00    -0.268 OA
HETATM    7  N   UNL     1      -5.060   3.463 -31.072  1.00  0.00    -0.154 N 
HETATM    8  H   UNL     1      -4.921   4.349 -30.598  1.00  0.00     0.187 HD
ENDROOT
BRANCH   1   9
HETATM    9  N   UNL     1      -3.256   4.024 -32.480  1.00  0.00    -0.017 N 
HETATM   10  H   UNL     1      -3.096   4.166 -33.464  1.00  0.00     0.203 HD
BRANCH   9  11
HETATM   11  C   UNL     1      -2.403   4.773 -31.686  1.00  0.00     0.742 A 
HETATM   12  N   UNL     1      -1.102   4.459 -31.610  1.00  0.00    -0.066 NA
HETATM   13  C   UNL     1      -0.313   5.230 -30.831  1.00  0.00     0.062 A 
HETATM   14  C   UNL     1       1.135   4.828 -30.795  1.00  0.00     0.072 C 
HETATM   15  C   UNL     1      -0.799   6.324 -30.107  1.00  0.00     0.021 A 
HETATM   16  C   UNL     1      -2.174   6.567 -30.238  1.00  0.00     0.121 A 
HETATM   17  C   UNL     1      -0.003   7.155 -29.285  1.00  0.00     0.016 A 
HETATM   18  N   UNL     1      -2.952   5.793 -31.023  1.00  0.00    -0.059 NA
HETATM   19  C   UNL     1      -2.726   7.643 -29.517  1.00  0.00     0.098 A 
HETATM   20  C   UNL     1      -1.927   8.471 -28.716  1.00  0.00     0.039 A 
HETATM   21  C   UNL     1      -0.565   8.225 -28.599  1.00  0.00     0.004 A 
BRANCH  19  22
HETATM   22  O   UNL     1      -4.081   7.844 -29.680  1.00  0.00    -0.354 OA
HETATM   23  C   UNL     1      -4.875   7.852 -28.501  1.00  0.00     0.210 C 
ENDBRANCH  19  22
ENDBRANCH   9  11
ENDBRANCH   1   9
BRANCH   3  24
HETATM   24  C   UNL     1      -5.463  -0.120 -33.127  1.00  0.00    -0.006 A 
HETATM   25  C   UNL     1      -4.371  -1.004 -33.182  1.00  0.00     0.017 A 
HETATM   26  C   UNL     1      -4.456  -2.208 -33.886  1.00  0.00     0.043 A 
HETATM   27  C   UNL     1      -5.639  -2.539 -34.533  1.00  0.00     0.116 A 
HETATM   28  F   UNL     1      -5.723  -3.693 -35.210  1.00  0.00    -0.206 F 
HETATM   29  C   UNL     1      -6.741  -1.694 -34.483  1.00  0.00     0.043 A 
HETATM   30  C   UNL     1      -6.656  -0.491 -33.777  1.00  0.00     0.017 A 
ENDBRANCH   3  24
TORSDOF 4
ENDMDL
MODEL 10
REMARK VINA RESULT:      -8.6      2.055      2.602
REMARK  4 active torsions:
REMARK  status: ('A' for Active; 'I' for Inactive)
REMARK    1  A    between atoms: C_4  and  N_5 
REMARK    2  A    between atoms: N_5  and  C_6 
REMARK    3  A    between atoms: C_8  and  C_9 
REMARK    4  A    between atoms: C_23  and  O_24 
ROOT
HETATM    1  C   UNL     1      -3.877   0.642 -31.512  1.00  0.00     0.722 A 
HETATM    2  N   UNL     1      -4.608  -0.130 -32.262  1.00  0.00    -0.063 NA
HETATM    3  C   UNL     1      -4.080  -1.332 -32.682  1.00  0.00     0.091 A 
HETATM    4  C   UNL     1      -2.862  -1.770 -32.334  1.00  0.00     0.108 A 
HETATM    5  C   UNL     1      -2.034  -0.902 -31.492  1.00  0.00     0.261 A 
HETATM    6  O   UNL     1      -0.906  -1.237 -31.147  1.00  0.00    -0.268 OA
HETATM    7  N   UNL     1      -2.613   0.273 -31.138  1.00  0.00    -0.154 N 
HETATM    8  H   UNL     1      -2.080   0.909 -30.555  1.00  0.00     0.187 HD
ENDROOT
BRANCH   1   9
HETATM    9  N   UNL     1      -4.379   1.832 -31.089  1.00  0.00    -0.017 N 
HETATM   10  H   UNL     1      -5.092   1.818 -30.378  1.00  0.00     0.203 HD
BRANCH   9  11
HETATM   11  C   UNL     1      -4.067   3.114 -31.508  1.00  0.00     0.742 A 
HETATM   12  N   UNL     1      -4.985   3.861 -32.139  1.00  0.00    -0.066 NA
HETATM   13  C   UNL     1      -4.631   5.109 -32.515  1.00  0.00     0.062 A 
HETATM   14  C   UNL     1      -5.707   5.894 -33.210  1.00  0.00     0.072 C 
HETATM   15  C   UNL     1      -3.358   5.639 -32.278  1.00  0.00     0.021 A 
HETATM   16  C   UNL     1      -2.462   4.781 -31.624  1.00  0.00     0.121 A 
HETATM   17  C   UNL     1      -2.954   6.942 -32.653  1.00  0.00     0.016 A 
HETATM   18  N   UNL     1      -2.828   3.538 -31.249  1.00  0.00    -0.059 NA
HETATM   19  C   UNL     1      -1.159   5.252 -31.376  1.00  0.00     0.098 A 
HETATM   20  C   UNL     1      -0.770   6.550 -31.738  1.00  0.00     0.039 A 
HETATM   21  C   UNL     1      -1.668   7.393 -32.379  1.00  0.00     0.004 A 
BRANCH  19  22
HETATM   22  O   UNL     1      -0.315   4.373 -30.729  1.00  0.00    -0.354 OA
HETATM   23  C   UNL     1       1.051   4.754 -30.626  1.00  0.00     0.210 C 
ENDBRANCH  19  22
ENDBRANCH   9  11
ENDBRANCH   1   9
BRANCH   3  24
HETATM   24  C   UNL     1      -4.943  -2.191 -33.532  1.00  0.00    -0.006 A 
HETATM   25  C   UNL     1      -4.458  -3.431 -33.986  1.00  0.00     0.017 A 
HETATM   26  C   UNL     1      -5.249  -4.262 -34.784  1.00  0.00     0.043 A 
HETATM   27  C   UNL     1      -6.534  -3.862 -35.125  1.00  0.00     0.116 A 
HETATM   28  F   UNL     1      -7.293  -4.657 -35.891  1.00  0.00    -0.206 F 
HETATM   29  C   UNL     1      -7.046  -2.650 -34.678  1.00  0.00     0.043 A 
HETATM   30  C   UNL     1      -6.255  -1.820 -33.878  1.00  0.00     0.017 A 
ENDBRANCH   3  24
TORSDOF 4
ENDMDL
