MODEL 1
REMARK VINA RESULT:      -8.7      0.000      0.000
REMARK  8 active torsions:
REMARK  status: ('A' for Active; 'I' for Inactive)
REMARK    1  A    between atoms: C_3  and  C_4 
REMARK    2  A    between atoms: C_4  and  C_5 
REMARK       I    between atoms: C_5  and  N_6 
REMARK    3  A    between atoms: N_6  and  C_7 
REMARK    4  A    between atoms: C_14  and  N_15 
REMARK       I    between atoms: N_15  and  C_16 
REMARK    5  A    between atoms: C_16  and  C_17 
REMARK    6  A    between atoms: C_26  and  C_27 
REMARK    7  A    between atoms: C_27  and  O_28 
REMARK    8  A    between atoms: C_30  and  O_31 
ROOT
HETATM    1  C   UNL     1      -4.555  -2.938 -34.247  1.00  0.00     0.216 C 
HETATM    2  C   UNL     1      -5.552  -3.816 -34.866  1.00  0.00    -0.098 C 
HETATM    3  C   UNL     1      -6.361  -4.545 -35.374  1.00  0.00     0.014 C 
ENDROOT
BRANCH   1   4
HETATM    4  N   UNL     1      -5.185  -1.790 -33.650  1.00  0.00    -0.351 N 
HETATM    5  C   UNL     1      -4.754  -1.245 -32.472  1.00  0.00     0.219 C 
HETATM    6  O   UNL     1      -3.787  -1.660 -31.839  1.00  0.00    -0.274 OA
HETATM    7  H   UNL     1      -6.118  -1.550 -33.993  1.00  0.00     0.163 HD
BRANCH   5   8
HETATM    8  C   UNL     1      -5.542  -0.034 -31.999  1.00  0.00     0.114 C 
BRANCH   8   9
HETATM    9  C   UNL     1      -5.832   0.958 -33.145  1.00  0.00     0.056 C 
HETATM   10  C   UNL     1      -7.308   0.958 -33.797  1.00  0.00    -0.030 C 
HETATM   11  C   UNL     1      -7.058   0.981 -35.346  1.00  0.00     0.016 C 
HETATM   12  C   UNL     1      -8.212   2.232 -33.462  1.00  0.00     0.012 C 
HETATM   13  C   UNL     1      -8.130  -0.337 -33.552  1.00  0.00     0.013 C 
HETATM   14  C   UNL     1      -7.448   3.561 -33.694  1.00  0.00     0.055 C 
HETATM   15  C   UNL     1      -9.027   2.166 -32.102  1.00  0.00     0.008 C 
HETATM   16  C   UNL     1      -6.115   3.505 -33.050  1.00  0.00     0.012 A 
HETATM   17  C   UNL     1      -5.397   2.362 -32.776  1.00  0.00     0.056 A 
HETATM   18  S   UNL     1      -5.271   4.889 -32.527  1.00  0.00    -0.055 SA
HETATM   19  N   UNL     1      -4.226   2.583 -32.071  1.00  0.00    -0.227 NA
HETATM   20  C   UNL     1      -4.066   3.868 -31.881  1.00  0.00     0.174 A 
HETATM   21  C   UNL     1     -10.070   3.321 -32.063  1.00  0.00     0.020 C 
HETATM   22  C   UNL     1      -9.808   0.822 -32.046  1.00  0.00     0.128 C 
HETATM   23  C   UNL     1      -8.896  -0.388 -32.231  1.00  0.00     0.033 C 
BRANCH  20  24
HETATM   24  N   UNL     1      -3.090   4.532 -31.203  1.00  0.00    -0.301 N 
HETATM   25  C   UNL     1      -1.892   4.891 -31.778  1.00  0.00     0.264 C 
HETATM   26  O   UNL     1      -1.598   4.690 -32.954  1.00  0.00    -0.267 OA
HETATM   27  H   UNL     1      -3.239   4.698 -30.220  1.00  0.00     0.171 HD
BRANCH  25  28
HETATM   28  C   UNL     1      -0.948   5.520 -30.852  1.00  0.00     0.072 A 
HETATM   29  S   UNL     1      -0.931   7.213 -30.561  1.00  0.00    -0.097 SA
HETATM   30  C   UNL     1       0.342   7.080 -29.430  1.00  0.00     0.050 A 
HETATM   31  C   UNL     1       0.759   5.777 -29.273  1.00  0.00     0.009 A 
HETATM   32  C   UNL     1       0.017   4.880 -30.095  1.00  0.00     0.025 A 
ENDBRANCH  25  28
ENDBRANCH  20  24
BRANCH  15  33
HETATM   33  C   UNL     1      -8.147   2.317 -30.838  1.00  0.00     0.176 C 
BRANCH  33  34
HETATM   34  O   UNL     1      -8.443   3.532 -30.156  1.00  0.00    -0.400 OA
HETATM   35  H   UNL     1      -7.750   4.171 -30.399  1.00  0.00     0.209 HD
ENDBRANCH  33  34
ENDBRANCH  15  33
BRANCH  22  36
HETATM   36  O   UNL     1     -10.799   0.770 -33.079  1.00  0.00    -0.395 OA
HETATM   37  H   UNL     1     -11.484   1.422 -32.850  1.00  0.00     0.210 HD
ENDBRANCH  22  36
ENDBRANCH   8   9
ENDBRANCH   5   8
ENDBRANCH   1   4
TORSDOF 8
ENDMDL
MODEL 2
REMARK VINA RESULT:      -8.3      2.695      7.380
REMARK  8 active torsions:
REMARK  status: ('A' for Active; 'I' for Inactive)
REMARK    1  A    between atoms: C_3  and  C_4 
REMARK    2  A    between atoms: C_4  and  C_5 
REMARK       I    between atoms: C_5  and  N_6 
REMARK    3  A    between atoms: N_6  and  C_7 
REMARK    4  A    between atoms: C_14  and  N_15 
REMARK       I    between atoms: N_15  and  C_16 
REMARK    5  A    between atoms: C_16  and  C_17 
REMARK    6  A    between atoms: C_26  and  C_27 
REMARK    7  A    between atoms: C_27  and  O_28 
REMARK    8  A    between atoms: C_30  and  O_31 
ROOT
HETATM    1  C   UNL     1      -1.862   5.300 -33.825  1.00  0.00     0.216 C 
HETATM    2  C   UNL     1      -1.022   5.468 -32.634  1.00  0.00    -0.098 C 
HETATM    3  C   UNL     1      -0.326   5.612 -31.667  1.00  0.00     0.014 C 
ENDROOT
BRANCH   1   4
HETATM    4  N   UNL     1      -3.179   4.848 -33.461  1.00  0.00    -0.351 N 
HETATM    5  C   UNL     1      -4.234   4.883 -34.331  1.00  0.00     0.219 C 
HETATM    6  O   UNL     1      -4.150   5.271 -35.493  1.00  0.00    -0.274 OA
HETATM    7  H   UNL     1      -3.366   4.741 -32.462  1.00  0.00     0.163 HD
BRANCH   5   8
HETATM    8  C   UNL     1      -5.547   4.362 -33.769  1.00  0.00     0.114 C 
BRANCH   8   9
HETATM    9  C   UNL     1      -5.455   4.059 -32.258  1.00  0.00     0.056 C 
HETATM   10  C   UNL     1      -6.242   5.030 -31.238  1.00  0.00    -0.030 C 
HETATM   11  C   UNL     1      -5.207   5.330 -30.097  1.00  0.00     0.016 C 
HETATM   12  C   UNL     1      -7.527   4.395 -30.532  1.00  0.00     0.012 C 
HETATM   13  C   UNL     1      -6.606   6.425 -31.815  1.00  0.00     0.013 C 
HETATM   14  C   UNL     1      -7.226   2.999 -29.928  1.00  0.00     0.055 C 
HETATM   15  C   UNL     1      -8.883   4.482 -31.351  1.00  0.00     0.008 C 
HETATM   16  C   UNL     1      -6.528   2.151 -30.921  1.00  0.00     0.012 A 
HETATM   17  C   UNL     1      -5.762   2.602 -31.974  1.00  0.00     0.056 A 
HETATM   18  S   UNL     1      -6.595   0.449 -30.909  1.00  0.00    -0.055 SA
HETATM   19  N   UNL     1      -5.310   1.601 -32.817  1.00  0.00    -0.227 NA
HETATM   20  C   UNL     1      -5.694   0.437 -32.358  1.00  0.00     0.174 A 
HETATM   21  C   UNL     1     -10.077   4.103 -30.426  1.00  0.00     0.020 C 
HETATM   22  C   UNL     1      -9.097   5.951 -31.819  1.00  0.00     0.128 C 
HETATM   23  C   UNL     1      -7.909   6.486 -32.612  1.00  0.00     0.033 C 
BRANCH  20  24
HETATM   24  N   UNL     1      -5.517  -0.806 -32.884  1.00  0.00    -0.301 N 
HETATM   25  C   UNL     1      -6.129  -1.222 -34.044  1.00  0.00     0.264 C 
HETATM   26  O   UNL     1      -6.856  -0.515 -34.738  1.00  0.00    -0.267 OA
HETATM   27  H   UNL     1      -4.966  -1.461 -32.350  1.00  0.00     0.171 HD
BRANCH  25  28
HETATM   28  C   UNL     1      -5.874  -2.622 -34.387  1.00  0.00     0.072 A 
HETATM   29  S   UNL     1      -4.362  -3.384 -34.092  1.00  0.00    -0.097 SA
HETATM   30  C   UNL     1      -4.911  -4.879 -34.710  1.00  0.00     0.050 A 
HETATM   31  C   UNL     1      -6.216  -4.810 -35.143  1.00  0.00     0.009 A 
HETATM   32  C   UNL     1      -6.769  -3.510 -34.959  1.00  0.00     0.025 A 
ENDBRANCH  25  28
ENDBRANCH  20  24
BRANCH  15  33
HETATM   33  C   UNL     1      -8.941   3.529 -32.568  1.00  0.00     0.176 C 
BRANCH  33  34
HETATM   34  O   UNL     1      -9.819   2.435 -32.314  1.00  0.00    -0.400 OA
HETATM   35  H   UNL     1      -9.811   2.281 -31.353  1.00  0.00     0.209 HD
ENDBRANCH  33  34
ENDBRANCH  15  33
BRANCH  22  36
HETATM   36  O   UNL     1      -9.282   6.817 -30.693  1.00  0.00    -0.395 OA
HETATM   37  H   UNL     1      -9.967   7.463 -30.940  1.00  0.00     0.210 HD
ENDBRANCH  22  36
ENDBRANCH   8   9
ENDBRANCH   5   8
ENDBRANCH   1   4
TORSDOF 8
ENDMDL
MODEL 3
REMARK VINA RESULT:      -7.9      3.543      7.825
REMARK  8 active torsions:
REMARK  status: ('A' for Active; 'I' for Inactive)
REMARK    1  A    between atoms: C_3  and  C_4 
REMARK    2  A    between atoms: C_4  and  C_5 
REMARK       I    between atoms: C_5  and  N_6 
REMARK    3  A    between atoms: N_6  and  C_7 
REMARK    4  A    between atoms: C_14  and  N_15 
REMARK       I    between atoms: N_15  and  C_16 
REMARK    5  A    between atoms: C_16  and  C_17 
REMARK    6  A    between atoms: C_26  and  C_27 
REMARK    7  A    between atoms: C_27  and  O_28 
REMARK    8  A    between atoms: C_30  and  O_31 
ROOT
HETATM    1  C   UNL     1      -7.037  -1.750 -33.988  1.00  0.00     0.216 C 
HETATM    2  C   UNL     1      -5.998  -2.614 -34.557  1.00  0.00    -0.098 C 
HETATM    3  C   UNL     1      -5.156  -3.329 -35.027  1.00  0.00     0.014 C 
ENDROOT
BRANCH   1   4
HETATM    4  N   UNL     1      -6.523  -0.430 -33.736  1.00  0.00    -0.351 N 
HETATM    5  C   UNL     1      -6.673   0.599 -34.625  1.00  0.00     0.219 C 
HETATM    6  O   UNL     1      -7.274   0.500 -35.691  1.00  0.00    -0.274 OA
HETATM    7  H   UNL     1      -5.822  -0.345 -32.997  1.00  0.00     0.163 HD
BRANCH   5   8
HETATM    8  C   UNL     1      -6.065   1.921 -34.186  1.00  0.00     0.114 C 
BRANCH   8   9
HETATM    9  C   UNL     1      -6.152   2.124 -32.659  1.00  0.00     0.056 C 
HETATM   10  C   UNL     1      -5.126   3.160 -31.968  1.00  0.00    -0.030 C 
HETATM   11  C   UNL     1      -4.585   2.400 -30.705  1.00  0.00     0.016 C 
HETATM   12  C   UNL     1      -5.769   4.523 -31.439  1.00  0.00     0.012 C 
HETATM   13  C   UNL     1      -3.857   3.478 -32.806  1.00  0.00     0.013 C 
HETATM   14  C   UNL     1      -7.040   4.271 -30.586  1.00  0.00     0.055 C 
HETATM   15  C   UNL     1      -5.912   5.684 -32.510  1.00  0.00     0.008 C 
HETATM   16  C   UNL     1      -7.949   3.335 -31.286  1.00  0.00     0.012 A 
HETATM   17  C   UNL     1      -7.579   2.397 -32.225  1.00  0.00     0.056 A 
HETATM   18  S   UNL     1      -9.633   3.304 -31.033  1.00  0.00    -0.055 SA
HETATM   19  N   UNL     1      -8.641   1.724 -32.804  1.00  0.00    -0.227 NA
HETATM   20  C   UNL     1      -9.761   2.125 -32.261  1.00  0.00     0.174 A 
HETATM   21  C   UNL     1      -6.266   7.018 -31.789  1.00  0.00     0.020 C 
HETATM   22  C   UNL     1      -4.544   5.883 -33.224  1.00  0.00     0.128 C 
HETATM   23  C   UNL     1      -4.018   4.591 -33.842  1.00  0.00     0.033 C 
BRANCH  20  24
HETATM   24  N   UNL     1     -11.044   1.772 -32.550  1.00  0.00    -0.301 N 
HETATM   25  C   UNL     1     -11.811   2.435 -33.480  1.00  0.00     0.264 C 
HETATM   26  O   UNL     1     -11.414   3.374 -34.165  1.00  0.00    -0.267 OA
HETATM   27  H   UNL     1     -11.457   1.034 -32.000  1.00  0.00     0.171 HD
BRANCH  25  28
HETATM   28  C   UNL     1     -13.189   1.949 -33.576  1.00  0.00     0.072 A 
HETATM   29  S   UNL     1     -14.461   2.586 -32.612  1.00  0.00    -0.097 SA
HETATM   30  C   UNL     1     -15.621   1.563 -33.335  1.00  0.00     0.050 A 
HETATM   31  C   UNL     1     -15.062   0.742 -34.289  1.00  0.00     0.009 A 
HETATM   32  C   UNL     1     -13.661   0.963 -34.425  1.00  0.00     0.025 A 
ENDBRANCH  25  28
ENDBRANCH  20  24
BRANCH  15  33
HETATM   33  C   UNL     1      -7.022   5.436 -33.558  1.00  0.00     0.176 C 
BRANCH  33  34
HETATM   34  O   UNL     1      -8.161   6.249 -33.294  1.00  0.00    -0.400 OA
HETATM   35  H   UNL     1      -8.872   5.944 -33.885  1.00  0.00     0.209 HD
ENDBRANCH  33  34
ENDBRANCH  15  33
BRANCH  22  36
HETATM   36  O   UNL     1      -3.553   6.346 -32.298  1.00  0.00    -0.395 OA
HETATM   37  H   UNL     1      -3.989   6.429 -31.433  1.00  0.00     0.210 HD
ENDBRANCH  22  36
ENDBRANCH   8   9
ENDBRANCH   5   8
ENDBRANCH   1   4
TORSDOF 8
ENDMDL
MODEL 4
REMARK VINA RESULT:      -7.8      3.808      6.686
REMARK  8 active torsions:
REMARK  status: ('A' for Active; 'I' for Inactive)
REMARK    1  A    between atoms: C_3  and  C_4 
REMARK    2  A    between atoms: C_4  and  C_5 
REMARK       I    between atoms: C_5  and  N_6 
REMARK    3  A    between atoms: N_6  and  C_7 
REMARK    4  A    between atoms: C_14  and  N_15 
REMARK       I    between atoms: N_15  and  C_16 
REMARK    5  A    between atoms: C_16  and  C_17 
REMARK    6  A    between atoms: C_26  and  C_27 
REMARK    7  A    between atoms: C_27  and  O_28 
REMARK    8  A    between atoms: C_30  and  O_31 
ROOT
HETATM    1  C   UNL     1     -10.742   8.812 -35.927  1.00  0.00     0.216 C 
HETATM    2  C   UNL     1     -10.203   9.242 -37.222  1.00  0.00    -0.098 C 
HETATM    3  C   UNL     1      -9.766   9.606 -38.279  1.00  0.00     0.014 C 
ENDROOT
BRANCH   1   4
HETATM    4  N   UNL     1     -10.196   7.536 -35.546  1.00  0.00    -0.351 N 
HETATM    5  C   UNL     1     -10.966   6.410 -35.438  1.00  0.00     0.219 C 
HETATM    6  O   UNL     1     -12.170   6.379 -35.679  1.00  0.00    -0.274 OA
HETATM    7  H   UNL     1      -9.272   7.546 -35.109  1.00  0.00     0.163 HD
BRANCH   5   8
HETATM    8  C   UNL     1     -10.214   5.155 -35.025  1.00  0.00     0.114 C 
BRANCH   8   9
HETATM    9  C   UNL     1     -10.234   4.940 -33.497  1.00  0.00     0.056 C 
HETATM   10  C   UNL     1     -11.253   3.844 -32.896  1.00  0.00    -0.030 C 
HETATM   11  C   UNL     1     -11.931   4.559 -31.673  1.00  0.00     0.016 C 
HETATM   12  C   UNL     1     -10.579   2.511 -32.327  1.00  0.00     0.012 C 
HETATM   13  C   UNL     1     -12.434   3.466 -33.832  1.00  0.00     0.013 C 
HETATM   14  C   UNL     1      -9.394   2.822 -31.376  1.00  0.00     0.055 C 
HETATM   15  C   UNL     1     -10.291   1.371 -33.392  1.00  0.00     0.008 C 
HETATM   16  C   UNL     1      -8.485   3.813 -31.997  1.00  0.00     0.012 A 
HETATM   17  C   UNL     1      -8.832   4.740 -32.955  1.00  0.00     0.056 A 
HETATM   18  S   UNL     1      -6.830   3.932 -31.613  1.00  0.00    -0.055 SA
HETATM   19  N   UNL     1      -7.767   5.476 -33.445  1.00  0.00    -0.227 NA
HETATM   20  C   UNL     1      -6.672   5.129 -32.819  1.00  0.00     0.174 A 
HETATM   21  C   UNL     1      -9.922   0.050 -32.655  1.00  0.00     0.020 C 
HETATM   22  C   UNL     1     -11.587   1.107 -34.212  1.00  0.00     0.128 C 
HETATM   23  C   UNL     1     -12.132   2.376 -34.860  1.00  0.00     0.033 C 
BRANCH  20  24
HETATM   24  N   UNL     1      -5.392   5.554 -33.005  1.00  0.00    -0.301 N 
HETATM   25  C   UNL     1      -4.637   5.199 -34.099  1.00  0.00     0.264 C 
HETATM   26  O   UNL     1      -5.044   4.505 -35.028  1.00  0.00    -0.267 OA
HETATM   27  H   UNL     1      -4.971   6.096 -32.265  1.00  0.00     0.171 HD
BRANCH  25  28
HETATM   28  C   UNL     1      -3.259   5.693 -34.062  1.00  0.00     0.072 A 
HETATM   29  S   UNL     1      -2.746   6.915 -32.969  1.00  0.00    -0.097 SA
HETATM   30  C   UNL     1      -1.138   6.854 -33.540  1.00  0.00     0.050 A 
HETATM   31  C   UNL     1      -0.983   5.929 -34.548  1.00  0.00     0.009 A 
HETATM   32  C   UNL     1      -2.206   5.263 -34.850  1.00  0.00     0.025 A 
ENDBRANCH  25  28
ENDBRANCH  20  24
BRANCH  15  33
HETATM   33  C   UNL     1      -9.118   1.691 -34.349  1.00  0.00     0.176 C 
BRANCH  33  34
HETATM   34  O   UNL     1      -7.965   0.924 -34.013  1.00  0.00    -0.400 OA
HETATM   35  H   UNL     1      -7.248   1.213 -34.606  1.00  0.00     0.209 HD
ENDBRANCH  33  34
ENDBRANCH  15  33
BRANCH  22  36
HETATM   36  O   UNL     1     -12.619   0.581 -33.370  1.00  0.00    -0.395 OA
HETATM   37  H   UNL     1     -13.102   1.341 -33.003  1.00  0.00     0.210 HD
ENDBRANCH  22  36
ENDBRANCH   8   9
ENDBRANCH   5   8
ENDBRANCH   1   4
TORSDOF 8
ENDMDL
MODEL 5
REMARK VINA RESULT:      -7.7      2.971      7.270
REMARK  8 active torsions:
REMARK  status: ('A' for Active; 'I' for Inactive)
REMARK    1  A    between atoms: C_3  and  C_4 
REMARK    2  A    between atoms: C_4  and  C_5 
REMARK       I    between atoms: C_5  and  N_6 
REMARK    3  A    between atoms: N_6  and  C_7 
REMARK    4  A    between atoms: C_14  and  N_15 
REMARK       I    between atoms: N_15  and  C_16 
REMARK    5  A    between atoms: C_16  and  C_17 
REMARK    6  A    between atoms: C_26  and  C_27 
REMARK    7  A    between atoms: C_27  and  O_28 
REMARK    8  A    between atoms: C_30  and  O_31 
ROOT
HETATM    1  C   UNL     1      -2.912   3.901 -32.841  1.00  0.00     0.216 C 
HETATM    2  C   UNL     1      -2.519   4.909 -31.850  1.00  0.00    -0.098 C 
HETATM    3  C   UNL     1      -2.186   5.734 -31.044  1.00  0.00     0.014 C 
ENDROOT
BRANCH   1   4
HETATM    4  N   UNL     1      -4.342   3.862 -32.990  1.00  0.00    -0.351 N 
HETATM    5  C   UNL     1      -5.002   4.595 -33.938  1.00  0.00     0.219 C 
HETATM    6  O   UNL     1      -4.442   5.322 -34.754  1.00  0.00    -0.274 OA
HETATM    7  H   UNL     1      -4.874   3.474 -32.208  1.00  0.00     0.163 HD
BRANCH   5   8
HETATM    8  C   UNL     1      -6.513   4.424 -33.946  1.00  0.00     0.114 C 
BRANCH   8   9
HETATM    9  C   UNL     1      -7.071   4.106 -32.542  1.00  0.00     0.056 C 
HETATM   10  C   UNL     1      -8.306   4.989 -31.996  1.00  0.00    -0.030 C 
HETATM   11  C   UNL     1      -7.908   5.360 -30.524  1.00  0.00     0.016 C 
HETATM   12  C   UNL     1      -9.712   4.235 -31.913  1.00  0.00     0.012 C 
HETATM   13  C   UNL     1      -8.495   6.357 -32.707  1.00  0.00     0.013 C 
HETATM   14  C   UNL     1      -9.591   2.860 -31.205  1.00  0.00     0.055 C 
HETATM   15  C   UNL     1     -10.570   4.218 -33.247  1.00  0.00     0.008 C 
HETATM   16  C   UNL     1      -8.458   2.092 -31.769  1.00  0.00     0.012 A 
HETATM   17  C   UNL     1      -7.347   2.623 -32.387  1.00  0.00     0.056 A 
HETATM   18  S   UNL     1      -8.380   0.390 -31.747  1.00  0.00    -0.055 SA
HETATM   19  N   UNL     1      -6.488   1.679 -32.921  1.00  0.00    -0.227 NA
HETATM   20  C   UNL     1      -6.935   0.479 -32.651  1.00  0.00     0.174 A 
HETATM   21  C   UNL     1     -12.012   3.723 -32.933  1.00  0.00     0.020 C 
HETATM   22  C   UNL     1     -10.679   5.670 -33.796  1.00  0.00     0.128 C 
HETATM   23  C   UNL     1      -9.313   6.318 -33.998  1.00  0.00     0.033 C 
BRANCH  20  24
HETATM   24  N   UNL     1      -6.441  -0.736 -33.015  1.00  0.00    -0.301 N 
HETATM   25  C   UNL     1      -6.526  -1.224 -34.299  1.00  0.00     0.264 C 
HETATM   26  O   UNL     1      -7.012  -0.609 -35.245  1.00  0.00    -0.267 OA
HETATM   27  H   UNL     1      -6.061  -1.320 -32.286  1.00  0.00     0.171 HD
BRANCH  25  28
HETATM   28  C   UNL     1      -6.010  -2.585 -34.458  1.00  0.00     0.072 A 
HETATM   29  S   UNL     1      -4.393  -3.011 -34.064  1.00  0.00    -0.097 SA
HETATM   30  C   UNL     1      -4.643  -4.647 -34.485  1.00  0.00     0.050 A 
HETATM   31  C   UNL     1      -5.927  -4.876 -34.925  1.00  0.00     0.009 A 
HETATM   32  C   UNL     1      -6.713  -3.687 -34.912  1.00  0.00     0.025 A 
ENDBRANCH  25  28
ENDBRANCH  20  24
BRANCH  15  33
HETATM   33  C   UNL     1     -10.006   3.282 -34.342  1.00  0.00     0.176 C 
BRANCH  33  34
HETATM   34  O   UNL     1     -11.060   2.648 -35.061  1.00  0.00    -0.400 OA
HETATM   35  H   UNL     1     -11.872   3.154 -34.880  1.00  0.00     0.209 HD
ENDBRANCH  33  34
ENDBRANCH  15  33
BRANCH  22  36
HETATM   36  O   UNL     1     -11.414   6.499 -32.887  1.00  0.00    -0.395 OA
HETATM   37  H   UNL     1     -12.124   6.923 -33.399  1.00  0.00     0.210 HD
ENDBRANCH  22  36
ENDBRANCH   8   9
ENDBRANCH   5   8
ENDBRANCH   1   4
TORSDOF 8
ENDMDL
MODEL 6
REMARK VINA RESULT:      -7.4      3.623      7.555
REMARK  8 active torsions:
REMARK  status: ('A' for Active; 'I' for Inactive)
REMARK    1  A    between atoms: C_3  and  C_4 
REMARK    2  A    between atoms: C_4  and  C_5 
REMARK       I    between atoms: C_5  and  N_6 
REMARK    3  A    between atoms: N_6  and  C_7 
REMARK    4  A    between atoms: C_14  and  N_15 
REMARK       I    between atoms: N_15  and  C_16 
REMARK    5  A    between atoms: C_16  and  C_17 
REMARK    6  A    between atoms: C_26  and  C_27 
REMARK    7  A    between atoms: C_27  and  O_28 
REMARK    8  A    between atoms: C_30  and  O_31 
ROOT
HETATM    1  C   UNL     1      -6.630  -1.343 -34.025  1.00  0.00     0.216 C 
HETATM    2  C   UNL     1      -5.537  -2.248 -34.393  1.00  0.00    -0.098 C 
HETATM    3  C   UNL     1      -4.651  -2.998 -34.699  1.00  0.00     0.014 C 
ENDROOT
BRANCH   1   4
HETATM    4  N   UNL     1      -6.145   0.002 -33.861  1.00  0.00    -0.351 N 
HETATM    5  C   UNL     1      -6.843   1.094 -34.302  1.00  0.00     0.219 C 
HETATM    6  O   UNL     1      -7.942   1.029 -34.846  1.00  0.00    -0.274 OA
HETATM    7  H   UNL     1      -5.153   0.108 -33.638  1.00  0.00     0.163 HD
BRANCH   5   8
HETATM    8  C   UNL     1      -6.174   2.433 -34.038  1.00  0.00     0.114 C 
BRANCH   8   9
HETATM    9  C   UNL     1      -6.553   3.012 -32.658  1.00  0.00     0.056 C 
HETATM   10  C   UNL     1      -5.394   3.143 -31.543  1.00  0.00    -0.030 C 
HETATM   11  C   UNL     1      -6.041   2.575 -30.230  1.00  0.00     0.016 C 
HETATM   12  C   UNL     1      -4.919   4.631 -31.210  1.00  0.00     0.012 C 
HETATM   13  C   UNL     1      -4.150   2.246 -31.786  1.00  0.00     0.013 C 
HETATM   14  C   UNL     1      -6.120   5.578 -30.949  1.00  0.00     0.055 C 
HETATM   15  C   UNL     1      -3.799   5.231 -32.160  1.00  0.00     0.008 C 
HETATM   16  C   UNL     1      -7.133   5.427 -32.019  1.00  0.00     0.012 A 
HETATM   17  C   UNL     1      -7.322   4.310 -32.803  1.00  0.00     0.056 A 
HETATM   18  S   UNL     1      -8.223   6.662 -32.454  1.00  0.00    -0.055 SA
HETATM   19  N   UNL     1      -8.265   4.472 -33.804  1.00  0.00    -0.227 NA
HETATM   20  C   UNL     1      -8.793   5.666 -33.718  1.00  0.00     0.174 A 
HETATM   21  C   UNL     1      -3.237   6.543 -31.539  1.00  0.00     0.020 C 
HETATM   22  C   UNL     1      -2.625   4.215 -32.260  1.00  0.00     0.128 C 
HETATM   23  C   UNL     1      -3.088   2.835 -32.715  1.00  0.00     0.033 C 
BRANCH  20  24
HETATM   24  N   UNL     1      -9.718   6.268 -34.515  1.00  0.00    -0.301 N 
HETATM   25  C   UNL     1     -11.072   6.069 -34.371  1.00  0.00     0.264 C 
HETATM   26  O   UNL     1     -11.583   5.372 -33.498  1.00  0.00    -0.267 OA
HETATM   27  H   UNL     1      -9.376   6.825 -35.283  1.00  0.00     0.171 HD
BRANCH  25  28
HETATM   28  C   UNL     1     -11.887   6.741 -35.385  1.00  0.00     0.072 A 
HETATM   29  S   UNL     1     -11.372   8.173 -36.183  1.00  0.00    -0.097 SA
HETATM   30  C   UNL     1     -12.787   8.239 -37.137  1.00  0.00     0.050 A 
HETATM   31  C   UNL     1     -13.646   7.200 -36.857  1.00  0.00     0.009 A 
HETATM   32  C   UNL     1     -13.129   6.339 -35.846  1.00  0.00     0.025 A 
ENDBRANCH  25  28
ENDBRANCH  20  24
BRANCH  15  33
HETATM   33  C   UNL     1      -4.307   5.589 -33.577  1.00  0.00     0.176 C 
BRANCH  33  34
HETATM   34  O   UNL     1      -3.279   6.214 -34.342  1.00  0.00    -0.400 OA
HETATM   35  H   UNL     1      -3.027   7.027 -33.868  1.00  0.00     0.209 HD
ENDBRANCH  33  34
ENDBRANCH  15  33
BRANCH  22  36
HETATM   36  O   UNL     1      -1.989   4.053 -30.987  1.00  0.00    -0.395 OA
HETATM   37  H   UNL     1      -1.142   3.603 -31.146  1.00  0.00     0.210 HD
ENDBRANCH  22  36
ENDBRANCH   8   9
ENDBRANCH   5   8
ENDBRANCH   1   4
TORSDOF 8
ENDMDL
MODEL 7
REMARK VINA RESULT:      -7.4      3.583      7.302
REMARK  8 active torsions:
REMARK  status: ('A' for Active; 'I' for Inactive)
REMARK    1  A    between atoms: C_3  and  C_4 
REMARK    2  A    between atoms: C_4  and  C_5 
REMARK       I    between atoms: C_5  and  N_6 
REMARK    3  A    between atoms: N_6  and  C_7 
REMARK    4  A    between atoms: C_14  and  N_15 
REMARK       I    between atoms: N_15  and  C_16 
REMARK    5  A    between atoms: C_16  and  C_17 
REMARK    6  A    between atoms: C_26  and  C_27 
REMARK    7  A    between atoms: C_27  and  O_28 
REMARK    8  A    between atoms: C_30  and  O_31 
ROOT
HETATM    1  C   UNL     1      -6.815  -1.880 -34.598  1.00  0.00     0.216 C 
HETATM    2  C   UNL     1      -5.698  -2.830 -34.570  1.00  0.00    -0.098 C 
HETATM    3  C   UNL     1      -4.790  -3.615 -34.554  1.00  0.00     0.014 C 
ENDROOT
BRANCH   1   4
HETATM    4  N   UNL     1      -6.373  -0.560 -34.232  1.00  0.00    -0.351 N 
HETATM    5  C   UNL     1      -7.137   0.555 -34.441  1.00  0.00     0.219 C 
HETATM    6  O   UNL     1      -8.265   0.531 -34.928  1.00  0.00    -0.274 OA
HETATM    7  H   UNL     1      -5.373  -0.446 -34.049  1.00  0.00     0.163 HD
BRANCH   5   8
HETATM    8  C   UNL     1      -6.505   1.861 -33.989  1.00  0.00     0.114 C 
BRANCH   8   9
HETATM    9  C   UNL     1      -6.841   2.193 -32.519  1.00  0.00     0.056 C 
HETATM   10  C   UNL     1      -5.621   2.354 -31.477  1.00  0.00    -0.030 C 
HETATM   11  C   UNL     1      -6.063   1.530 -30.216  1.00  0.00     0.016 C 
HETATM   12  C   UNL     1      -5.336   3.843 -30.970  1.00  0.00     0.012 C 
HETATM   13  C   UNL     1      -4.287   1.697 -31.926  1.00  0.00     0.013 C 
HETATM   14  C   UNL     1      -6.632   4.552 -30.500  1.00  0.00     0.055 C 
HETATM   15  C   UNL     1      -4.399   4.724 -31.899  1.00  0.00     0.008 C 
HETATM   16  C   UNL     1      -7.702   4.388 -31.510  1.00  0.00     0.012 A 
HETATM   17  C   UNL     1      -7.797   3.366 -32.429  1.00  0.00     0.056 A 
HETATM   18  S   UNL     1      -8.990   5.487 -31.694  1.00  0.00    -0.055 SA
HETATM   19  N   UNL     1      -8.837   3.508 -33.332  1.00  0.00    -0.227 NA
HETATM   20  C   UNL     1      -9.520   4.587 -33.044  1.00  0.00     0.174 A 
HETATM   21  C   UNL     1      -3.978   6.016 -31.140  1.00  0.00     0.020 C 
HETATM   22  C   UNL     1      -3.105   3.921 -32.219  1.00  0.00     0.128 C 
HETATM   23  C   UNL     1      -3.405   2.557 -32.832  1.00  0.00     0.033 C 
BRANCH  20  24
HETATM   24  N   UNL     1     -10.587   5.137 -33.685  1.00  0.00    -0.301 N 
HETATM   25  C   UNL     1     -10.481   5.784 -34.895  1.00  0.00     0.264 C 
HETATM   26  O   UNL     1      -9.437   5.897 -35.533  1.00  0.00    -0.267 OA
HETATM   27  H   UNL     1     -11.475   5.122 -33.206  1.00  0.00     0.171 HD
BRANCH  25  28
HETATM   28  C   UNL     1     -11.732   6.378 -35.369  1.00  0.00     0.072 A 
HETATM   29  S   UNL     1     -11.894   8.060 -35.684  1.00  0.00    -0.097 SA
HETATM   30  C   UNL     1     -13.518   7.885 -36.183  1.00  0.00     0.050 A 
HETATM   31  C   UNL     1     -13.942   6.577 -36.110  1.00  0.00     0.009 A 
HETATM   32  C   UNL     1     -12.914   5.711 -35.638  1.00  0.00     0.025 A 
ENDBRANCH  25  28
ENDBRANCH  20  24
BRANCH  15  33
HETATM   33  C   UNL     1      -5.074   5.180 -33.215  1.00  0.00     0.176 C 
BRANCH  33  34
HETATM   34  O   UNL     1      -4.176   5.954 -34.004  1.00  0.00    -0.400 OA
HETATM   35  H   UNL     1      -4.719   6.520 -34.582  1.00  0.00     0.209 HD
ENDBRANCH  33  34
ENDBRANCH  15  33
BRANCH  22  36
HETATM   36  O   UNL     1      -2.344   3.695 -31.027  1.00  0.00    -0.395 OA
HETATM   37  H   UNL     1      -1.785   2.916 -31.188  1.00  0.00     0.210 HD
ENDBRANCH  22  36
ENDBRANCH   8   9
ENDBRANCH   5   8
ENDBRANCH   1   4
TORSDOF 8
ENDMDL
MODEL 8
REMARK VINA RESULT:      -7.4      2.921      4.225
REMARK  8 active torsions:
REMARK  status: ('A' for Active; 'I' for Inactive)
REMARK    1  A    between atoms: C_3  and  C_4 
REMARK    2  A    between atoms: C_4  and  C_5 
REMARK       I    between atoms: C_5  and  N_6 
REMARK    3  A    between atoms: N_6  and  C_7 
REMARK    4  A    between atoms: C_14  and  N_15 
REMARK       I    between atoms: N_15  and  C_16 
REMARK    5  A    between atoms: C_16  and  C_17 
REMARK    6  A    between atoms: C_26  and  C_27 
REMARK    7  A    between atoms: C_27  and  O_28 
REMARK    8  A    between atoms: C_30  and  O_31 
ROOT
HETATM    1  C   UNL     1      -6.652  -0.447 -33.193  1.00  0.00     0.216 C 
HETATM    2  C   UNL     1      -6.764  -1.711 -33.929  1.00  0.00    -0.098 C 
HETATM    3  C   UNL     1      -6.844  -2.749 -34.527  1.00  0.00     0.014 C 
ENDROOT
BRANCH   1   4
HETATM    4  N   UNL     1      -7.942   0.170 -33.039  1.00  0.00    -0.351 N 
HETATM    5  C   UNL     1      -8.703   0.558 -34.109  1.00  0.00     0.219 C 
HETATM    6  O   UNL     1      -8.372   0.393 -35.280  1.00  0.00    -0.274 OA
HETATM    7  H   UNL     1      -8.164   0.545 -32.115  1.00  0.00     0.163 HD
BRANCH   5   8
HETATM    8  C   UNL     1     -10.038   1.191 -33.752  1.00  0.00     0.114 C 
BRANCH   8   9
HETATM    9  C   UNL     1     -10.284   2.506 -34.521  1.00  0.00     0.056 C 
HETATM   10  C   UNL     1     -11.807   3.004 -34.711  1.00  0.00    -0.030 C 
HETATM   11  C   UNL     1     -11.906   3.414 -36.223  1.00  0.00     0.016 C 
HETATM   12  C   UNL     1     -12.225   4.291 -33.861  1.00  0.00     0.012 C 
HETATM   13  C   UNL     1     -12.882   1.897 -34.534  1.00  0.00     0.013 C 
HETATM   14  C   UNL     1     -11.191   5.438 -34.002  1.00  0.00     0.055 C 
HETATM   15  C   UNL     1     -12.708   4.015 -32.376  1.00  0.00     0.008 C 
HETATM   16  C   UNL     1      -9.820   4.921 -33.792  1.00  0.00     0.012 A 
HETATM   17  C   UNL     1      -9.406   3.622 -33.991  1.00  0.00     0.056 A 
HETATM   18  S   UNL     1      -8.531   5.888 -33.239  1.00  0.00    -0.055 SA
HETATM   19  N   UNL     1      -8.095   3.380 -33.617  1.00  0.00    -0.227 NA
HETATM   20  C   UNL     1      -7.547   4.494 -33.202  1.00  0.00     0.174 A 
HETATM   21  C   UNL     1     -13.354   5.304 -31.789  1.00  0.00     0.020 C 
HETATM   22  C   UNL     1     -13.800   2.907 -32.397  1.00  0.00     0.128 C 
HETATM   23  C   UNL     1     -13.324   1.636 -33.094  1.00  0.00     0.033 C 
BRANCH  20  24
HETATM   24  N   UNL     1      -6.301   4.715 -32.701  1.00  0.00    -0.301 N 
HETATM   25  C   UNL     1      -5.188   4.859 -33.498  1.00  0.00     0.264 C 
HETATM   26  O   UNL     1      -5.207   4.842 -34.726  1.00  0.00    -0.267 OA
HETATM   27  H   UNL     1      -6.195   4.702 -31.698  1.00  0.00     0.171 HD
BRANCH  25  28
HETATM   28  C   UNL     1      -3.934   5.003 -32.756  1.00  0.00     0.072 A 
HETATM   29  S   UNL     1      -2.432   4.432 -33.364  1.00  0.00    -0.097 SA
HETATM   30  C   UNL     1      -1.580   4.996 -31.995  1.00  0.00     0.050 A 
HETATM   31  C   UNL     1      -2.413   5.603 -31.082  1.00  0.00     0.009 A 
HETATM   32  C   UNL     1      -3.769   5.603 -31.520  1.00  0.00     0.025 A 
ENDBRANCH  25  28
ENDBRANCH  20  24
BRANCH  15  33
HETATM   33  C   UNL     1     -11.567   3.610 -31.412  1.00  0.00     0.176 C 
BRANCH  33  34
HETATM   34  O   UNL     1     -11.974   3.753 -30.054  1.00  0.00    -0.400 OA
HETATM   35  H   UNL     1     -12.499   4.572 -30.000  1.00  0.00     0.209 HD
ENDBRANCH  33  34
ENDBRANCH  15  33
BRANCH  22  36
HETATM   36  O   UNL     1     -14.967   3.363 -33.092  1.00  0.00    -0.395 OA
HETATM   37  H   UNL     1     -15.672   2.715 -32.920  1.00  0.00     0.210 HD
ENDBRANCH  22  36
ENDBRANCH   8   9
ENDBRANCH   5   8
ENDBRANCH   1   4
TORSDOF 8
ENDMDL
MODEL 9
REMARK VINA RESULT:      -7.3      1.912      2.511
REMARK  8 active torsions:
REMARK  status: ('A' for Active; 'I' for Inactive)
REMARK    1  A    between atoms: C_3  and  C_4 
REMARK    2  A    between atoms: C_4  and  C_5 
REMARK       I    between atoms: C_5  and  N_6 
REMARK    3  A    between atoms: N_6  and  C_7 
REMARK    4  A    between atoms: C_14  and  N_15 
REMARK       I    between atoms: N_15  and  C_16 
REMARK    5  A    between atoms: C_16  and  C_17 
REMARK    6  A    between atoms: C_26  and  C_27 
REMARK    7  A    between atoms: C_27  and  O_28 
REMARK    8  A    between atoms: C_30  and  O_31 
ROOT
HETATM    1  C   UNL     1      -3.341  -0.417 -32.946  1.00  0.00     0.216 C 
HETATM    2  C   UNL     1      -4.278  -1.292 -33.658  1.00  0.00    -0.098 C 
HETATM    3  C   UNL     1      -5.037  -2.018 -34.240  1.00  0.00     0.014 C 
ENDROOT
BRANCH   1   4
HETATM    4  N   UNL     1      -4.026   0.720 -32.391  1.00  0.00    -0.351 N 
HETATM    5  C   UNL     1      -4.428   0.770 -31.085  1.00  0.00     0.219 C 
HETATM    6  O   UNL     1      -4.221  -0.125 -30.270  1.00  0.00    -0.274 OA
HETATM    7  H   UNL     1      -4.432   1.381 -33.058  1.00  0.00     0.163 HD
BRANCH   5   8
HETATM    8  C   UNL     1      -5.135   2.053 -30.678  1.00  0.00     0.114 C 
BRANCH   8   9
HETATM    9  C   UNL     1      -5.379   2.990 -31.881  1.00  0.00     0.056 C 
HETATM   10  C   UNL     1      -6.808   2.917 -32.625  1.00  0.00    -0.030 C 
HETATM   11  C   UNL     1      -6.459   2.888 -34.155  1.00  0.00     0.016 C 
HETATM   12  C   UNL     1      -7.769   4.174 -32.401  1.00  0.00     0.012 C 
HETATM   13  C   UNL     1      -7.605   1.607 -32.381  1.00  0.00     0.013 C 
HETATM   14  C   UNL     1      -7.032   5.517 -32.638  1.00  0.00     0.055 C 
HETATM   15  C   UNL     1      -8.669   4.135 -31.095  1.00  0.00     0.008 C 
HETATM   16  C   UNL     1      -5.743   5.529 -31.909  1.00  0.00     0.012 A 
HETATM   17  C   UNL     1      -5.010   4.421 -31.542  1.00  0.00     0.056 A 
HETATM   18  S   UNL     1      -4.976   6.959 -31.389  1.00  0.00    -0.055 SA
HETATM   19  N   UNL     1      -3.895   4.706 -30.773  1.00  0.00    -0.227 NA
HETATM   20  C   UNL     1      -3.786   6.002 -30.626  1.00  0.00     0.174 A 
HETATM   21  C   UNL     1      -9.747   5.255 -31.170  1.00  0.00     0.020 C 
HETATM   22  C   UNL     1      -9.412   2.769 -31.033  1.00  0.00     0.128 C 
HETATM   23  C   UNL     1      -8.455   1.583 -31.110  1.00  0.00     0.033 C 
BRANCH  20  24
HETATM   24  N   UNL     1      -2.876   6.723 -29.915  1.00  0.00    -0.301 N 
HETATM   25  C   UNL     1      -1.524   6.678 -30.167  1.00  0.00     0.264 C 
HETATM   26  O   UNL     1      -1.007   6.023 -31.069  1.00  0.00    -0.267 OA
HETATM   27  H   UNL     1      -3.217   7.255 -29.129  1.00  0.00     0.171 HD
BRANCH  25  28
HETATM   28  C   UNL     1      -0.714   7.461 -29.232  1.00  0.00     0.072 A 
HETATM   29  S   UNL     1      -1.405   8.574 -28.121  1.00  0.00    -0.097 SA
HETATM   30  C   UNL     1       0.119   8.977 -27.463  1.00  0.00     0.050 A 
HETATM   31  C   UNL     1       1.143   8.288 -28.073  1.00  0.00     0.009 A 
HETATM   32  C   UNL     1       0.663   7.417 -29.094  1.00  0.00     0.025 A 
ENDBRANCH  25  28
ENDBRANCH  20  24
BRANCH  15  33
HETATM   33  C   UNL     1      -7.878   4.363 -29.784  1.00  0.00     0.176 C 
BRANCH  33  34
HETATM   34  O   UNL     1      -8.328   5.539 -29.118  1.00  0.00    -0.400 OA
HETATM   35  H   UNL     1      -9.087   5.280 -28.565  1.00  0.00     0.209 HD
ENDBRANCH  33  34
ENDBRANCH  15  33
BRANCH  22  36
HETATM   36  O   UNL     1     -10.331   2.646 -32.125  1.00  0.00    -0.395 OA
HETATM   37  H   UNL     1     -10.809   3.490 -32.192  1.00  0.00     0.210 HD
ENDBRANCH  22  36
ENDBRANCH   8   9
ENDBRANCH   5   8
ENDBRANCH   1   4
TORSDOF 8
ENDMDL
MODEL 10
REMARK VINA RESULT:      -7.3      1.995      2.221
REMARK  8 active torsions:
REMARK  status: ('A' for Active; 'I' for Inactive)
REMARK    1  A    between atoms: C_3  and  C_4 
REMARK    2  A    between atoms: C_4  and  C_5 
REMARK       I    between atoms: C_5  and  N_6 
REMARK    3  A    between atoms: N_6  and  C_7 
REMARK    4  A    between atoms: C_14  and  N_15 
REMARK       I    between atoms: N_15  and  C_16 
REMARK    5  A    between atoms: C_16  and  C_17 
REMARK    6  A    between atoms: C_26  and  C_27 
REMARK    7  A    between atoms: C_27  and  O_28 
REMARK    8  A    between atoms: C_30  and  O_31 
ROOT
HETATM    1  C   UNL     1      -2.964  -1.512 -31.838  1.00  0.00     0.216 C 
HETATM    2  C   UNL     1      -3.182  -2.918 -32.194  1.00  0.00    -0.098 C 
HETATM    3  C   UNL     1      -3.348  -4.072 -32.482  1.00  0.00     0.014 C 
ENDROOT
BRANCH   1   4
HETATM    4  N   UNL     1      -4.210  -0.792 -31.815  1.00  0.00    -0.351 N 
HETATM    5  C   UNL     1      -4.292   0.522 -31.446  1.00  0.00     0.219 C 
HETATM    6  O   UNL     1      -3.322   1.207 -31.131  1.00  0.00    -0.274 OA
HETATM    7  H   UNL     1      -5.064  -1.354 -31.833  1.00  0.00     0.163 HD
BRANCH   5   8
HETATM    8  C   UNL     1      -5.692   1.114 -31.486  1.00  0.00     0.114 C 
BRANCH   8   9
HETATM    9  C   UNL     1      -6.002   1.789 -32.839  1.00  0.00     0.056 C 
HETATM   10  C   UNL     1      -7.296   1.287 -33.661  1.00  0.00    -0.030 C 
HETATM   11  C   UNL     1      -6.788   1.119 -35.138  1.00  0.00     0.016 C 
HETATM   12  C   UNL     1      -8.521   2.310 -33.715  1.00  0.00     0.012 C 
HETATM   13  C   UNL     1      -7.816  -0.122 -33.264  1.00  0.00     0.013 C 
HETATM   14  C   UNL     1      -8.067   3.738 -34.114  1.00  0.00     0.055 C 
HETATM   15  C   UNL     1      -9.525   2.255 -32.487  1.00  0.00     0.008 C 
HETATM   16  C   UNL     1      -6.895   4.147 -33.307  1.00  0.00     0.012 A 
HETATM   17  C   UNL     1      -5.985   3.299 -32.713  1.00  0.00     0.056 A 
HETATM   18  S   UNL     1      -6.511   5.773 -32.974  1.00  0.00    -0.055 SA
HETATM   19  N   UNL     1      -5.045   3.938 -31.923  1.00  0.00    -0.227 NA
HETATM   20  C   UNL     1      -5.232   5.232 -31.982  1.00  0.00     0.174 A 
HETATM   21  C   UNL     1     -10.803   3.079 -32.821  1.00  0.00     0.020 C 
HETATM   22  C   UNL     1      -9.961   0.779 -32.258  1.00  0.00     0.128 C 
HETATM   23  C   UNL     1      -8.770  -0.156 -32.071  1.00  0.00     0.033 C 
BRANCH  20  24
HETATM   24  N   UNL     1      -4.577   6.235 -31.335  1.00  0.00    -0.301 N 
HETATM   25  C   UNL     1      -3.299   6.626 -31.660  1.00  0.00     0.264 C 
HETATM   26  O   UNL     1      -2.638   6.146 -32.578  1.00  0.00    -0.267 OA
HETATM   27  H   UNL     1      -5.038   6.653 -30.541  1.00  0.00     0.171 HD
BRANCH  25  28
HETATM   28  C   UNL     1      -2.749   7.663 -30.785  1.00  0.00     0.072 A 
HETATM   29  S   UNL     1      -1.703   7.302 -29.471  1.00  0.00    -0.097 SA
HETATM   30  C   UNL     1      -1.533   8.951 -29.056  1.00  0.00     0.050 A 
HETATM   31  C   UNL     1      -2.259   9.770 -29.892  1.00  0.00     0.009 A 
HETATM   32  C   UNL     1      -2.962   9.027 -30.885  1.00  0.00     0.025 A 
ENDBRANCH  25  28
ENDBRANCH  20  24
BRANCH  15  33
HETATM   33  C   UNL     1      -8.945   2.842 -31.179  1.00  0.00     0.176 C 
BRANCH  33  34
HETATM   34  O   UNL     1      -9.855   2.666 -30.096  1.00  0.00    -0.400 OA
HETATM   35  H   UNL     1      -9.837   1.720 -29.861  1.00  0.00     0.209 HD
ENDBRANCH  33  34
ENDBRANCH  15  33
BRANCH  22  36
HETATM   36  O   UNL     1     -10.712   0.295 -33.378  1.00  0.00    -0.395 OA
HETATM   37  H   UNL     1     -11.405   0.952 -33.562  1.00  0.00     0.210 HD
ENDBRANCH  22  36
ENDBRANCH   8   9
ENDBRANCH   5   8
ENDBRANCH   1   4
TORSDOF 8
ENDMDL
