MODEL 1
REMARK VINA RESULT:      -8.8      0.000      0.000
REMARK  5 active torsions:
REMARK  status: ('A' for Active; 'I' for Inactive)
REMARK    1  A    between atoms: C_5  and  C_6 
REMARK    2  A    between atoms: C_10  and  C_11 
REMARK       I    between atoms: C_11  and  N_12 
REMARK    3  A    between atoms: N_12  and  C_13 
REMARK    4  A    between atoms: C_13  and  C_14 
REMARK    5  A    between atoms: C_14  and  O_15 
ROOT
HETATM    1  C   UNL     1      -5.457   0.700 -32.655  1.00  0.00     0.068 A 
HETATM    2  N   UNL     1      -6.525   1.104 -31.922  1.00  0.00    -0.248 NA
HETATM    3  C   UNL     1      -6.469   2.246 -31.215  1.00  0.00     0.068 A 
HETATM    4  C   UNL     1      -5.343   3.089 -31.207  1.00  0.00     0.008 A 
HETATM    5  C   UNL     1      -4.266   2.677 -32.020  1.00  0.00     0.046 A 
HETATM    6  C   UNL     1      -4.314   1.476 -32.730  1.00  0.00     0.050 A 
HETATM    7  C   UNL     1      -7.573   2.596 -30.449  1.00  0.00     0.032 A 
HETATM    8  C   UNL     1      -7.593   3.747 -29.660  1.00  0.00     0.002 A 
HETATM    9  C   UNL     1      -6.480   4.574 -29.624  1.00  0.00     0.001 A 
HETATM   10  C   UNL     1      -5.360   4.247 -30.387  1.00  0.00     0.015 A 
ENDROOT
BRANCH   5  11
HETATM   11  C   UNL     1      -3.015   3.456 -32.163  1.00  0.00     0.252 C 
HETATM   12  N   UNL     1      -2.890   4.177 -33.325  1.00  0.00    -0.354 N 
HETATM   13  H   UNL     1      -3.632   4.182 -34.017  1.00  0.00     0.162 HD
HETATM   14  O   UNL     1      -2.152   3.380 -31.299  1.00  0.00    -0.268 OA
BRANCH  12  15
HETATM   15  C   UNL     1      -1.743   5.023 -33.601  1.00  0.00     0.154 C 
BRANCH  15  16
HETATM   16  C   UNL     1      -2.048   6.504 -33.337  1.00  0.00     0.132 C 
HETATM   17  C   UNL     1      -0.950   7.192 -32.535  1.00  0.00     0.041 C 
BRANCH  16  18
HETATM   18  O   UNL     1      -2.208   7.179 -34.589  1.00  0.00    -0.394 OA
HETATM   19  H   UNL     1      -3.163   7.260 -34.752  1.00  0.00     0.210 HD
ENDBRANCH  16  18
ENDBRANCH  15  16
ENDBRANCH  12  15
ENDBRANCH   5  11
BRANCH   1  20
HETATM   20  C   UNL     1      -5.609  -0.599 -33.352  1.00  0.00    -0.007 A 
HETATM   21  C   UNL     1      -6.881  -1.070 -33.727  1.00  0.00     0.014 A 
HETATM   22  C   UNL     1      -7.051  -2.297 -34.379  1.00  0.00     0.007 A 
HETATM   23  C   UNL     1      -5.948  -3.102 -34.670  1.00  0.00    -0.062 A 
HETATM   24  C   UNL     1      -6.112  -4.411 -35.382  1.00  0.00     0.048 C 
HETATM   25  C   UNL     1      -4.675  -2.652 -34.311  1.00  0.00     0.007 A 
HETATM   26  C   UNL     1      -4.512  -1.423 -33.656  1.00  0.00     0.014 A 
ENDBRANCH   1  20
TORSDOF 5
ENDMDL
MODEL 2
REMARK VINA RESULT:      -8.3      5.049      7.237
REMARK  5 active torsions:
REMARK  status: ('A' for Active; 'I' for Inactive)
REMARK    1  A    between atoms: C_5  and  C_6 
REMARK    2  A    between atoms: C_10  and  C_11 
REMARK       I    between atoms: C_11  and  N_12 
REMARK    3  A    between atoms: N_12  and  C_13 
REMARK    4  A    between atoms: C_13  and  C_14 
REMARK    5  A    between atoms: C_14  and  O_15 
ROOT
HETATM    1  C   UNL     1      -8.118   0.371 -32.999  1.00  0.00     0.068 A 
HETATM    2  N   UNL     1      -7.791   1.208 -31.983  1.00  0.00    -0.248 NA
HETATM    3  C   UNL     1      -8.629   2.194 -31.621  1.00  0.00     0.068 A 
HETATM    4  C   UNL     1      -9.878   2.404 -32.233  1.00  0.00     0.008 A 
HETATM    5  C   UNL     1     -10.221   1.488 -33.250  1.00  0.00     0.046 A 
HETATM    6  C   UNL     1      -9.337   0.483 -33.646  1.00  0.00     0.050 A 
HETATM    7  C   UNL     1      -8.232   3.050 -30.602  1.00  0.00     0.032 A 
HETATM    8  C   UNL     1      -9.024   4.119 -30.179  1.00  0.00     0.002 A 
HETATM    9  C   UNL     1     -10.246   4.351 -30.792  1.00  0.00     0.001 A 
HETATM   10  C   UNL     1     -10.670   3.505 -31.816  1.00  0.00     0.015 A 
ENDROOT
BRANCH   5  11
HETATM   11  C   UNL     1     -11.508   1.532 -33.980  1.00  0.00     0.252 C 
HETATM   12  N   UNL     1     -12.542   0.829 -33.412  1.00  0.00    -0.354 N 
HETATM   13  H   UNL     1     -12.416   0.338 -32.532  1.00  0.00     0.162 HD
HETATM   14  O   UNL     1     -11.578   2.122 -35.050  1.00  0.00    -0.268 OA
BRANCH  12  15
HETATM   15  C   UNL     1     -13.877   0.804 -33.981  1.00  0.00     0.154 C 
BRANCH  15  16
HETATM   16  C   UNL     1     -14.922   1.376 -33.013  1.00  0.00     0.132 C 
HETATM   17  C   UNL     1     -14.489   2.704 -32.404  1.00  0.00     0.041 C 
BRANCH  16  18
HETATM   18  O   UNL     1     -16.157   1.561 -33.715  1.00  0.00    -0.394 OA
HETATM   19  H   UNL     1     -16.245   2.514 -33.893  1.00  0.00     0.210 HD
ENDBRANCH  16  18
ENDBRANCH  15  16
ENDBRANCH  12  15
ENDBRANCH   5  11
BRANCH   1  20
HETATM   20  C   UNL     1      -7.098  -0.645 -33.350  1.00  0.00    -0.007 A 
HETATM   21  C   UNL     1      -5.791  -0.561 -32.836  1.00  0.00     0.014 A 
HETATM   22  C   UNL     1      -4.808  -1.504 -33.158  1.00  0.00     0.007 A 
HETATM   23  C   UNL     1      -5.101  -2.564 -34.019  1.00  0.00    -0.062 A 
HETATM   24  C   UNL     1      -4.064  -3.590 -34.362  1.00  0.00     0.048 C 
HETATM   25  C   UNL     1      -6.394  -2.670 -34.538  1.00  0.00     0.007 A 
HETATM   26  C   UNL     1      -7.373  -1.721 -34.213  1.00  0.00     0.014 A 
ENDBRANCH   1  20
TORSDOF 5
ENDMDL
MODEL 3
REMARK VINA RESULT:      -8.2      1.734      2.315
REMARK  5 active torsions:
REMARK  status: ('A' for Active; 'I' for Inactive)
REMARK    1  A    between atoms: C_5  and  C_6 
REMARK    2  A    between atoms: C_10  and  C_11 
REMARK       I    between atoms: C_11  and  N_12 
REMARK    3  A    between atoms: N_12  and  C_13 
REMARK    4  A    between atoms: C_13  and  C_14 
REMARK    5  A    between atoms: C_14  and  O_15 
ROOT
HETATM    1  C   UNL     1      -4.318   0.667 -32.044  1.00  0.00     0.068 A 
HETATM    2  N   UNL     1      -5.432   0.917 -31.311  1.00  0.00    -0.248 NA
HETATM    3  C   UNL     1      -5.677   2.156 -30.852  1.00  0.00     0.068 A 
HETATM    4  C   UNL     1      -4.836   3.252 -31.115  1.00  0.00     0.008 A 
HETATM    5  C   UNL     1      -3.713   2.981 -31.926  1.00  0.00     0.046 A 
HETATM    6  C   UNL     1      -3.443   1.687 -32.377  1.00  0.00     0.050 A 
HETATM    7  C   UNL     1      -6.809   2.353 -30.072  1.00  0.00     0.032 A 
HETATM    8  C   UNL     1      -7.127   3.598 -29.528  1.00  0.00     0.002 A 
HETATM    9  C   UNL     1      -6.293   4.681 -29.759  1.00  0.00     0.001 A 
HETATM   10  C   UNL     1      -5.152   4.512 -30.542  1.00  0.00     0.015 A 
ENDROOT
BRANCH   5  11
HETATM   11  C   UNL     1      -2.739   4.017 -32.335  1.00  0.00     0.252 C 
HETATM   12  N   UNL     1      -1.884   4.454 -31.354  1.00  0.00    -0.354 N 
HETATM   13  H   UNL     1      -1.917   4.059 -30.420  1.00  0.00     0.162 HD
HETATM   14  O   UNL     1      -2.776   4.467 -33.473  1.00  0.00    -0.268 OA
BRANCH  12  15
HETATM   15  C   UNL     1      -0.844   5.437 -31.604  1.00  0.00     0.154 C 
BRANCH  15  16
HETATM   16  C   UNL     1       0.285   5.351 -30.568  1.00  0.00     0.132 C 
HETATM   17  C   UNL     1       0.371   6.595 -29.693  1.00  0.00     0.041 C 
BRANCH  16  18
HETATM   18  O   UNL     1       0.070   4.206 -29.736  1.00  0.00    -0.394 OA
HETATM   19  H   UNL     1      -0.849   3.918 -29.875  1.00  0.00     0.210 HD
ENDBRANCH  16  18
ENDBRANCH  15  16
ENDBRANCH  12  15
ENDBRANCH   5  11
BRANCH   1  20
HETATM   20  C   UNL     1      -4.120  -0.743 -32.454  1.00  0.00    -0.007 A 
HETATM   21  C   UNL     1      -4.733  -1.249 -33.615  1.00  0.00     0.014 A 
HETATM   22  C   UNL     1      -4.567  -2.579 -34.019  1.00  0.00     0.007 A 
HETATM   23  C   UNL     1      -3.786  -3.455 -33.263  1.00  0.00    -0.062 A 
HETATM   24  C   UNL     1      -3.586  -4.878 -33.689  1.00  0.00     0.048 C 
HETATM   25  C   UNL     1      -3.163  -2.973 -32.108  1.00  0.00     0.007 A 
HETATM   26  C   UNL     1      -3.335  -1.641 -31.708  1.00  0.00     0.014 A 
ENDBRANCH   1  20
TORSDOF 5
ENDMDL
MODEL 4
REMARK VINA RESULT:      -8.2      2.456      3.198
REMARK  5 active torsions:
REMARK  status: ('A' for Active; 'I' for Inactive)
REMARK    1  A    between atoms: C_5  and  C_6 
REMARK    2  A    between atoms: C_10  and  C_11 
REMARK       I    between atoms: C_11  and  N_12 
REMARK    3  A    between atoms: N_12  and  C_13 
REMARK    4  A    between atoms: C_13  and  C_14 
REMARK    5  A    between atoms: C_14  and  O_15 
ROOT
HETATM    1  C   UNL     1      -6.385   0.092 -33.600  1.00  0.00     0.068 A 
HETATM    2  N   UNL     1      -7.689   0.036 -33.970  1.00  0.00    -0.248 NA
HETATM    3  C   UNL     1      -8.465   1.130 -33.883  1.00  0.00     0.068 A 
HETATM    4  C   UNL     1      -7.987   2.377 -33.442  1.00  0.00     0.008 A 
HETATM    5  C   UNL     1      -6.615   2.425 -33.116  1.00  0.00     0.046 A 
HETATM    6  C   UNL     1      -5.817   1.281 -33.177  1.00  0.00     0.050 A 
HETATM    7  C   UNL     1      -9.803   1.012 -34.235  1.00  0.00     0.032 A 
HETATM    8  C   UNL     1     -10.690   2.087 -34.148  1.00  0.00     0.002 A 
HETATM    9  C   UNL     1     -10.237   3.315 -33.691  1.00  0.00     0.001 A 
HETATM   10  C   UNL     1      -8.897   3.461 -33.335  1.00  0.00     0.015 A 
ENDROOT
BRANCH   5  11
HETATM   11  C   UNL     1      -5.931   3.659 -32.669  1.00  0.00     0.252 C 
HETATM   12  N   UNL     1      -5.413   4.450 -33.664  1.00  0.00    -0.354 N 
HETATM   13  H   UNL     1      -5.527   4.198 -34.641  1.00  0.00     0.162 HD
HETATM   14  O   UNL     1      -5.809   3.884 -31.472  1.00  0.00    -0.268 OA
BRANCH  12  15
HETATM   15  C   UNL     1      -4.749   5.713 -33.395  1.00  0.00     0.154 C 
BRANCH  15  16
HETATM   16  C   UNL     1      -3.367   5.785 -34.058  1.00  0.00     0.132 C 
HETATM   17  C   UNL     1      -2.439   4.668 -33.596  1.00  0.00     0.041 C 
BRANCH  16  18
HETATM   18  O   UNL     1      -3.525   5.706 -35.479  1.00  0.00    -0.394 OA
HETATM   19  H   UNL     1      -3.687   6.610 -35.800  1.00  0.00     0.210 HD
ENDBRANCH  16  18
ENDBRANCH  15  16
ENDBRANCH  12  15
ENDBRANCH   5  11
BRANCH   1  20
HETATM   20  C   UNL     1      -5.637  -1.184 -33.686  1.00  0.00    -0.007 A 
HETATM   21  C   UNL     1      -4.508  -1.413 -32.878  1.00  0.00     0.014 A 
HETATM   22  C   UNL     1      -3.780  -2.607 -32.946  1.00  0.00     0.007 A 
HETATM   23  C   UNL     1      -4.154  -3.613 -33.839  1.00  0.00    -0.062 A 
HETATM   24  C   UNL     1      -3.394  -4.902 -33.914  1.00  0.00     0.048 C 
HETATM   25  C   UNL     1      -5.275  -3.409 -34.649  1.00  0.00     0.007 A 
HETATM   26  C   UNL     1      -5.998  -2.211 -34.577  1.00  0.00     0.014 A 
ENDBRANCH   1  20
TORSDOF 5
ENDMDL
MODEL 5
REMARK VINA RESULT:      -8.2      4.443      6.460
REMARK  5 active torsions:
REMARK  status: ('A' for Active; 'I' for Inactive)
REMARK    1  A    between atoms: C_5  and  C_6 
REMARK    2  A    between atoms: C_10  and  C_11 
REMARK       I    between atoms: C_11  and  N_12 
REMARK    3  A    between atoms: N_12  and  C_13 
REMARK    4  A    between atoms: C_13  and  C_14 
REMARK    5  A    between atoms: C_14  and  O_15 
ROOT
HETATM    1  C   UNL     1      -6.851   0.449 -33.976  1.00  0.00     0.068 A 
HETATM    2  N   UNL     1      -5.923   1.380 -33.642  1.00  0.00    -0.248 NA
HETATM    3  C   UNL     1      -6.268   2.674 -33.538  1.00  0.00     0.068 A 
HETATM    4  C   UNL     1      -7.582   3.136 -33.734  1.00  0.00     0.008 A 
HETATM    5  C   UNL     1      -8.541   2.144 -34.026  1.00  0.00     0.046 A 
HETATM    6  C   UNL     1      -8.176   0.803 -34.164  1.00  0.00     0.050 A 
HETATM    7  C   UNL     1      -5.274   3.594 -33.234  1.00  0.00     0.032 A 
HETATM    8  C   UNL     1      -5.534   4.962 -33.134  1.00  0.00     0.002 A 
HETATM    9  C   UNL     1      -6.821   5.433 -33.350  1.00  0.00     0.001 A 
HETATM   10  C   UNL     1      -7.838   4.530 -33.653  1.00  0.00     0.015 A 
ENDROOT
BRANCH   5  11
HETATM   11  C   UNL     1      -9.978   2.439 -34.228  1.00  0.00     0.252 C 
HETATM   12  N   UNL     1     -10.851   1.730 -33.440  1.00  0.00    -0.354 N 
HETATM   13  H   UNL     1     -10.510   1.068 -32.750  1.00  0.00     0.162 HD
HETATM   14  O   UNL     1     -10.317   3.230 -35.098  1.00  0.00    -0.268 OA
BRANCH  12  15
HETATM   15  C   UNL     1     -12.288   1.932 -33.487  1.00  0.00     0.154 C 
BRANCH  15  16
HETATM   16  C   UNL     1     -12.950   1.081 -34.580  1.00  0.00     0.132 C 
HETATM   17  C   UNL     1     -14.373   0.673 -34.219  1.00  0.00     0.041 C 
BRANCH  16  18
HETATM   18  O   UNL     1     -12.971   1.825 -35.803  1.00  0.00    -0.394 OA
HETATM   19  H   UNL     1     -12.253   1.479 -36.362  1.00  0.00     0.210 HD
ENDBRANCH  16  18
ENDBRANCH  15  16
ENDBRANCH  12  15
ENDBRANCH   5  11
BRANCH   1  20
HETATM   20  C   UNL     1      -6.350  -0.939 -34.116  1.00  0.00    -0.007 A 
HETATM   21  C   UNL     1      -5.005  -1.250 -33.842  1.00  0.00     0.014 A 
HETATM   22  C   UNL     1      -4.507  -2.551 -33.973  1.00  0.00     0.007 A 
HETATM   23  C   UNL     1      -5.341  -3.588 -34.396  1.00  0.00    -0.062 A 
HETATM   24  C   UNL     1      -4.826  -4.990 -34.527  1.00  0.00     0.048 C 
HETATM   25  C   UNL     1      -6.681  -3.304 -34.669  1.00  0.00     0.007 A 
HETATM   26  C   UNL     1      -7.174  -1.998 -34.537  1.00  0.00     0.014 A 
ENDBRANCH   1  20
TORSDOF 5
ENDMDL
MODEL 6
REMARK VINA RESULT:      -8.0      3.065      5.712
REMARK  5 active torsions:
REMARK  status: ('A' for Active; 'I' for Inactive)
REMARK    1  A    between atoms: C_5  and  C_6 
REMARK    2  A    between atoms: C_10  and  C_11 
REMARK       I    between atoms: C_11  and  N_12 
REMARK    3  A    between atoms: N_12  and  C_13 
REMARK    4  A    between atoms: C_13  and  C_14 
REMARK    5  A    between atoms: C_14  and  O_15 
ROOT
HETATM    1  C   UNL     1      -8.007   0.247 -33.471  1.00  0.00     0.068 A 
HETATM    2  N   UNL     1      -7.839  -0.916 -34.150  1.00  0.00    -0.248 NA
HETATM    3  C   UNL     1      -6.685  -1.598 -34.051  1.00  0.00     0.068 A 
HETATM    4  C   UNL     1      -5.615  -1.182 -33.239  1.00  0.00     0.008 A 
HETATM    5  C   UNL     1      -5.832  -0.001 -32.499  1.00  0.00     0.046 A 
HETATM    6  C   UNL     1      -7.019   0.724 -32.627  1.00  0.00     0.050 A 
HETATM    7  C   UNL     1      -6.547  -2.761 -34.797  1.00  0.00     0.032 A 
HETATM    8  C   UNL     1      -5.374  -3.519 -34.779  1.00  0.00     0.002 A 
HETATM    9  C   UNL     1      -4.303  -3.106 -34.002  1.00  0.00     0.001 A 
HETATM   10  C   UNL     1      -4.417  -1.944 -33.240  1.00  0.00     0.015 A 
ENDROOT
BRANCH   5  11
HETATM   11  C   UNL     1      -4.833   0.567 -31.567  1.00  0.00     0.252 C 
HETATM   12  N   UNL     1      -4.061   1.586 -32.066  1.00  0.00    -0.354 N 
HETATM   13  H   UNL     1      -4.200   1.931 -33.010  1.00  0.00     0.162 HD
HETATM   14  O   UNL     1      -4.702   0.083 -30.451  1.00  0.00    -0.268 OA
BRANCH  12  15
HETATM   15  C   UNL     1      -3.064   2.277 -31.267  1.00  0.00     0.154 C 
BRANCH  15  16
HETATM   16  C   UNL     1      -2.877   3.732 -31.717  1.00  0.00     0.132 C 
HETATM   17  C   UNL     1      -4.096   4.596 -31.417  1.00  0.00     0.041 C 
BRANCH  16  18
HETATM   18  O   UNL     1      -1.735   4.284 -31.052  1.00  0.00    -0.394 OA
HETATM   19  H   UNL     1      -1.025   3.621 -31.105  1.00  0.00     0.210 HD
ENDBRANCH  16  18
ENDBRANCH  15  16
ENDBRANCH  12  15
ENDBRANCH   5  11
BRANCH   1  20
HETATM   20  C   UNL     1      -9.295   0.943 -33.695  1.00  0.00    -0.007 A 
HETATM   21  C   UNL     1     -10.512   0.344 -33.321  1.00  0.00     0.014 A 
HETATM   22  C   UNL     1     -11.743   0.978 -33.529  1.00  0.00     0.007 A 
HETATM   23  C   UNL     1     -11.796   2.236 -34.132  1.00  0.00    -0.062 A 
HETATM   24  C   UNL     1     -13.105   2.935 -34.348  1.00  0.00     0.048 C 
HETATM   25  C   UNL     1     -10.600   2.852 -34.508  1.00  0.00     0.007 A 
HETATM   26  C   UNL     1      -9.371   2.211 -34.298  1.00  0.00     0.014 A 
ENDBRANCH   1  20
TORSDOF 5
ENDMDL
MODEL 7
REMARK VINA RESULT:      -7.9      3.169      5.056
REMARK  5 active torsions:
REMARK  status: ('A' for Active; 'I' for Inactive)
REMARK    1  A    between atoms: C_5  and  C_6 
REMARK    2  A    between atoms: C_10  and  C_11 
REMARK       I    between atoms: C_11  and  N_12 
REMARK    3  A    between atoms: N_12  and  C_13 
REMARK    4  A    between atoms: C_13  and  C_14 
REMARK    5  A    between atoms: C_14  and  O_15 
ROOT
HETATM    1  C   UNL     1      -5.685   0.687 -33.454  1.00  0.00     0.068 A 
HETATM    2  N   UNL     1      -4.566   1.091 -32.801  1.00  0.00    -0.248 NA
HETATM    3  C   UNL     1      -4.427   2.374 -32.425  1.00  0.00     0.068 A 
HETATM    4  C   UNL     1      -5.413   3.351 -32.652  1.00  0.00     0.008 A 
HETATM    5  C   UNL     1      -6.590   2.897 -33.283  1.00  0.00     0.046 A 
HETATM    6  C   UNL     1      -6.721   1.570 -33.699  1.00  0.00     0.050 A 
HETATM    7  C   UNL     1      -3.247   2.747 -31.796  1.00  0.00     0.032 A 
HETATM    8  C   UNL     1      -3.002   4.062 -31.397  1.00  0.00     0.002 A 
HETATM    9  C   UNL     1      -3.956   5.040 -31.638  1.00  0.00     0.001 A 
HETATM   10  C   UNL     1      -5.151   4.691 -32.265  1.00  0.00     0.015 A 
ENDROOT
BRANCH   5  11
HETATM   11  C   UNL     1      -7.747   3.774 -33.569  1.00  0.00     0.252 C 
HETATM   12  N   UNL     1      -8.967   3.315 -33.139  1.00  0.00    -0.354 N 
HETATM   13  H   UNL     1      -9.045   2.438 -32.635  1.00  0.00     0.162 HD
HETATM   14  O   UNL     1      -7.581   4.807 -34.206  1.00  0.00    -0.268 OA
BRANCH  12  15
HETATM   15  C   UNL     1     -10.193   4.076 -33.306  1.00  0.00     0.154 C 
BRANCH  15  16
HETATM   16  C   UNL     1     -11.439   3.194 -33.147  1.00  0.00     0.132 C 
HETATM   17  C   UNL     1     -11.178   1.741 -33.523  1.00  0.00     0.041 C 
BRANCH  16  18
HETATM   18  O   UNL     1     -11.885   3.255 -31.788  1.00  0.00    -0.394 OA
HETATM   19  H   UNL     1     -11.979   2.338 -31.476  1.00  0.00     0.210 HD
ENDBRANCH  16  18
ENDBRANCH  15  16
ENDBRANCH  12  15
ENDBRANCH   5  11
BRANCH   1  20
HETATM   20  C   UNL     1      -5.710  -0.736 -33.868  1.00  0.00    -0.007 A 
HETATM   21  C   UNL     1      -6.919  -1.358 -34.231  1.00  0.00     0.014 A 
HETATM   22  C   UNL     1      -6.970  -2.703 -34.618  1.00  0.00     0.007 A 
HETATM   23  C   UNL     1      -5.808  -3.475 -34.644  1.00  0.00    -0.062 A 
HETATM   24  C   UNL     1      -5.843  -4.912 -35.070  1.00  0.00     0.048 C 
HETATM   25  C   UNL     1      -4.595  -2.877 -34.291  1.00  0.00     0.007 A 
HETATM   26  C   UNL     1      -4.551  -1.531 -33.903  1.00  0.00     0.014 A 
ENDBRANCH   1  20
TORSDOF 5
ENDMDL
MODEL 8
REMARK VINA RESULT:      -7.9      3.082      4.684
REMARK  5 active torsions:
REMARK  status: ('A' for Active; 'I' for Inactive)
REMARK    1  A    between atoms: C_5  and  C_6 
REMARK    2  A    between atoms: C_10  and  C_11 
REMARK       I    between atoms: C_11  and  N_12 
REMARK    3  A    between atoms: N_12  and  C_13 
REMARK    4  A    between atoms: C_13  and  C_14 
REMARK    5  A    between atoms: C_14  and  O_15 
ROOT
HETATM    1  C   UNL     1      -7.771   1.300 -33.205  1.00  0.00     0.068 A 
HETATM    2  N   UNL     1      -7.183   0.077 -33.219  1.00  0.00    -0.248 NA
HETATM    3  C   UNL     1      -5.866  -0.045 -32.980  1.00  0.00     0.068 A 
HETATM    4  C   UNL     1      -5.036   1.050 -32.680  1.00  0.00     0.008 A 
HETATM    5  C   UNL     1      -5.679   2.304 -32.616  1.00  0.00     0.046 A 
HETATM    6  C   UNL     1      -7.041   2.434 -32.894  1.00  0.00     0.050 A 
HETATM    7  C   UNL     1      -5.304  -1.313 -33.046  1.00  0.00     0.032 A 
HETATM    8  C   UNL     1      -3.940  -1.531 -32.841  1.00  0.00     0.002 A 
HETATM    9  C   UNL     1      -3.107  -0.457 -32.569  1.00  0.00     0.001 A 
HETATM   10  C   UNL     1      -3.647   0.826 -32.494  1.00  0.00     0.015 A 
ENDROOT
BRANCH   5  11
HETATM   11  C   UNL     1      -4.972   3.561 -32.279  1.00  0.00     0.252 C 
HETATM   12  N   UNL     1      -4.217   4.110 -33.285  1.00  0.00    -0.354 N 
HETATM   13  H   UNL     1      -4.180   3.679 -34.203  1.00  0.00     0.162 HD
HETATM   14  O   UNL     1      -5.042   4.008 -31.142  1.00  0.00    -0.268 OA
BRANCH  12  15
HETATM   15  C   UNL     1      -3.496   5.361 -33.128  1.00  0.00     0.154 C 
BRANCH  15  16
HETATM   16  C   UNL     1      -2.916   5.858 -34.460  1.00  0.00     0.132 C 
HETATM   17  C   UNL     1      -1.534   5.282 -34.745  1.00  0.00     0.041 C 
BRANCH  16  18
HETATM   18  O   UNL     1      -3.804   5.493 -35.522  1.00  0.00    -0.394 OA
HETATM   19  H   UNL     1      -3.269   5.419 -36.331  1.00  0.00     0.210 HD
ENDBRANCH  16  18
ENDBRANCH  15  16
ENDBRANCH  12  15
ENDBRANCH   5  11
BRANCH   1  20
HETATM   20  C   UNL     1      -9.215   1.324 -33.534  1.00  0.00    -0.007 A 
HETATM   21  C   UNL     1      -9.756   2.352 -34.327  1.00  0.00     0.014 A 
HETATM   22  C   UNL     1     -11.118   2.401 -34.646  1.00  0.00     0.007 A 
HETATM   23  C   UNL     1     -11.991   1.422 -34.168  1.00  0.00    -0.062 A 
HETATM   24  C   UNL     1     -13.450   1.452 -34.512  1.00  0.00     0.048 C 
HETATM   25  C   UNL     1     -11.476   0.389 -33.381  1.00  0.00     0.007 A 
HETATM   26  C   UNL     1     -10.111   0.347 -33.064  1.00  0.00     0.014 A 
ENDBRANCH   1  20
TORSDOF 5
ENDMDL
MODEL 9
REMARK VINA RESULT:      -7.7      2.169      2.462
REMARK  5 active torsions:
REMARK  status: ('A' for Active; 'I' for Inactive)
REMARK    1  A    between atoms: C_5  and  C_6 
REMARK    2  A    between atoms: C_10  and  C_11 
REMARK       I    between atoms: C_11  and  N_12 
REMARK    3  A    between atoms: N_12  and  C_13 
REMARK    4  A    between atoms: C_13  and  C_14 
REMARK    5  A    between atoms: C_14  and  O_15 
ROOT
HETATM    1  C   UNL     1      -5.845   0.516 -33.505  1.00  0.00     0.068 A 
HETATM    2  N   UNL     1      -7.107   0.708 -33.965  1.00  0.00    -0.248 NA
HETATM    3  C   UNL     1      -7.688   1.916 -33.862  1.00  0.00     0.068 A 
HETATM    4  C   UNL     1      -7.039   3.036 -33.314  1.00  0.00     0.008 A 
HETATM    5  C   UNL     1      -5.709   2.827 -32.893  1.00  0.00     0.046 A 
HETATM    6  C   UNL     1      -5.117   1.565 -32.972  1.00  0.00     0.050 A 
HETATM    7  C   UNL     1      -8.996   2.052 -34.311  1.00  0.00     0.032 A 
HETATM    8  C   UNL     1      -9.690   3.260 -34.218  1.00  0.00     0.002 A 
HETATM    9  C   UNL     1      -9.069   4.366 -33.656  1.00  0.00     0.001 A 
HETATM   10  C   UNL     1      -7.756   4.256 -33.202  1.00  0.00     0.015 A 
ENDROOT
BRANCH   5  11
HETATM   11  C   UNL     1      -4.860   3.898 -32.325  1.00  0.00     0.252 C 
HETATM   12  N   UNL     1      -3.747   4.231 -33.057  1.00  0.00    -0.354 N 
HETATM   13  H   UNL     1      -3.552   3.776 -33.943  1.00  0.00     0.162 HD
HETATM   14  O   UNL     1      -5.144   4.383 -31.238  1.00  0.00    -0.268 OA
BRANCH  12  15
HETATM   15  C   UNL     1      -2.836   5.288 -32.658  1.00  0.00     0.154 C 
BRANCH  15  16
HETATM   16  C   UNL     1      -2.974   6.530 -33.550  1.00  0.00     0.132 C 
HETATM   17  C   UNL     1      -1.766   7.454 -33.454  1.00  0.00     0.041 C 
BRANCH  16  18
HETATM   18  O   UNL     1      -3.139   6.113 -34.910  1.00  0.00    -0.394 OA
HETATM   19  H   UNL     1      -3.348   5.163 -34.895  1.00  0.00     0.210 HD
ENDBRANCH  16  18
ENDBRANCH  15  16
ENDBRANCH  12  15
ENDBRANCH   5  11
BRANCH   1  20
HETATM   20  C   UNL     1      -5.322  -0.866 -33.619  1.00  0.00    -0.007 A 
HETATM   21  C   UNL     1      -5.883  -1.775 -34.535  1.00  0.00     0.014 A 
HETATM   22  C   UNL     1      -5.412  -3.087 -34.656  1.00  0.00     0.007 A 
HETATM   23  C   UNL     1      -4.363  -3.539 -33.852  1.00  0.00    -0.062 A 
HETATM   24  C   UNL     1      -3.837  -4.936 -33.981  1.00  0.00     0.048 C 
HETATM   25  C   UNL     1      -3.788  -2.652 -32.939  1.00  0.00     0.007 A 
HETATM   26  C   UNL     1      -4.266  -1.340 -32.821  1.00  0.00     0.014 A 
ENDBRANCH   1  20
TORSDOF 5
ENDMDL
MODEL 10
REMARK VINA RESULT:      -7.6      2.855      7.560
REMARK  5 active torsions:
REMARK  status: ('A' for Active; 'I' for Inactive)
REMARK    1  A    between atoms: C_5  and  C_6 
REMARK    2  A    between atoms: C_10  and  C_11 
REMARK       I    between atoms: C_11  and  N_12 
REMARK    3  A    between atoms: N_12  and  C_13 
REMARK    4  A    between atoms: C_13  and  C_14 
REMARK    5  A    between atoms: C_14  and  O_15 
ROOT
HETATM    1  C   UNL     1      -4.306   2.398 -32.738  1.00  0.00     0.068 A 
HETATM    2  N   UNL     1      -5.566   2.653 -33.170  1.00  0.00    -0.248 NA
HETATM    3  C   UNL     1      -6.362   1.645 -33.570  1.00  0.00     0.068 A 
HETATM    4  C   UNL     1      -5.964   0.297 -33.542  1.00  0.00     0.008 A 
HETATM    5  C   UNL     1      -4.670   0.051 -33.036  1.00  0.00     0.046 A 
HETATM    6  C   UNL     1      -3.834   1.100 -32.650  1.00  0.00     0.050 A 
HETATM    7  C   UNL     1      -7.629   1.961 -34.042  1.00  0.00     0.032 A 
HETATM    8  C   UNL     1      -8.512   0.984 -34.505  1.00  0.00     0.002 A 
HETATM    9  C   UNL     1      -8.123  -0.347 -34.506  1.00  0.00     0.001 A 
HETATM   10  C   UNL     1      -6.857  -0.691 -34.034  1.00  0.00     0.015 A 
ENDROOT
BRANCH   5  11
HETATM   11  C   UNL     1      -4.098  -1.307 -32.899  1.00  0.00     0.252 C 
HETATM   12  N   UNL     1      -4.524  -2.231 -33.821  1.00  0.00    -0.354 N 
HETATM   13  H   UNL     1      -5.172  -1.971 -34.558  1.00  0.00     0.162 HD
HETATM   14  O   UNL     1      -3.343  -1.555 -31.969  1.00  0.00    -0.268 OA
BRANCH  12  15
HETATM   15  C   UNL     1      -4.027  -3.595 -33.849  1.00  0.00     0.154 C 
BRANCH  15  16
HETATM   16  C   UNL     1      -5.136  -4.602 -34.185  1.00  0.00     0.132 C 
HETATM   17  C   UNL     1      -6.049  -4.111 -35.302  1.00  0.00     0.041 C 
BRANCH  16  18
HETATM   18  O   UNL     1      -4.538  -5.842 -34.579  1.00  0.00    -0.394 OA
HETATM   19  H   UNL     1      -3.888  -5.639 -35.274  1.00  0.00     0.210 HD
ENDBRANCH  16  18
ENDBRANCH  15  16
ENDBRANCH  12  15
ENDBRANCH   5  11
BRANCH   1  20
HETATM   20  C   UNL     1      -3.499   3.586 -32.372  1.00  0.00    -0.007 A 
HETATM   21  C   UNL     1      -2.369   3.950 -33.129  1.00  0.00     0.014 A 
HETATM   22  C   UNL     1      -1.586   5.062 -32.799  1.00  0.00     0.007 A 
HETATM   23  C   UNL     1      -1.904   5.847 -31.689  1.00  0.00    -0.062 A 
HETATM   24  C   UNL     1      -1.085   7.050 -31.331  1.00  0.00     0.048 C 
HETATM   25  C   UNL     1      -3.024   5.507 -30.925  1.00  0.00     0.007 A 
HETATM   26  C   UNL     1      -3.803   4.390 -31.259  1.00  0.00     0.014 A 
ENDBRANCH   1  20
TORSDOF 5
ENDMDL
