MODEL 1
REMARK VINA RESULT:      -8.1      0.000      0.000
REMARK  8 active torsions:
REMARK  status: ('A' for Active; 'I' for Inactive)
REMARK    1  A    between atoms: C_2  and  O_3 
REMARK    2  A    between atoms: O_3  and  C_4 
REMARK       I    between atoms: C_4  and  N_5 
REMARK    3  A    between atoms: C_8  and  N_9 
REMARK       I    between atoms: N_9  and  C_10 
REMARK    4  A    between atoms: C_10  and  C_11 
REMARK    5  A    between atoms: C_12  and  C_13 
REMARK    6  A    between atoms: N_18  and  C_19 
REMARK    7  A    between atoms: C_19  and  C_20 
REMARK    8  A    between atoms: C_20  and  O_21 
ROOT
HETATM    1  C   UNL     1      -6.977   0.959 -33.025  1.00  0.00     0.139 C 
HETATM    2  C   UNL     1      -6.197   1.381 -31.756  1.00  0.00     0.145 C 
HETATM    3  N   UNL     1      -4.739   1.320 -32.003  1.00  0.00    -0.335 N 
HETATM    4  C   UNL     1      -4.200   0.178 -32.605  1.00  0.00     0.255 C 
HETATM    5  O   UNL     1      -2.999  -0.072 -32.614  1.00  0.00    -0.267 OA
HETATM    6  C   UNL     1      -5.141  -0.749 -33.296  1.00  0.00     0.039 A 
HETATM    7  C   UNL     1      -6.474  -0.381 -33.535  1.00  0.00    -0.027 A 
HETATM    8  C   UNL     1      -4.649  -1.974 -33.767  1.00  0.00     0.017 A 
HETATM    9  C   UNL     1      -5.473  -2.829 -34.496  1.00  0.00     0.001 A 
HETATM   10  C   UNL     1      -6.784  -2.453 -34.775  1.00  0.00     0.001 A 
HETATM   11  C   UNL     1      -7.279  -1.234 -34.310  1.00  0.00     0.009 A 
ENDROOT
BRANCH   1  12
HETATM   12  C   UNL     1      -8.485   0.978 -32.779  1.00  0.00     0.229 C 
HETATM   13  N   UNL     1      -9.226   1.817 -33.589  1.00  0.00    -0.356 N 
HETATM   14  H   UNL     1      -8.735   2.523 -34.122  1.00  0.00     0.162 HD
HETATM   15  O   UNL     1      -8.990   0.310 -31.877  1.00  0.00    -0.273 OA
BRANCH  13  16
HETATM   16  C   UNL     1     -10.660   2.001 -33.368  1.00  0.00     0.087 C 
HETATM   17  C   UNL     1     -10.929   3.137 -32.369  1.00  0.00     0.045 C 
HETATM   18  C   UNL     1     -10.696   4.509 -32.992  1.00  0.00     0.130 C 
HETATM   19  N   UNL     1     -11.446   4.640 -34.232  1.00  0.00    -0.328 N 
HETATM   20  C   UNL     1     -12.337   5.687 -34.394  1.00  0.00     0.362 C 
HETATM   21  C   UNL     1     -11.181   3.630 -35.251  1.00  0.00     0.130 C 
HETATM   22  O   UNL     1     -12.528   6.557 -33.553  1.00  0.00    -0.238 OA
HETATM   23  C   UNL     1     -11.404   2.229 -34.690  1.00  0.00     0.045 C 
BRANCH  20  24
HETATM   24  O   UNL     1     -12.988   5.634 -35.587  1.00  0.00    -0.304 OA
BRANCH  24  25
HETATM   25  C   UNL     1     -13.955   6.666 -35.829  1.00  0.00     0.176 C 
HETATM   26  C   UNL     1     -14.023   6.971 -37.312  1.00  0.00     0.034 C 
ENDBRANCH  24  25
ENDBRANCH  20  24
ENDBRANCH  13  16
ENDBRANCH   1  12
BRANCH   2  27
HETATM   27  C   UNL     1      -6.651   2.736 -31.255  1.00  0.00     0.006 A 
HETATM   28  S   UNL     1      -6.672   4.070 -32.345  1.00  0.00    -0.104 SA
HETATM   29  C   UNL     1      -7.226   5.138 -31.134  1.00  0.00     0.050 A 
HETATM   30  C   UNL     1      -7.385   4.507 -29.922  1.00  0.00     0.008 A 
HETATM   31  C   UNL     1      -7.049   3.123 -29.988  1.00  0.00     0.017 A 
ENDBRANCH   2  27
BRANCH   3  32
HETATM   32  C   UNL     1      -3.785   2.205 -31.316  1.00  0.00     0.153 C 
BRANCH  32  33
HETATM   33  C   UNL     1      -3.130   3.192 -32.290  1.00  0.00     0.187 C 
BRANCH  33  34
HETATM   34  O   UNL     1      -2.050   3.868 -31.644  1.00  0.00    -0.394 OA
HETATM   35  C   UNL     1      -1.547   4.923 -32.455  1.00  0.00     0.201 C 
ENDBRANCH  33  34
ENDBRANCH  32  33
ENDBRANCH   3  32
TORSDOF 8
ENDMDL
MODEL 2
REMARK VINA RESULT:      -7.9      2.581      7.009
REMARK  8 active torsions:
REMARK  status: ('A' for Active; 'I' for Inactive)
REMARK    1  A    between atoms: C_2  and  O_3 
REMARK    2  A    between atoms: O_3  and  C_4 
REMARK       I    between atoms: C_4  and  N_5 
REMARK    3  A    between atoms: C_8  and  N_9 
REMARK       I    between atoms: N_9  and  C_10 
REMARK    4  A    between atoms: C_10  and  C_11 
REMARK    5  A    between atoms: C_12  and  C_13 
REMARK    6  A    between atoms: N_18  and  C_19 
REMARK    7  A    between atoms: C_19  and  C_20 
REMARK    8  A    between atoms: C_20  and  O_21 
ROOT
HETATM    1  C   UNL     1      -6.444   1.606 -32.077  1.00  0.00     0.139 C 
HETATM    2  C   UNL     1      -7.171   2.532 -33.082  1.00  0.00     0.145 C 
HETATM    3  N   UNL     1      -8.186   1.770 -33.843  1.00  0.00    -0.335 N 
HETATM    4  C   UNL     1      -7.827   0.543 -34.412  1.00  0.00     0.255 C 
HETATM    5  O   UNL     1      -8.506  -0.025 -35.262  1.00  0.00    -0.267 OA
HETATM    6  C   UNL     1      -6.579  -0.106 -33.924  1.00  0.00     0.039 A 
HETATM    7  C   UNL     1      -5.913   0.370 -32.784  1.00  0.00    -0.027 A 
HETATM    8  C   UNL     1      -6.116  -1.252 -34.588  1.00  0.00     0.017 A 
HETATM    9  C   UNL     1      -5.003  -1.940 -34.109  1.00  0.00     0.001 A 
HETATM   10  C   UNL     1      -4.363  -1.500 -32.954  1.00  0.00     0.001 A 
HETATM   11  C   UNL     1      -4.820  -0.362 -32.288  1.00  0.00     0.009 A 
ENDROOT
BRANCH   1  12
HETATM   12  C   UNL     1      -5.364   2.365 -31.307  1.00  0.00     0.229 C 
HETATM   13  N   UNL     1      -4.536   3.179 -32.057  1.00  0.00    -0.356 N 
HETATM   14  H   UNL     1      -4.531   3.059 -33.062  1.00  0.00     0.162 HD
HETATM   15  O   UNL     1      -5.224   2.215 -30.094  1.00  0.00    -0.273 OA
BRANCH  13  16
HETATM   16  C   UNL     1      -3.399   3.863 -31.444  1.00  0.00     0.087 C 
HETATM   17  C   UNL     1      -2.253   4.050 -32.450  1.00  0.00     0.045 C 
HETATM   18  C   UNL     1      -2.560   5.148 -33.463  1.00  0.00     0.130 C 
HETATM   19  N   UNL     1      -2.939   6.378 -32.783  1.00  0.00    -0.328 N 
HETATM   20  C   UNL     1      -2.248   7.550 -33.035  1.00  0.00     0.362 C 
HETATM   21  C   UNL     1      -4.070   6.280 -31.866  1.00  0.00     0.130 C 
HETATM   22  O   UNL     1      -1.325   7.638 -33.837  1.00  0.00    -0.238 OA
HETATM   23  C   UNL     1      -3.821   5.199 -30.819  1.00  0.00     0.045 C 
BRANCH  20  24
HETATM   24  O   UNL     1      -2.698   8.589 -32.284  1.00  0.00    -0.304 OA
BRANCH  24  25
HETATM   25  C   UNL     1      -1.869   8.980 -31.179  1.00  0.00     0.176 C 
HETATM   26  C   UNL     1      -2.590  10.011 -30.333  1.00  0.00     0.034 C 
ENDBRANCH  24  25
ENDBRANCH  20  24
ENDBRANCH  13  16
ENDBRANCH   1  12
BRANCH   2  27
HETATM   27  C   UNL     1      -7.749   3.749 -32.390  1.00  0.00     0.006 A 
HETATM   28  S   UNL     1      -7.473   5.309 -33.065  1.00  0.00    -0.104 SA
HETATM   29  C   UNL     1      -8.342   6.079 -31.813  1.00  0.00     0.050 A 
HETATM   30  C   UNL     1      -8.826   5.180 -30.891  1.00  0.00     0.008 A 
HETATM   31  C   UNL     1      -8.481   3.837 -31.219  1.00  0.00     0.017 A 
ENDBRANCH   2  27
BRANCH   3  32
HETATM   32  C   UNL     1      -9.416   2.393 -34.359  1.00  0.00     0.153 C 
BRANCH  32  33
HETATM   33  C   UNL     1     -10.652   1.927 -33.581  1.00  0.00     0.187 C 
BRANCH  33  34
HETATM   34  O   UNL     1     -11.597   1.338 -34.476  1.00  0.00    -0.394 OA
HETATM   35  C   UNL     1     -12.301   2.335 -35.207  1.00  0.00     0.201 C 
ENDBRANCH  33  34
ENDBRANCH  32  33
ENDBRANCH   3  32
TORSDOF 8
ENDMDL
MODEL 3
REMARK VINA RESULT:      -7.6      2.965      7.115
REMARK  8 active torsions:
REMARK  status: ('A' for Active; 'I' for Inactive)
REMARK    1  A    between atoms: C_2  and  O_3 
REMARK    2  A    between atoms: O_3  and  C_4 
REMARK       I    between atoms: C_4  and  N_5 
REMARK    3  A    between atoms: C_8  and  N_9 
REMARK       I    between atoms: N_9  and  C_10 
REMARK    4  A    between atoms: C_10  and  C_11 
REMARK    5  A    between atoms: C_12  and  C_13 
REMARK    6  A    between atoms: N_18  and  C_19 
REMARK    7  A    between atoms: C_19  and  C_20 
REMARK    8  A    between atoms: C_20  and  O_21 
ROOT
HETATM    1  C   UNL     1      -5.287   1.646 -31.970  1.00  0.00     0.139 C 
HETATM    2  C   UNL     1      -6.338   2.695 -32.406  1.00  0.00     0.145 C 
HETATM    3  N   UNL     1      -7.681   2.078 -32.477  1.00  0.00    -0.335 N 
HETATM    4  C   UNL     1      -7.835   0.860 -33.146  1.00  0.00     0.255 C 
HETATM    5  O   UNL     1      -8.927   0.410 -33.477  1.00  0.00    -0.267 OA
HETATM    6  C   UNL     1      -6.605   0.068 -33.430  1.00  0.00     0.039 A 
HETATM    7  C   UNL     1      -5.374   0.411 -32.851  1.00  0.00    -0.027 A 
HETATM    8  C   UNL     1      -6.715  -1.074 -34.236  1.00  0.00     0.017 A 
HETATM    9  C   UNL     1      -5.607  -1.891 -34.452  1.00  0.00     0.001 A 
HETATM   10  C   UNL     1      -4.393  -1.583 -33.846  1.00  0.00     0.001 A 
HETATM   11  C   UNL     1      -4.278  -0.449 -33.041  1.00  0.00     0.009 A 
ENDROOT
BRANCH   1  12
HETATM   12  C   UNL     1      -3.885   2.252 -31.929  1.00  0.00     0.229 C 
HETATM   13  N   UNL     1      -3.661   3.332 -32.762  1.00  0.00    -0.356 N 
HETATM   14  H   UNL     1      -4.330   3.514 -33.499  1.00  0.00     0.162 HD
HETATM   15  O   UNL     1      -3.003   1.768 -31.221  1.00  0.00    -0.273 OA
BRANCH  13  16
HETATM   16  C   UNL     1      -2.327   3.920 -32.889  1.00  0.00     0.087 C 
HETATM   17  C   UNL     1      -2.321   5.074 -33.903  1.00  0.00     0.045 C 
HETATM   18  C   UNL     1      -2.985   6.327 -33.341  1.00  0.00     0.130 C 
HETATM   19  N   UNL     1      -2.399   6.682 -32.057  1.00  0.00    -0.328 N 
HETATM   20  C   UNL     1      -1.861   7.943 -31.867  1.00  0.00     0.362 C 
HETATM   21  C   UNL     1      -2.439   5.649 -31.028  1.00  0.00     0.130 C 
HETATM   22  O   UNL     1      -1.866   8.823 -32.721  1.00  0.00    -0.238 OA
HETATM   23  C   UNL     1      -1.782   4.366 -31.527  1.00  0.00     0.045 C 
BRANCH  20  24
HETATM   24  O   UNL     1      -1.315   8.093 -30.631  1.00  0.00    -0.304 OA
BRANCH  24  25
HETATM   25  C   UNL     1      -1.891   9.112 -29.802  1.00  0.00     0.176 C 
HETATM   26  C   UNL     1      -2.638   8.476 -28.646  1.00  0.00     0.034 C 
ENDBRANCH  24  25
ENDBRANCH  20  24
ENDBRANCH  13  16
ENDBRANCH   1  12
BRANCH   2  27
HETATM   27  C   UNL     1      -6.299   3.917 -31.512  1.00  0.00     0.006 A 
HETATM   28  S   UNL     1      -6.388   5.482 -32.225  1.00  0.00    -0.104 SA
HETATM   29  C   UNL     1      -6.271   6.255 -30.708  1.00  0.00     0.050 A 
HETATM   30  C   UNL     1      -6.156   5.352 -29.676  1.00  0.00     0.008 A 
HETATM   31  C   UNL     1      -6.167   4.004 -30.138  1.00  0.00     0.017 A 
ENDBRANCH   2  27
BRANCH   3  32
HETATM   32  C   UNL     1      -8.914   2.844 -32.226  1.00  0.00     0.153 C 
BRANCH  32  33
HETATM   33  C   UNL     1      -9.494   2.541 -30.840  1.00  0.00     0.187 C 
BRANCH  33  34
HETATM   34  O   UNL     1      -9.759   3.761 -30.145  1.00  0.00    -0.394 OA
HETATM   35  C   UNL     1      -9.918   4.843 -31.054  1.00  0.00     0.201 C 
ENDBRANCH  33  34
ENDBRANCH  32  33
ENDBRANCH   3  32
TORSDOF 8
ENDMDL
MODEL 4
REMARK VINA RESULT:      -7.5      2.592      5.172
REMARK  8 active torsions:
REMARK  status: ('A' for Active; 'I' for Inactive)
REMARK    1  A    between atoms: C_2  and  O_3 
REMARK    2  A    between atoms: O_3  and  C_4 
REMARK       I    between atoms: C_4  and  N_5 
REMARK    3  A    between atoms: C_8  and  N_9 
REMARK       I    between atoms: N_9  and  C_10 
REMARK    4  A    between atoms: C_10  and  C_11 
REMARK    5  A    between atoms: C_12  and  C_13 
REMARK    6  A    between atoms: N_18  and  C_19 
REMARK    7  A    between atoms: C_19  and  C_20 
REMARK    8  A    between atoms: C_20  and  O_21 
ROOT
HETATM    1  C   UNL     1      -6.514   3.871 -32.435  1.00  0.00     0.139 C 
HETATM    2  C   UNL     1      -5.753   2.781 -33.229  1.00  0.00     0.145 C 
HETATM    3  N   UNL     1      -4.637   2.241 -32.421  1.00  0.00    -0.335 N 
HETATM    4  C   UNL     1      -3.772   3.133 -31.776  1.00  0.00     0.255 C 
HETATM    5  O   UNL     1      -2.689   2.796 -31.309  1.00  0.00    -0.267 OA
HETATM    6  C   UNL     1      -4.222   4.545 -31.626  1.00  0.00     0.039 A 
HETATM    7  C   UNL     1      -5.546   4.917 -31.909  1.00  0.00    -0.027 A 
HETATM    8  C   UNL     1      -3.313   5.489 -31.129  1.00  0.00     0.017 A 
HETATM    9  C   UNL     1      -3.720   6.800 -30.890  1.00  0.00     0.001 A 
HETATM   10  C   UNL     1      -5.041   7.167 -31.126  1.00  0.00     0.001 A 
HETATM   11  C   UNL     1      -5.952   6.232 -31.620  1.00  0.00     0.009 A 
ENDROOT
BRANCH   1  12
HETATM   12  C   UNL     1      -7.648   4.469 -33.266  1.00  0.00     0.229 C 
HETATM   13  N   UNL     1      -8.930   4.256 -32.795  1.00  0.00    -0.356 N 
HETATM   14  H   UNL     1      -9.067   3.548 -32.085  1.00  0.00     0.162 HD
HETATM   15  O   UNL     1      -7.420   5.067 -34.317  1.00  0.00    -0.273 OA
BRANCH  13  16
HETATM   16  C   UNL     1     -10.096   4.684 -33.568  1.00  0.00     0.087 C 
HETATM   17  C   UNL     1     -10.487   3.631 -34.615  1.00  0.00     0.045 C 
HETATM   18  C   UNL     1     -11.165   2.422 -33.979  1.00  0.00     0.130 C 
HETATM   19  N   UNL     1     -12.276   2.843 -33.139  1.00  0.00    -0.328 N 
HETATM   20  C   UNL     1     -13.544   2.336 -33.364  1.00  0.00     0.362 C 
HETATM   21  C   UNL     1     -11.953   3.790 -32.078  1.00  0.00     0.130 C 
HETATM   22  O   UNL     1     -13.804   1.509 -34.230  1.00  0.00    -0.238 OA
HETATM   23  C   UNL     1     -11.276   5.031 -32.651  1.00  0.00     0.045 C 
BRANCH  20  24
HETATM   24  O   UNL     1     -14.471   2.867 -32.524  1.00  0.00    -0.304 OA
BRANCH  24  25
HETATM   25  C   UNL     1     -15.534   1.993 -32.117  1.00  0.00     0.176 C 
HETATM   26  C   UNL     1     -16.854   2.740 -32.141  1.00  0.00     0.034 C 
ENDBRANCH  24  25
ENDBRANCH  20  24
ENDBRANCH  13  16
ENDBRANCH   1  12
BRANCH   2  27
HETATM   27  C   UNL     1      -6.694   1.702 -33.724  1.00  0.00     0.006 A 
HETATM   28  S   UNL     1      -7.708   0.889 -32.595  1.00  0.00    -0.104 SA
HETATM   29  C   UNL     1      -8.385  -0.099 -33.810  1.00  0.00     0.050 A 
HETATM   30  C   UNL     1      -7.850   0.167 -35.050  1.00  0.00     0.008 A 
HETATM   31  C   UNL     1      -6.872   1.202 -35.001  1.00  0.00     0.017 A 
ENDBRANCH   2  27
BRANCH   3  32
HETATM   32  C   UNL     1      -4.155   0.858 -32.567  1.00  0.00     0.153 C 
BRANCH  32  33
HETATM   33  C   UNL     1      -4.279   0.077 -31.253  1.00  0.00     0.187 C 
BRANCH  33  34
HETATM   34  O   UNL     1      -3.146  -0.777 -31.086  1.00  0.00    -0.394 OA
HETATM   35  C   UNL     1      -3.211  -1.893 -31.966  1.00  0.00     0.201 C 
ENDBRANCH  33  34
ENDBRANCH  32  33
ENDBRANCH   3  32
TORSDOF 8
ENDMDL
MODEL 5
REMARK VINA RESULT:      -7.5      3.335      8.571
REMARK  8 active torsions:
REMARK  status: ('A' for Active; 'I' for Inactive)
REMARK    1  A    between atoms: C_2  and  O_3 
REMARK    2  A    between atoms: O_3  and  C_4 
REMARK       I    between atoms: C_4  and  N_5 
REMARK    3  A    between atoms: C_8  and  N_9 
REMARK       I    between atoms: N_9  and  C_10 
REMARK    4  A    between atoms: C_10  and  C_11 
REMARK    5  A    between atoms: C_12  and  C_13 
REMARK    6  A    between atoms: N_18  and  C_19 
REMARK    7  A    between atoms: C_19  and  C_20 
REMARK    8  A    between atoms: C_20  and  O_21 
ROOT
HETATM    1  C   UNL     1      -4.727   2.879 -31.489  1.00  0.00     0.139 C 
HETATM    2  C   UNL     1      -6.176   3.378 -31.706  1.00  0.00     0.145 C 
HETATM    3  N   UNL     1      -7.143   2.407 -31.146  1.00  0.00    -0.335 N 
HETATM    4  C   UNL     1      -6.996   1.050 -31.450  1.00  0.00     0.255 C 
HETATM    5  O   UNL     1      -7.877   0.219 -31.254  1.00  0.00    -0.267 OA
HETATM    6  C   UNL     1      -5.686   0.604 -32.004  1.00  0.00     0.039 A 
HETATM    7  C   UNL     1      -4.572   1.459 -32.005  1.00  0.00    -0.027 A 
HETATM    8  C   UNL     1      -5.567  -0.715 -32.463  1.00  0.00     0.017 A 
HETATM    9  C   UNL     1      -4.337  -1.197 -32.905  1.00  0.00     0.001 A 
HETATM   10  C   UNL     1      -3.218  -0.371 -32.869  1.00  0.00     0.001 A 
HETATM   11  C   UNL     1      -3.329   0.943 -32.411  1.00  0.00     0.009 A 
ENDROOT
BRANCH   1  12
HETATM   12  C   UNL     1      -3.712   3.849 -32.094  1.00  0.00     0.229 C 
HETATM   13  N   UNL     1      -2.796   4.401 -31.218  1.00  0.00    -0.356 N 
HETATM   14  H   UNL     1      -2.979   4.325 -30.226  1.00  0.00     0.162 HD
HETATM   15  O   UNL     1      -3.749   4.145 -33.287  1.00  0.00    -0.273 OA
BRANCH  13  16
HETATM   16  C   UNL     1      -1.853   5.426 -31.664  1.00  0.00     0.087 C 
HETATM   17  C   UNL     1      -2.394   6.837 -31.391  1.00  0.00     0.045 C 
HETATM   18  C   UNL     1      -2.319   7.198 -29.911  1.00  0.00     0.130 C 
HETATM   19  N   UNL     1      -0.972   6.987 -29.402  1.00  0.00    -0.328 N 
HETATM   20  C   UNL     1      -0.292   8.026 -28.792  1.00  0.00     0.362 C 
HETATM   21  C   UNL     1      -0.429   5.643 -29.569  1.00  0.00     0.130 C 
HETATM   22  O   UNL     1      -0.767   9.142 -28.617  1.00  0.00    -0.238 OA
HETATM   23  C   UNL     1      -0.470   5.223 -31.034  1.00  0.00     0.045 C 
BRANCH  20  24
HETATM   24  O   UNL     1       0.967   7.673 -28.419  1.00  0.00    -0.304 OA
BRANCH  24  25
HETATM   25  C   UNL     1       1.636   8.567 -27.517  1.00  0.00     0.176 C 
HETATM   26  C   UNL     1       1.805   7.904 -26.165  1.00  0.00     0.034 C 
ENDBRANCH  24  25
ENDBRANCH  20  24
ENDBRANCH  13  16
ENDBRANCH   1  12
BRANCH   2  27
HETATM   27  C   UNL     1      -6.365   4.777 -31.157  1.00  0.00     0.006 A 
HETATM   28  S   UNL     1      -6.039   5.078 -29.493  1.00  0.00    -0.104 SA
HETATM   29  C   UNL     1      -6.470   6.723 -29.635  1.00  0.00     0.050 A 
HETATM   30  C   UNL     1      -6.866   7.044 -30.913  1.00  0.00     0.008 A 
HETATM   31  C   UNL     1      -6.810   5.923 -31.791  1.00  0.00     0.017 A 
ENDBRANCH   2  27
BRANCH   3  32
HETATM   32  C   UNL     1      -8.454   2.818 -30.617  1.00  0.00     0.153 C 
BRANCH  32  33
HETATM   33  C   UNL     1      -9.481   3.009 -31.740  1.00  0.00     0.187 C 
BRANCH  33  34
HETATM   34  O   UNL     1     -10.532   3.869 -31.297  1.00  0.00    -0.394 OA
HETATM   35  C   UNL     1     -10.036   4.876 -30.422  1.00  0.00     0.201 C 
ENDBRANCH  33  34
ENDBRANCH  32  33
ENDBRANCH   3  32
TORSDOF 8
ENDMDL
MODEL 6
REMARK VINA RESULT:      -7.3      2.919      8.258
REMARK  8 active torsions:
REMARK  status: ('A' for Active; 'I' for Inactive)
REMARK    1  A    between atoms: C_2  and  O_3 
REMARK    2  A    between atoms: O_3  and  C_4 
REMARK       I    between atoms: C_4  and  N_5 
REMARK    3  A    between atoms: C_8  and  N_9 
REMARK       I    between atoms: N_9  and  C_10 
REMARK    4  A    between atoms: C_10  and  C_11 
REMARK    5  A    between atoms: C_12  and  C_13 
REMARK    6  A    between atoms: N_18  and  C_19 
REMARK    7  A    between atoms: C_19  and  C_20 
REMARK    8  A    between atoms: C_20  and  O_21 
ROOT
HETATM    1  C   UNL     1     -10.936   2.738 -32.778  1.00  0.00     0.139 C 
HETATM    2  C   UNL     1     -11.238   4.208 -32.400  1.00  0.00     0.145 C 
HETATM    3  N   UNL     1     -12.396   4.276 -31.481  1.00  0.00    -0.335 N 
HETATM    4  C   UNL     1     -13.554   3.558 -31.794  1.00  0.00     0.255 C 
HETATM    5  O   UNL     1     -14.634   3.753 -31.244  1.00  0.00    -0.267 OA
HETATM    6  C   UNL     1     -13.445   2.484 -32.821  1.00  0.00     0.039 A 
HETATM    7  C   UNL     1     -12.194   2.053 -33.287  1.00  0.00    -0.027 A 
HETATM    8  C   UNL     1     -14.620   1.861 -33.266  1.00  0.00     0.017 A 
HETATM    9  C   UNL     1     -14.554   0.793 -34.159  1.00  0.00     0.001 A 
HETATM   10  C   UNL     1     -13.315   0.330 -34.592  1.00  0.00     0.001 A 
HETATM   11  C   UNL     1     -12.143   0.945 -34.152  1.00  0.00     0.009 A 
ENDROOT
BRANCH   1  12
HETATM   12  C   UNL     1      -9.768   2.647 -33.758  1.00  0.00     0.229 C 
HETATM   13  N   UNL     1      -8.728   1.812 -33.394  1.00  0.00    -0.356 N 
HETATM   14  H   UNL     1      -8.681   1.497 -32.434  1.00  0.00     0.162 HD
HETATM   15  O   UNL     1      -9.748   3.320 -34.788  1.00  0.00    -0.273 OA
BRANCH  13  16
HETATM   16  C   UNL     1      -7.509   1.735 -34.199  1.00  0.00     0.087 C 
HETATM   17  C   UNL     1      -6.261   1.619 -33.311  1.00  0.00     0.045 C 
HETATM   18  C   UNL     1      -6.125   0.229 -32.700  1.00  0.00     0.130 C 
HETATM   19  N   UNL     1      -6.195  -0.792 -33.735  1.00  0.00    -0.328 N 
HETATM   20  C   UNL     1      -5.167  -1.709 -33.873  1.00  0.00     0.362 C 
HETATM   21  C   UNL     1      -7.393  -0.779 -34.567  1.00  0.00     0.130 C 
HETATM   22  O   UNL     1      -4.182  -1.743 -33.145  1.00  0.00    -0.238 OA
HETATM   23  C   UNL     1      -7.583   0.589 -35.216  1.00  0.00     0.045 C 
BRANCH  20  24
HETATM   24  O   UNL     1      -5.368  -2.559 -34.914  1.00  0.00    -0.304 OA
BRANCH  24  25
HETATM   25  C   UNL     1      -5.405  -3.957 -34.594  1.00  0.00     0.176 C 
HETATM   26  C   UNL     1      -6.741  -4.545 -35.003  1.00  0.00     0.034 C 
ENDBRANCH  24  25
ENDBRANCH  20  24
ENDBRANCH  13  16
ENDBRANCH   1  12
BRANCH   2  27
HETATM   27  C   UNL     1     -10.008   4.897 -31.846  1.00  0.00     0.006 A 
HETATM   28  S   UNL     1      -9.198   4.210 -30.491  1.00  0.00    -0.104 SA
HETATM   29  C   UNL     1      -8.040   5.464 -30.460  1.00  0.00     0.050 A 
HETATM   30  C   UNL     1      -8.262   6.396 -31.448  1.00  0.00     0.008 A 
HETATM   31  C   UNL     1      -9.399   6.074 -32.245  1.00  0.00     0.017 A 
ENDBRANCH   2  27
BRANCH   3  32
HETATM   32  C   UNL     1     -12.541   5.341 -30.474  1.00  0.00     0.153 C 
BRANCH  32  33
HETATM   33  C   UNL     1     -13.002   6.658 -31.110  1.00  0.00     0.187 C 
BRANCH  33  34
HETATM   34  O   UNL     1     -14.000   7.270 -30.291  1.00  0.00    -0.394 OA
HETATM   35  C   UNL     1     -14.238   6.506 -29.115  1.00  0.00     0.201 C 
ENDBRANCH  33  34
ENDBRANCH  32  33
ENDBRANCH   3  32
TORSDOF 8
ENDMDL
MODEL 7
REMARK VINA RESULT:      -7.2      2.628      7.752
REMARK  8 active torsions:
REMARK  status: ('A' for Active; 'I' for Inactive)
REMARK    1  A    between atoms: C_2  and  O_3 
REMARK    2  A    between atoms: O_3  and  C_4 
REMARK       I    between atoms: C_4  and  N_5 
REMARK    3  A    between atoms: C_8  and  N_9 
REMARK       I    between atoms: N_9  and  C_10 
REMARK    4  A    between atoms: C_10  and  C_11 
REMARK    5  A    between atoms: C_12  and  C_13 
REMARK    6  A    between atoms: N_18  and  C_19 
REMARK    7  A    between atoms: C_19  and  C_20 
REMARK    8  A    between atoms: C_20  and  O_21 
ROOT
HETATM    1  C   UNL     1      -6.761   2.297 -32.962  1.00  0.00     0.139 C 
HETATM    2  C   UNL     1      -8.191   2.766 -33.325  1.00  0.00     0.145 C 
HETATM    3  N   UNL     1      -9.195   1.833 -32.769  1.00  0.00    -0.335 N 
HETATM    4  C   UNL     1      -9.022   0.458 -32.957  1.00  0.00     0.255 C 
HETATM    5  O   UNL     1      -9.914  -0.363 -32.765  1.00  0.00    -0.267 OA
HETATM    6  C   UNL     1      -7.673  -0.018 -33.374  1.00  0.00     0.039 A 
HETATM    7  C   UNL     1      -6.564   0.843 -33.355  1.00  0.00    -0.027 A 
HETATM    8  C   UNL     1      -7.516  -1.368 -33.721  1.00  0.00     0.017 A 
HETATM    9  C   UNL     1      -6.255  -1.872 -34.031  1.00  0.00     0.001 A 
HETATM   10  C   UNL     1      -5.143  -1.036 -33.972  1.00  0.00     0.001 A 
HETATM   11  C   UNL     1      -5.292   0.307 -33.626  1.00  0.00     0.009 A 
ENDROOT
BRANCH   1  12
HETATM   12  C   UNL     1      -5.705   3.226 -33.560  1.00  0.00     0.229 C 
HETATM   13  N   UNL     1      -4.752   3.713 -32.685  1.00  0.00    -0.356 N 
HETATM   14  H   UNL     1      -4.927   3.626 -31.692  1.00  0.00     0.162 HD
HETATM   15  O   UNL     1      -5.741   3.549 -34.746  1.00  0.00    -0.273 OA
BRANCH  13  16
HETATM   16  C   UNL     1      -3.763   4.697 -33.122  1.00  0.00     0.087 C 
HETATM   17  C   UNL     1      -4.140   6.111 -32.653  1.00  0.00     0.045 C 
HETATM   18  C   UNL     1      -3.890   6.300 -31.160  1.00  0.00     0.130 C 
HETATM   19  N   UNL     1      -2.526   5.921 -30.819  1.00  0.00    -0.328 N 
HETATM   20  C   UNL     1      -1.696   6.826 -30.182  1.00  0.00     0.362 C 
HETATM   21  C   UNL     1      -2.131   4.563 -31.176  1.00  0.00     0.130 C 
HETATM   22  O   UNL     1      -2.044   7.953 -29.847  1.00  0.00    -0.238 OA
HETATM   23  C   UNL     1      -2.351   4.311 -32.664  1.00  0.00     0.045 C 
BRANCH  20  24
HETATM   24  O   UNL     1      -0.446   6.331 -29.981  1.00  0.00    -0.304 OA
BRANCH  24  25
HETATM   25  C   UNL     1       0.012   6.296 -28.621  1.00  0.00     0.176 C 
HETATM   26  C   UNL     1       0.863   7.517 -28.333  1.00  0.00     0.034 C 
ENDBRANCH  24  25
ENDBRANCH  20  24
ENDBRANCH  13  16
ENDBRANCH   1  12
BRANCH   2  27
HETATM   27  C   UNL     1      -8.424   4.201 -32.900  1.00  0.00     0.006 A 
HETATM   28  S   UNL     1      -9.023   5.332 -34.052  1.00  0.00    -0.104 SA
HETATM   29  C   UNL     1      -8.995   6.606 -32.918  1.00  0.00     0.050 A 
HETATM   30  C   UNL     1      -8.532   6.195 -31.689  1.00  0.00     0.008 A 
HETATM   31  C   UNL     1      -8.197   4.809 -31.679  1.00  0.00     0.017 A 
ENDBRANCH   2  27
BRANCH   3  32
HETATM   32  C   UNL     1     -10.544   2.271 -32.373  1.00  0.00     0.153 C 
BRANCH  32  33
HETATM   33  C   UNL     1     -11.478   2.382 -33.584  1.00  0.00     0.187 C 
BRANCH  33  34
HETATM   34  O   UNL     1     -12.721   2.965 -33.188  1.00  0.00    -0.394 OA
HETATM   35  C   UNL     1     -12.652   4.386 -33.214  1.00  0.00     0.201 C 
ENDBRANCH  33  34
ENDBRANCH  32  33
ENDBRANCH   3  32
TORSDOF 8
ENDMDL
MODEL 8
REMARK VINA RESULT:      -7.2      3.357      7.939
REMARK  8 active torsions:
REMARK  status: ('A' for Active; 'I' for Inactive)
REMARK    1  A    between atoms: C_2  and  O_3 
REMARK    2  A    between atoms: O_3  and  C_4 
REMARK       I    between atoms: C_4  and  N_5 
REMARK    3  A    between atoms: C_8  and  N_9 
REMARK       I    between atoms: N_9  and  C_10 
REMARK    4  A    between atoms: C_10  and  C_11 
REMARK    5  A    between atoms: C_12  and  C_13 
REMARK    6  A    between atoms: N_18  and  C_19 
REMARK    7  A    between atoms: C_19  and  C_20 
REMARK    8  A    between atoms: C_20  and  O_21 
ROOT
HETATM    1  C   UNL     1      -5.126   3.989 -31.587  1.00  0.00     0.139 C 
HETATM    2  C   UNL     1      -6.287   4.770 -30.925  1.00  0.00     0.145 C 
HETATM    3  N   UNL     1      -6.342   6.152 -31.448  1.00  0.00    -0.335 N 
HETATM    4  C   UNL     1      -5.163   6.902 -31.511  1.00  0.00     0.255 C 
HETATM    5  O   UNL     1      -5.150   8.117 -31.680  1.00  0.00    -0.267 OA
HETATM    6  C   UNL     1      -3.871   6.169 -31.402  1.00  0.00     0.039 A 
HETATM    7  C   UNL     1      -3.827   4.767 -31.466  1.00  0.00    -0.027 A 
HETATM    8  C   UNL     1      -2.685   6.911 -31.302  1.00  0.00     0.017 A 
HETATM    9  C   UNL     1      -1.451   6.265 -31.288  1.00  0.00     0.001 A 
HETATM   10  C   UNL     1      -1.395   4.878 -31.396  1.00  0.00     0.001 A 
HETATM   11  C   UNL     1      -2.571   4.134 -31.496  1.00  0.00     0.009 A 
ENDROOT
BRANCH   1  12
HETATM   12  C   UNL     1      -5.026   2.569 -31.032  1.00  0.00     0.229 C 
HETATM   13  N   UNL     1      -4.969   1.550 -31.965  1.00  0.00    -0.356 N 
HETATM   14  H   UNL     1      -5.222   1.763 -32.921  1.00  0.00     0.162 HD
HETATM   15  O   UNL     1      -5.042   2.357 -29.820  1.00  0.00    -0.273 OA
BRANCH  13  16
HETATM   16  C   UNL     1      -4.987   0.148 -31.548  1.00  0.00     0.087 C 
HETATM   17  C   UNL     1      -6.381  -0.470 -31.731  1.00  0.00     0.045 C 
HETATM   18  C   UNL     1      -6.693  -0.745 -33.199  1.00  0.00     0.130 C 
HETATM   19  N   UNL     1      -5.628  -1.529 -33.808  1.00  0.00    -0.328 N 
HETATM   20  C   UNL     1      -5.922  -2.732 -34.426  1.00  0.00     0.362 C 
HETATM   21  C   UNL     1      -4.288  -0.958 -33.729  1.00  0.00     0.130 C 
HETATM   22  O   UNL     1      -7.055  -3.189 -34.526  1.00  0.00    -0.238 OA
HETATM   23  C   UNL     1      -3.912  -0.665 -32.280  1.00  0.00     0.045 C 
BRANCH  20  24
HETATM   24  O   UNL     1      -4.811  -3.357 -34.898  1.00  0.00    -0.304 OA
BRANCH  24  25
HETATM   25  C   UNL     1      -4.537  -4.659 -34.359  1.00  0.00     0.176 C 
HETATM   26  C   UNL     1      -3.486  -4.557 -33.272  1.00  0.00     0.034 C 
ENDBRANCH  24  25
ENDBRANCH  20  24
ENDBRANCH  13  16
ENDBRANCH   1  12
BRANCH   2  27
HETATM   27  C   UNL     1      -7.602   4.032 -31.074  1.00  0.00     0.006 A 
HETATM   28  S   UNL     1      -8.160   3.621 -32.650  1.00  0.00    -0.104 SA
HETATM   29  C   UNL     1      -9.579   2.901 -32.033  1.00  0.00     0.050 A 
HETATM   30  C   UNL     1      -9.643   2.976 -30.661  1.00  0.00     0.008 A 
HETATM   31  C   UNL     1      -8.506   3.632 -30.106  1.00  0.00     0.017 A 
ENDBRANCH   2  27
BRANCH   3  32
HETATM   32  C   UNL     1      -7.601   6.909 -31.543  1.00  0.00     0.153 C 
BRANCH  32  33
HETATM   33  C   UNL     1      -8.052   7.426 -30.171  1.00  0.00     0.187 C 
BRANCH  33  34
HETATM   34  O   UNL     1      -9.386   6.990 -29.901  1.00  0.00    -0.394 OA
HETATM   35  C   UNL     1     -10.142   8.016 -29.270  1.00  0.00     0.201 C 
ENDBRANCH  33  34
ENDBRANCH  32  33
ENDBRANCH   3  32
TORSDOF 8
ENDMDL
MODEL 9
REMARK VINA RESULT:      -7.0      2.872      7.301
REMARK  8 active torsions:
REMARK  status: ('A' for Active; 'I' for Inactive)
REMARK    1  A    between atoms: C_2  and  O_3 
REMARK    2  A    between atoms: O_3  and  C_4 
REMARK       I    between atoms: C_4  and  N_5 
REMARK    3  A    between atoms: C_8  and  N_9 
REMARK       I    between atoms: N_9  and  C_10 
REMARK    4  A    between atoms: C_10  and  C_11 
REMARK    5  A    between atoms: C_12  and  C_13 
REMARK    6  A    between atoms: N_18  and  C_19 
REMARK    7  A    between atoms: C_19  and  C_20 
REMARK    8  A    between atoms: C_20  and  O_21 
ROOT
HETATM    1  C   UNL     1      -8.737   2.918 -31.270  1.00  0.00     0.139 C 
HETATM    2  C   UNL     1      -9.216   2.950 -32.741  1.00  0.00     0.145 C 
HETATM    3  N   UNL     1      -9.586   1.590 -33.191  1.00  0.00    -0.335 N 
HETATM    4  C   UNL     1      -8.709   0.529 -32.939  1.00  0.00     0.255 C 
HETATM    5  O   UNL     1      -8.802  -0.563 -33.490  1.00  0.00    -0.267 OA
HETATM    6  C   UNL     1      -7.640   0.743 -31.923  1.00  0.00     0.039 A 
HETATM    7  C   UNL     1      -7.650   1.872 -31.089  1.00  0.00    -0.027 A 
HETATM    8  C   UNL     1      -6.656  -0.243 -31.768  1.00  0.00     0.017 A 
HETATM    9  C   UNL     1      -5.691  -0.123 -30.770  1.00  0.00     0.001 A 
HETATM   10  C   UNL     1      -5.720   0.970 -29.909  1.00  0.00     0.001 A 
HETATM   11  C   UNL     1      -6.698   1.954 -30.057  1.00  0.00     0.009 A 
ENDROOT
BRANCH   1  12
HETATM   12  C   UNL     1      -8.313   4.308 -30.797  1.00  0.00     0.229 C 
HETATM   13  N   UNL     1      -7.276   4.902 -31.494  1.00  0.00    -0.356 N 
HETATM   14  H   UNL     1      -6.716   4.320 -32.104  1.00  0.00     0.162 HD
HETATM   15  O   UNL     1      -8.843   4.837 -29.821  1.00  0.00    -0.273 OA
BRANCH  13  16
HETATM   16  C   UNL     1      -6.713   6.179 -31.059  1.00  0.00     0.087 C 
HETATM   17  C   UNL     1      -5.663   5.978 -29.956  1.00  0.00     0.045 C 
HETATM   18  C   UNL     1      -4.357   5.418 -30.509  1.00  0.00     0.130 C 
HETATM   19  N   UNL     1      -3.882   6.233 -31.617  1.00  0.00    -0.328 N 
HETATM   20  C   UNL     1      -2.612   6.782 -31.578  1.00  0.00     0.362 C 
HETATM   21  C   UNL     1      -4.810   6.402 -32.731  1.00  0.00     0.130 C 
HETATM   22  O   UNL     1      -1.820   6.604 -30.660  1.00  0.00    -0.238 OA
HETATM   23  C   UNL     1      -6.139   6.968 -32.243  1.00  0.00     0.045 C 
BRANCH  20  24
HETATM   24  O   UNL     1      -2.346   7.552 -32.667  1.00  0.00    -0.304 OA
BRANCH  24  25
HETATM   25  C   UNL     1      -1.154   7.229 -33.397  1.00  0.00     0.176 C 
HETATM   26  C   UNL     1      -1.398   6.015 -34.272  1.00  0.00     0.034 C 
ENDBRANCH  24  25
ENDBRANCH  20  24
ENDBRANCH  13  16
ENDBRANCH   1  12
BRANCH   2  27
HETATM   27  C   UNL     1     -10.332   3.956 -32.936  1.00  0.00     0.006 A 
HETATM   28  S   UNL     1     -10.195   5.132 -34.186  1.00  0.00    -0.104 SA
HETATM   29  C   UNL     1     -11.694   5.838 -33.780  1.00  0.00     0.050 A 
HETATM   30  C   UNL     1     -12.289   5.209 -32.711  1.00  0.00     0.008 A 
HETATM   31  C   UNL     1     -11.503   4.126 -32.220  1.00  0.00     0.017 A 
ENDBRANCH   2  27
BRANCH   3  32
HETATM   32  C   UNL     1     -10.620   1.351 -34.212  1.00  0.00     0.153 C 
BRANCH  32  33
HETATM   33  C   UNL     1     -11.897   0.770 -33.594  1.00  0.00     0.187 C 
BRANCH  33  34
HETATM   34  O   UNL     1     -13.036   1.185 -34.351  1.00  0.00    -0.394 OA
HETATM   35  C   UNL     1     -12.696   2.225 -35.260  1.00  0.00     0.201 C 
ENDBRANCH  33  34
ENDBRANCH  32  33
ENDBRANCH   3  32
TORSDOF 8
ENDMDL
MODEL 10
REMARK VINA RESULT:      -6.9      3.329      5.758
REMARK  8 active torsions:
REMARK  status: ('A' for Active; 'I' for Inactive)
REMARK    1  A    between atoms: C_2  and  O_3 
REMARK    2  A    between atoms: O_3  and  C_4 
REMARK       I    between atoms: C_4  and  N_5 
REMARK    3  A    between atoms: C_8  and  N_9 
REMARK       I    between atoms: N_9  and  C_10 
REMARK    4  A    between atoms: C_10  and  C_11 
REMARK    5  A    between atoms: C_12  and  C_13 
REMARK    6  A    between atoms: N_18  and  C_19 
REMARK    7  A    between atoms: C_19  and  C_20 
REMARK    8  A    between atoms: C_20  and  O_21 
ROOT
HETATM    1  C   UNL     1      -7.280   3.207 -33.553  1.00  0.00     0.139 C 
HETATM    2  C   UNL     1      -6.055   2.967 -32.638  1.00  0.00     0.145 C 
HETATM    3  N   UNL     1      -5.554   1.584 -32.800  1.00  0.00    -0.335 N 
HETATM    4  C   UNL     1      -6.465   0.523 -32.760  1.00  0.00     0.255 C 
HETATM    5  O   UNL     1      -6.124  -0.648 -32.626  1.00  0.00    -0.267 OA
HETATM    6  C   UNL     1      -7.910   0.846 -32.926  1.00  0.00     0.039 A 
HETATM    7  C   UNL     1      -8.323   2.123 -33.336  1.00  0.00    -0.027 A 
HETATM    8  C   UNL     1      -8.851  -0.175 -32.732  1.00  0.00     0.017 A 
HETATM    9  C   UNL     1     -10.204   0.063 -32.964  1.00  0.00     0.001 A 
HETATM   10  C   UNL     1     -10.619   1.314 -33.413  1.00  0.00     0.001 A 
HETATM   11  C   UNL     1      -9.686   2.333 -33.610  1.00  0.00     0.009 A 
ENDROOT
BRANCH   1  12
HETATM   12  C   UNL     1      -7.838   4.618 -33.372  1.00  0.00     0.229 C 
HETATM   13  N   UNL     1      -8.060   5.025 -32.069  1.00  0.00    -0.356 N 
HETATM   14  H   UNL     1      -8.067   4.320 -31.343  1.00  0.00     0.162 HD
HETATM   15  O   UNL     1      -8.111   5.323 -34.342  1.00  0.00    -0.273 OA
BRANCH  13  16
HETATM   16  C   UNL     1      -8.697   6.310 -31.782  1.00  0.00     0.087 C 
HETATM   17  C   UNL     1      -9.638   6.207 -30.572  1.00  0.00     0.045 C 
HETATM   18  C   UNL     1      -8.869   6.123 -29.258  1.00  0.00     0.130 C 
HETATM   19  N   UNL     1      -7.914   7.217 -29.156  1.00  0.00    -0.328 N 
HETATM   20  C   UNL     1      -7.953   8.070 -28.067  1.00  0.00     0.362 C 
HETATM   21  C   UNL     1      -6.945   7.324 -30.242  1.00  0.00     0.130 C 
HETATM   22  O   UNL     1      -8.741   7.953 -27.137  1.00  0.00    -0.238 OA
HETATM   23  C   UNL     1      -7.654   7.418 -31.589  1.00  0.00     0.045 C 
BRANCH  20  24
HETATM   24  O   UNL     1      -7.026   9.061 -28.152  1.00  0.00    -0.304 OA
BRANCH  24  25
HETATM   25  C   UNL     1      -6.185   9.244 -27.004  1.00  0.00     0.176 C 
HETATM   26  C   UNL     1      -5.092   8.193 -26.993  1.00  0.00     0.034 C 
ENDBRANCH  24  25
ENDBRANCH  20  24
ENDBRANCH  13  16
ENDBRANCH   1  12
BRANCH   2  27
HETATM   27  C   UNL     1      -4.982   4.011 -32.870  1.00  0.00     0.006 A 
HETATM   28  S   UNL     1      -4.267   4.796 -31.514  1.00  0.00    -0.104 SA
HETATM   29  C   UNL     1      -3.266   5.754 -32.511  1.00  0.00     0.050 A 
HETATM   30  C   UNL     1      -3.471   5.499 -33.848  1.00  0.00     0.008 A 
HETATM   31  C   UNL     1      -4.464   4.497 -34.057  1.00  0.00     0.017 A 
ENDBRANCH   2  27
BRANCH   3  32
HETATM   32  C   UNL     1      -4.136   1.233 -32.617  1.00  0.00     0.153 C 
BRANCH  32  33
HETATM   33  C   UNL     1      -3.792   1.035 -31.136  1.00  0.00     0.187 C 
BRANCH  33  34
HETATM   34  O   UNL     1      -2.615   0.235 -31.012  1.00  0.00    -0.394 OA
HETATM   35  C   UNL     1      -2.700  -0.931 -31.823  1.00  0.00     0.201 C 
ENDBRANCH  33  34
ENDBRANCH  32  33
ENDBRANCH   3  32
TORSDOF 8
ENDMDL
