MODEL 1
REMARK VINA RESULT:      -9.2      0.000      0.000
REMARK  3 active torsions:
REMARK  status: ('A' for Active; 'I' for Inactive)
REMARK    1  A    between atoms: N_3  and  C_4 
REMARK    2  A    between atoms: C_12  and  C_13 
REMARK       I    between atoms: C_13  and  N_14 
REMARK    3  A    between atoms: N_14  and  C_15 
ROOT
HETATM    1  C   UNL     1     -12.644   5.242 -34.720  1.00  0.00     0.070 C 
HETATM    2  C   UNL     1     -11.561   4.272 -34.308  1.00  0.00     0.036 C 
HETATM    3  N   UNL     1     -11.883   3.074 -33.651  1.00  0.00    -0.235 N 
HETATM    4  N   UNL     1     -10.944   2.150 -33.250  1.00  0.00    -0.157 NA
HETATM    5  C   UNL     1      -9.687   2.436 -33.439  1.00  0.00     0.195 C 
HETATM    6  C   UNL     1      -9.245   3.755 -34.009  1.00  0.00     0.209 C 
HETATM    7  O   UNL     1      -8.072   4.096 -33.977  1.00  0.00    -0.286 OA
HETATM    8  C   UNL     1     -10.289   4.641 -34.525  1.00  0.00     0.084 C 
ENDROOT
BRANCH   5   9
HETATM    9  C   UNL     1      -8.672   1.397 -33.019  1.00  0.00     0.280 C 
HETATM   10  N   UNL     1      -7.716   1.134 -33.984  1.00  0.00    -0.322 N 
HETATM   11  H   UNL     1      -7.665   1.807 -34.746  1.00  0.00     0.169 HD
HETATM   12  O   UNL     1      -8.755   0.905 -31.903  1.00  0.00    -0.265 OA
BRANCH  10  13
HETATM   13  C   UNL     1      -6.802   0.063 -33.968  1.00  0.00     0.035 A 
HETATM   14  C   UNL     1      -5.745  -0.006 -33.054  1.00  0.00     0.039 A 
HETATM   15  C   UNL     1      -4.927  -1.126 -33.053  1.00  0.00    -0.022 A 
HETATM   16  C   UNL     1      -5.133  -2.173 -33.949  1.00  0.00    -0.025 A 
HETATM   17  C   UNL     1      -3.803  -1.424 -32.124  1.00  0.00     0.274 C 
HETATM   18  C   UNL     1      -4.150  -3.267 -33.708  1.00  0.00     0.273 C 
HETATM   19  C   UNL     1      -6.168  -2.121 -34.868  1.00  0.00     0.012 A 
HETATM   20  N   UNL     1      -3.203  -2.730 -32.635  1.00  0.00    -0.067 N 
HETATM   21  H   UNL     1      -2.334  -2.474 -33.116  1.00  0.00     0.280 HD
HETATM   22  C   UNL     1      -2.885  -3.709 -31.556  1.00  0.00     0.270 C 
HETATM   23  C   UNL     1      -7.009  -0.999 -34.866  1.00  0.00     0.030 A 
ENDBRANCH  10  13
ENDBRANCH   5   9
BRANCH   3  24
HETATM   24  C   UNL     1     -13.212   2.702 -33.289  1.00  0.00     0.097 A 
HETATM   25  C   UNL     1     -13.923   1.746 -34.035  1.00  0.00     0.145 A 
HETATM   26  F   UNL     1     -13.358   1.165 -35.107  1.00  0.00    -0.204 F 
HETATM   27  C   UNL     1     -15.209   1.346 -33.672  1.00  0.00     0.045 A 
HETATM   28  C   UNL     1     -15.822   1.912 -32.557  1.00  0.00     0.003 A 
HETATM   29  C   UNL     1     -15.152   2.888 -31.820  1.00  0.00     0.002 A 
HETATM   30  C   UNL     1     -13.862   3.284 -32.187  1.00  0.00     0.035 A 
ENDBRANCH   3  24
TORSDOF 3
ENDMDL
MODEL 2
REMARK VINA RESULT:      -8.8      5.514      8.251
REMARK  3 active torsions:
REMARK  status: ('A' for Active; 'I' for Inactive)
REMARK    1  A    between atoms: N_3  and  C_4 
REMARK    2  A    between atoms: C_12  and  C_13 
REMARK       I    between atoms: C_13  and  N_14 
REMARK    3  A    between atoms: N_14  and  C_15 
ROOT
HETATM    1  C   UNL     1      -3.979   7.001 -29.083  1.00  0.00     0.070 C 
HETATM    2  C   UNL     1      -4.483   5.949 -30.043  1.00  0.00     0.036 C 
HETATM    3  N   UNL     1      -3.638   5.411 -31.027  1.00  0.00    -0.235 N 
HETATM    4  N   UNL     1      -4.037   4.451 -31.930  1.00  0.00    -0.157 NA
HETATM    5  C   UNL     1      -5.282   4.068 -31.904  1.00  0.00     0.195 C 
HETATM    6  C   UNL     1      -6.289   4.689 -30.976  1.00  0.00     0.209 C 
HETATM    7  O   UNL     1      -7.485   4.480 -31.110  1.00  0.00    -0.286 OA
HETATM    8  C   UNL     1      -5.779   5.613 -29.962  1.00  0.00     0.084 C 
ENDROOT
BRANCH   5   9
HETATM    9  C   UNL     1      -5.694   2.993 -32.883  1.00  0.00     0.280 C 
HETATM   10  N   UNL     1      -5.998   1.783 -32.282  1.00  0.00    -0.322 N 
HETATM   11  H   UNL     1      -6.131   1.816 -31.274  1.00  0.00     0.169 HD
HETATM   12  O   UNL     1      -5.745   3.264 -34.073  1.00  0.00    -0.265 OA
BRANCH  10  13
HETATM   13  C   UNL     1      -6.181   0.556 -32.948  1.00  0.00     0.035 A 
HETATM   14  C   UNL     1      -5.117  -0.304 -33.240  1.00  0.00     0.039 A 
HETATM   15  C   UNL     1      -5.383  -1.528 -33.835  1.00  0.00    -0.022 A 
HETATM   16  C   UNL     1      -6.685  -1.909 -34.155  1.00  0.00    -0.025 A 
HETATM   17  C   UNL     1      -4.410  -2.607 -34.160  1.00  0.00     0.274 C 
HETATM   18  C   UNL     1      -6.698  -3.279 -34.740  1.00  0.00     0.273 C 
HETATM   19  C   UNL     1      -7.752  -1.069 -33.883  1.00  0.00     0.012 A 
HETATM   20  N   UNL     1      -5.229  -3.674 -34.879  1.00  0.00    -0.067 N 
HETATM   21  H   UNL     1      -4.998  -3.586 -35.875  1.00  0.00     0.280 HD
HETATM   22  C   UNL     1      -4.925  -5.064 -34.436  1.00  0.00     0.270 C 
HETATM   23  C   UNL     1      -7.493   0.164 -33.267  1.00  0.00     0.030 A 
ENDBRANCH  10  13
ENDBRANCH   5   9
BRANCH   3  24
HETATM   24  C   UNL     1      -2.289   5.831 -31.228  1.00  0.00     0.097 A 
HETATM   25  C   UNL     1      -1.995   6.977 -31.987  1.00  0.00     0.145 A 
HETATM   26  F   UNL     1      -2.987   7.698 -32.539  1.00  0.00    -0.204 F 
HETATM   27  C   UNL     1      -0.685   7.421 -32.161  1.00  0.00     0.045 A 
HETATM   28  C   UNL     1       0.368   6.711 -31.590  1.00  0.00     0.003 A 
HETATM   29  C   UNL     1       0.107   5.552 -30.861  1.00  0.00     0.002 A 
HETATM   30  C   UNL     1      -1.209   5.112 -30.687  1.00  0.00     0.035 A 
ENDBRANCH   3  24
TORSDOF 3
ENDMDL
MODEL 3
REMARK VINA RESULT:      -8.4      2.472      3.026
REMARK  3 active torsions:
REMARK  status: ('A' for Active; 'I' for Inactive)
REMARK    1  A    between atoms: N_3  and  C_4 
REMARK    2  A    between atoms: C_12  and  C_13 
REMARK       I    between atoms: C_13  and  N_14 
REMARK    3  A    between atoms: N_14  and  C_15 
ROOT
HETATM    1  C   UNL     1     -10.350   6.569 -30.164  1.00  0.00     0.070 C 
HETATM    2  C   UNL     1      -9.833   5.198 -30.531  1.00  0.00     0.036 C 
HETATM    3  N   UNL     1     -10.615   4.316 -31.294  1.00  0.00    -0.235 N 
HETATM    4  N   UNL     1     -10.201   3.055 -31.661  1.00  0.00    -0.157 NA
HETATM    5  C   UNL     1      -9.046   2.641 -31.223  1.00  0.00     0.195 C 
HETATM    6  C   UNL     1      -8.204   3.463 -30.288  1.00  0.00     0.209 C 
HETATM    7  O   UNL     1      -7.239   2.980 -29.716  1.00  0.00    -0.286 OA
HETATM    8  C   UNL     1      -8.640   4.837 -30.034  1.00  0.00     0.084 C 
ENDROOT
BRANCH   5   9
HETATM    9  C   UNL     1      -8.596   1.265 -31.660  1.00  0.00     0.280 C 
HETATM   10  N   UNL     1      -7.357   1.258 -32.278  1.00  0.00    -0.322 N 
HETATM   11  H   UNL     1      -6.806   2.106 -32.166  1.00  0.00     0.169 HD
HETATM   12  O   UNL     1      -9.315   0.305 -31.428  1.00  0.00    -0.265 OA
BRANCH  10  13
HETATM   13  C   UNL     1      -6.797   0.178 -32.988  1.00  0.00     0.035 A 
HETATM   14  C   UNL     1      -5.611  -0.447 -32.589  1.00  0.00     0.039 A 
HETATM   15  C   UNL     1      -5.158  -1.549 -33.298  1.00  0.00    -0.022 A 
HETATM   16  C   UNL     1      -5.856  -2.035 -34.402  1.00  0.00    -0.025 A 
HETATM   17  C   UNL     1      -3.969  -2.392 -32.998  1.00  0.00     0.274 C 
HETATM   18  C   UNL     1      -5.184  -3.247 -34.951  1.00  0.00     0.273 C 
HETATM   19  C   UNL     1      -7.028  -1.426 -34.819  1.00  0.00     0.012 A 
HETATM   20  N   UNL     1      -3.895  -3.395 -34.145  1.00  0.00    -0.067 N 
HETATM   21  H   UNL     1      -3.133  -3.075 -34.753  1.00  0.00     0.280 HD
HETATM   22  C   UNL     1      -3.606  -4.790 -33.706  1.00  0.00     0.270 C 
HETATM   23  C   UNL     1      -7.501  -0.320 -34.099  1.00  0.00     0.030 A 
ENDBRANCH  10  13
ENDBRANCH   5   9
BRANCH   3  24
HETATM   24  C   UNL     1     -11.938   4.613 -31.737  1.00  0.00     0.097 A 
HETATM   25  C   UNL     1     -13.051   4.329 -30.926  1.00  0.00     0.145 A 
HETATM   26  F   UNL     1     -12.883   3.769 -29.716  1.00  0.00    -0.204 F 
HETATM   27  C   UNL     1     -14.348   4.647 -31.329  1.00  0.00     0.045 A 
HETATM   28  C   UNL     1     -14.561   5.243 -32.569  1.00  0.00     0.003 A 
HETATM   29  C   UNL     1     -13.478   5.505 -33.407  1.00  0.00     0.002 A 
HETATM   30  C   UNL     1     -12.179   5.186 -32.997  1.00  0.00     0.035 A 
ENDBRANCH   3  24
TORSDOF 3
ENDMDL
MODEL 4
REMARK VINA RESULT:      -8.4      6.081      9.640
REMARK  3 active torsions:
REMARK  status: ('A' for Active; 'I' for Inactive)
REMARK    1  A    between atoms: N_3  and  C_4 
REMARK    2  A    between atoms: C_12  and  C_13 
REMARK       I    between atoms: C_13  and  N_14 
REMARK    3  A    between atoms: N_14  and  C_15 
ROOT
HETATM    1  C   UNL     1      -0.785   7.082 -33.362  1.00  0.00     0.070 C 
HETATM    2  C   UNL     1      -2.038   6.299 -33.042  1.00  0.00     0.036 C 
HETATM    3  N   UNL     1      -2.239   5.761 -31.761  1.00  0.00    -0.235 N 
HETATM    4  N   UNL     1      -3.357   5.039 -31.407  1.00  0.00    -0.157 NA
HETATM    5  C   UNL     1      -4.244   4.795 -32.330  1.00  0.00     0.195 C 
HETATM    6  C   UNL     1      -4.044   5.215 -33.760  1.00  0.00     0.209 C 
HETATM    7  O   UNL     1      -4.769   4.794 -34.649  1.00  0.00    -0.286 OA
HETATM    8  C   UNL     1      -2.899   6.079 -34.047  1.00  0.00     0.084 C 
ENDROOT
BRANCH   5   9
HETATM    9  C   UNL     1      -5.478   4.026 -31.916  1.00  0.00     0.280 C 
HETATM   10  N   UNL     1      -5.778   2.966 -32.754  1.00  0.00    -0.322 N 
HETATM   11  H   UNL     1      -5.036   2.690 -33.394  1.00  0.00     0.169 HD
HETATM   12  O   UNL     1      -6.078   4.368 -30.908  1.00  0.00    -0.265 OA
BRANCH  10  13
HETATM   13  C   UNL     1      -6.979   2.231 -32.755  1.00  0.00     0.035 A 
HETATM   14  C   UNL     1      -8.226   2.831 -32.959  1.00  0.00     0.039 A 
HETATM   15  C   UNL     1      -9.358   2.032 -33.015  1.00  0.00    -0.022 A 
HETATM   16  C   UNL     1      -9.275   0.650 -32.863  1.00  0.00    -0.025 A 
HETATM   17  C   UNL     1     -10.756   2.462 -33.292  1.00  0.00     0.274 C 
HETATM   18  C   UNL     1     -10.621   0.028 -33.011  1.00  0.00     0.273 C 
HETATM   19  C   UNL     1      -8.052   0.036 -32.652  1.00  0.00     0.012 A 
HETATM   20  N   UNL     1     -11.595   1.198 -33.141  1.00  0.00    -0.067 N 
HETATM   21  H   UNL     1     -12.073   1.281 -32.237  1.00  0.00     0.280 HD
HETATM   22  C   UNL     1     -12.618   1.025 -34.211  1.00  0.00     0.270 C 
HETATM   23  C   UNL     1      -6.901   0.834 -32.608  1.00  0.00     0.030 A 
ENDBRANCH  10  13
ENDBRANCH   5   9
BRANCH   3  24
HETATM   24  C   UNL     1      -1.291   5.864 -30.700  1.00  0.00     0.097 A 
HETATM   25  C   UNL     1      -1.400   6.876 -29.731  1.00  0.00     0.145 A 
HETATM   26  F   UNL     1      -2.404   7.768 -29.791  1.00  0.00    -0.204 F 
HETATM   27  C   UNL     1      -0.501   6.969 -28.668  1.00  0.00     0.045 A 
HETATM   28  C   UNL     1       0.543   6.054 -28.563  1.00  0.00     0.003 A 
HETATM   29  C   UNL     1       0.694   5.061 -29.530  1.00  0.00     0.002 A 
HETATM   30  C   UNL     1      -0.211   4.971 -30.593  1.00  0.00     0.035 A 
ENDBRANCH   3  24
TORSDOF 3
ENDMDL
MODEL 5
REMARK VINA RESULT:      -8.3      5.385      7.611
REMARK  3 active torsions:
REMARK  status: ('A' for Active; 'I' for Inactive)
REMARK    1  A    between atoms: N_3  and  C_4 
REMARK    2  A    between atoms: C_12  and  C_13 
REMARK       I    between atoms: C_13  and  N_14 
REMARK    3  A    between atoms: N_14  and  C_15 
ROOT
HETATM    1  C   UNL     1      -6.808  -2.408 -34.338  1.00  0.00     0.070 C 
HETATM    2  C   UNL     1      -5.923  -1.363 -33.700  1.00  0.00     0.036 C 
HETATM    3  N   UNL     1      -6.461  -0.151 -33.239  1.00  0.00    -0.235 N 
HETATM    4  N   UNL     1      -5.707   0.840 -32.649  1.00  0.00    -0.157 NA
HETATM    5  C   UNL     1      -4.419   0.663 -32.572  1.00  0.00     0.195 C 
HETATM    6  C   UNL     1      -3.742  -0.542 -33.163  1.00  0.00     0.209 C 
HETATM    7  O   UNL     1      -2.526  -0.591 -33.277  1.00  0.00    -0.286 OA
HETATM    8  C   UNL     1      -4.605  -1.612 -33.666  1.00  0.00     0.084 C 
ENDROOT
BRANCH   5   9
HETATM    9  C   UNL     1      -3.613   1.748 -31.896  1.00  0.00     0.280 C 
HETATM   10  N   UNL     1      -3.865   3.016 -32.391  1.00  0.00    -0.322 N 
HETATM   11  H   UNL     1      -4.699   3.103 -32.969  1.00  0.00     0.169 HD
HETATM   12  O   UNL     1      -2.850   1.443 -30.992  1.00  0.00    -0.265 OA
BRANCH  10  13
HETATM   13  C   UNL     1      -3.105   4.171 -32.124  1.00  0.00     0.035 A 
HETATM   14  C   UNL     1      -3.377   5.014 -31.041  1.00  0.00     0.039 A 
HETATM   15  C   UNL     1      -2.541   6.094 -30.801  1.00  0.00    -0.022 A 
HETATM   16  C   UNL     1      -1.447   6.359 -31.622  1.00  0.00    -0.025 A 
HETATM   17  C   UNL     1      -2.614   7.060 -29.671  1.00  0.00     0.274 C 
HETATM   18  C   UNL     1      -0.693   7.542 -31.121  1.00  0.00     0.273 C 
HETATM   19  C   UNL     1      -1.165   5.542 -32.705  1.00  0.00     0.012 A 
HETATM   20  N   UNL     1      -1.519   8.083 -29.954  1.00  0.00    -0.067 N 
HETATM   21  H   UNL     1      -1.997   8.922 -30.301  1.00  0.00     0.280 HD
HETATM   22  C   UNL     1      -0.714   8.450 -28.755  1.00  0.00     0.270 C 
HETATM   23  C   UNL     1      -1.996   4.439 -32.946  1.00  0.00     0.030 A 
ENDBRANCH  10  13
ENDBRANCH   5   9
BRANCH   3  24
HETATM   24  C   UNL     1      -7.836   0.205 -33.369  1.00  0.00     0.097 A 
HETATM   25  C   UNL     1      -8.329   0.755 -34.565  1.00  0.00     0.145 A 
HETATM   26  F   UNL     1      -7.506   0.957 -35.609  1.00  0.00    -0.204 F 
HETATM   27  C   UNL     1      -9.678   1.074 -34.721  1.00  0.00     0.045 A 
HETATM   28  C   UNL     1     -10.565   0.865 -33.668  1.00  0.00     0.003 A 
HETATM   29  C   UNL     1     -10.095   0.352 -32.459  1.00  0.00     0.002 A 
HETATM   30  C   UNL     1      -8.742   0.032 -32.309  1.00  0.00     0.035 A 
ENDBRANCH   3  24
TORSDOF 3
ENDMDL
MODEL 6
REMARK VINA RESULT:      -8.1      5.920      8.027
REMARK  3 active torsions:
REMARK  status: ('A' for Active; 'I' for Inactive)
REMARK    1  A    between atoms: N_3  and  C_4 
REMARK    2  A    between atoms: C_12  and  C_13 
REMARK       I    between atoms: C_13  and  N_14 
REMARK    3  A    between atoms: N_14  and  C_15 
ROOT
HETATM    1  C   UNL     1      -9.334   1.936 -34.070  1.00  0.00     0.070 C 
HETATM    2  C   UNL     1      -8.121   2.808 -33.845  1.00  0.00     0.036 C 
HETATM    3  N   UNL     1      -6.845   2.240 -33.699  1.00  0.00    -0.235 N 
HETATM    4  N   UNL     1      -5.702   2.979 -33.491  1.00  0.00    -0.157 NA
HETATM    5  C   UNL     1      -5.825   4.270 -33.365  1.00  0.00     0.195 C 
HETATM    6  C   UNL     1      -7.166   4.949 -33.370  1.00  0.00     0.209 C 
HETATM    7  O   UNL     1      -7.284   6.118 -33.034  1.00  0.00    -0.286 OA
HETATM    8  C   UNL     1      -8.327   4.127 -33.714  1.00  0.00     0.084 C 
ENDROOT
BRANCH   5   9
HETATM    9  C   UNL     1      -4.556   5.068 -33.167  1.00  0.00     0.280 C 
HETATM   10  N   UNL     1      -3.816   4.669 -32.067  1.00  0.00    -0.322 N 
HETATM   11  H   UNL     1      -4.077   3.770 -31.667  1.00  0.00     0.169 HD
HETATM   12  O   UNL     1      -4.281   5.950 -33.966  1.00  0.00    -0.265 OA
BRANCH  10  13
HETATM   13  C   UNL     1      -2.731   5.368 -31.507  1.00  0.00     0.035 A 
HETATM   14  C   UNL     1      -2.895   6.329 -30.503  1.00  0.00     0.039 A 
HETATM   15  C   UNL     1      -1.771   6.926 -29.951  1.00  0.00    -0.022 A 
HETATM   16  C   UNL     1      -0.489   6.594 -30.384  1.00  0.00    -0.025 A 
HETATM   17  C   UNL     1      -1.727   7.909 -28.835  1.00  0.00     0.274 C 
HETATM   18  C   UNL     1       0.535   7.341 -29.601  1.00  0.00     0.273 C 
HETATM   19  C   UNL     1      -0.305   5.652 -31.383  1.00  0.00     0.012 A 
HETATM   20  N   UNL     1      -0.256   8.294 -28.705  1.00  0.00    -0.067 N 
HETATM   21  H   UNL     1      -0.169   9.226 -29.125  1.00  0.00     0.280 HD
HETATM   22  C   UNL     1       0.229   8.352 -27.297  1.00  0.00     0.270 C 
HETATM   23  C   UNL     1      -1.434   5.033 -31.936  1.00  0.00     0.030 A 
ENDBRANCH  10  13
ENDBRANCH   5   9
BRANCH   3  24
HETATM   24  C   UNL     1      -6.599   0.834 -33.706  1.00  0.00     0.097 A 
HETATM   25  C   UNL     1      -6.694   0.091 -34.895  1.00  0.00     0.145 A 
HETATM   26  F   UNL     1      -7.021   0.697 -36.049  1.00  0.00    -0.204 F 
HETATM   27  C   UNL     1      -6.422  -1.276 -34.925  1.00  0.00     0.045 A 
HETATM   28  C   UNL     1      -6.063  -1.937 -33.753  1.00  0.00     0.003 A 
HETATM   29  C   UNL     1      -5.995  -1.230 -32.553  1.00  0.00     0.002 A 
HETATM   30  C   UNL     1      -6.267   0.142 -32.528  1.00  0.00     0.035 A 
ENDBRANCH   3  24
TORSDOF 3
ENDMDL
MODEL 7
REMARK VINA RESULT:      -8.0      7.876     10.226
REMARK  3 active torsions:
REMARK  status: ('A' for Active; 'I' for Inactive)
REMARK    1  A    between atoms: N_3  and  C_4 
REMARK    2  A    between atoms: C_12  and  C_13 
REMARK       I    between atoms: C_13  and  N_14 
REMARK    3  A    between atoms: N_14  and  C_15 
ROOT
HETATM    1  C   UNL     1       0.748   8.351 -28.213  1.00  0.00     0.070 C 
HETATM    2  C   UNL     1       0.070   7.373 -29.143  1.00  0.00     0.036 C 
HETATM    3  N   UNL     1      -1.322   7.403 -29.325  1.00  0.00    -0.235 N 
HETATM    4  N   UNL     1      -2.000   6.540 -30.157  1.00  0.00    -0.157 NA
HETATM    5  C   UNL     1      -1.315   5.609 -30.759  1.00  0.00     0.195 C 
HETATM    6  C   UNL     1       0.156   5.416 -30.515  1.00  0.00     0.209 C 
HETATM    7  O   UNL     1       0.736   4.415 -30.910  1.00  0.00    -0.286 OA
HETATM    8  C   UNL     1       0.838   6.436 -29.718  1.00  0.00     0.084 C 
ENDROOT
BRANCH   5   9
HETATM    9  C   UNL     1      -2.071   4.689 -31.691  1.00  0.00     0.280 C 
HETATM   10  N   UNL     1      -3.091   3.989 -31.071  1.00  0.00    -0.322 N 
HETATM   11  H   UNL     1      -3.360   4.330 -30.150  1.00  0.00     0.169 HD
HETATM   12  O   UNL     1      -1.753   4.649 -32.870  1.00  0.00    -0.265 OA
BRANCH  10  13
HETATM   13  C   UNL     1      -3.799   2.904 -31.622  1.00  0.00     0.035 A 
HETATM   14  C   UNL     1      -4.960   3.075 -32.384  1.00  0.00     0.039 A 
HETATM   15  C   UNL     1      -5.563   1.964 -32.953  1.00  0.00    -0.022 A 
HETATM   16  C   UNL     1      -5.040   0.685 -32.771  1.00  0.00    -0.025 A 
HETATM   17  C   UNL     1      -6.751   1.939 -33.849  1.00  0.00     0.274 C 
HETATM   18  C   UNL     1      -5.846  -0.319 -33.521  1.00  0.00     0.273 C 
HETATM   19  C   UNL     1      -3.897   0.492 -32.013  1.00  0.00     0.012 A 
HETATM   20  N   UNL     1      -7.029   0.459 -34.096  1.00  0.00    -0.067 N 
HETATM   21  H   UNL     1      -7.842   0.223 -33.516  1.00  0.00     0.280 HD
HETATM   22  C   UNL     1      -7.341   0.135 -35.517  1.00  0.00     0.270 C 
HETATM   23  C   UNL     1      -3.273   1.612 -31.447  1.00  0.00     0.030 A 
ENDBRANCH  10  13
ENDBRANCH   5   9
BRANCH   3  24
HETATM   24  C   UNL     1      -2.191   8.302 -28.637  1.00  0.00     0.097 A 
HETATM   25  C   UNL     1      -2.737   7.963 -27.387  1.00  0.00     0.145 A 
HETATM   26  F   UNL     1      -2.448   6.779 -26.819  1.00  0.00    -0.204 F 
HETATM   27  C   UNL     1      -3.558   8.845 -26.686  1.00  0.00     0.045 A 
HETATM   28  C   UNL     1      -3.867  10.088 -27.233  1.00  0.00     0.003 A 
HETATM   29  C   UNL     1      -3.366  10.436 -28.487  1.00  0.00     0.002 A 
HETATM   30  C   UNL     1      -2.542   9.548 -29.186  1.00  0.00     0.035 A 
ENDBRANCH   3  24
TORSDOF 3
ENDMDL
MODEL 8
REMARK VINA RESULT:      -7.9      5.040      6.315
REMARK  3 active torsions:
REMARK  status: ('A' for Active; 'I' for Inactive)
REMARK    1  A    between atoms: N_3  and  C_4 
REMARK    2  A    between atoms: C_12  and  C_13 
REMARK       I    between atoms: C_13  and  N_14 
REMARK    3  A    between atoms: N_14  and  C_15 
ROOT
HETATM    1  C   UNL     1     -10.205   0.345 -33.065  1.00  0.00     0.070 C 
HETATM    2  C   UNL     1      -8.979   1.220 -33.195  1.00  0.00     0.036 C 
HETATM    3  N   UNL     1      -9.101   2.585 -33.500  1.00  0.00    -0.235 N 
HETATM    4  N   UNL     1      -8.024   3.433 -33.632  1.00  0.00    -0.157 NA
HETATM    5  C   UNL     1      -6.830   2.924 -33.528  1.00  0.00     0.195 C 
HETATM    6  C   UNL     1      -6.603   1.450 -33.340  1.00  0.00     0.209 C 
HETATM    7  O   UNL     1      -5.490   0.961 -33.463  1.00  0.00    -0.286 OA
HETATM    8  C   UNL     1      -7.783   0.622 -33.086  1.00  0.00     0.084 C 
ENDROOT
BRANCH   5   9
HETATM    9  C   UNL     1      -5.661   3.876 -33.647  1.00  0.00     0.280 C 
HETATM   10  N   UNL     1      -4.613   3.577 -32.793  1.00  0.00    -0.322 N 
HETATM   11  H   UNL     1      -4.646   2.654 -32.365  1.00  0.00     0.169 HD
HETATM   12  O   UNL     1      -5.717   4.782 -34.465  1.00  0.00    -0.265 OA
BRANCH  10  13
HETATM   13  C   UNL     1      -3.512   4.410 -32.518  1.00  0.00     0.035 A 
HETATM   14  C   UNL     1      -3.439   5.203 -31.368  1.00  0.00     0.039 A 
HETATM   15  C   UNL     1      -2.291   5.944 -31.131  1.00  0.00    -0.022 A 
HETATM   16  C   UNL     1      -1.219   5.920 -32.020  1.00  0.00    -0.025 A 
HETATM   17  C   UNL     1      -1.989   6.787 -29.942  1.00  0.00     0.274 C 
HETATM   18  C   UNL     1      -0.100   6.762 -31.510  1.00  0.00     0.273 C 
HETATM   19  C   UNL     1      -1.273   5.149 -33.169  1.00  0.00     0.012 A 
HETATM   20  N   UNL     1      -0.643   7.436 -30.250  1.00  0.00    -0.067 N 
HETATM   21  H   UNL     1      -0.849   8.408 -30.507  1.00  0.00     0.280 HD
HETATM   22  C   UNL     1       0.304   7.432 -29.099  1.00  0.00     0.270 C 
HETATM   23  C   UNL     1      -2.424   4.385 -33.409  1.00  0.00     0.030 A 
ENDBRANCH  10  13
ENDBRANCH   5   9
BRANCH   3  24
HETATM   24  C   UNL     1     -10.348   3.233 -33.747  1.00  0.00     0.097 A 
HETATM   25  C   UNL     1     -11.150   3.683 -32.685  1.00  0.00     0.145 A 
HETATM   26  F   UNL     1     -10.754   3.507 -31.413  1.00  0.00    -0.204 F 
HETATM   27  C   UNL     1     -12.354   4.350 -32.911  1.00  0.00     0.045 A 
HETATM   28  C   UNL     1     -12.792   4.566 -34.215  1.00  0.00     0.003 A 
HETATM   29  C   UNL     1     -12.031   4.099 -35.287  1.00  0.00     0.002 A 
HETATM   30  C   UNL     1     -10.823   3.433 -35.055  1.00  0.00     0.035 A 
ENDBRANCH   3  24
TORSDOF 3
ENDMDL
MODEL 9
REMARK VINA RESULT:      -7.9     15.149     16.517
REMARK  3 active torsions:
REMARK  status: ('A' for Active; 'I' for Inactive)
REMARK    1  A    between atoms: N_3  and  C_4 
REMARK    2  A    between atoms: C_12  and  C_13 
REMARK       I    between atoms: C_13  and  N_14 
REMARK    3  A    between atoms: N_14  and  C_15 
ROOT
HETATM    1  C   UNL     1      -6.239 -12.520 -40.971  1.00  0.00     0.070 C 
HETATM    2  C   UNL     1      -6.216 -12.802 -39.487  1.00  0.00     0.036 C 
HETATM    3  N   UNL     1      -7.395 -13.142 -38.803  1.00  0.00    -0.235 N 
HETATM    4  N   UNL     1      -7.440 -13.409 -37.452  1.00  0.00    -0.157 NA
HETATM    5  C   UNL     1      -6.339 -13.281 -36.768  1.00  0.00     0.195 C 
HETATM    6  C   UNL     1      -5.063 -12.789 -37.392  1.00  0.00     0.209 C 
HETATM    7  O   UNL     1      -4.106 -12.466 -36.704  1.00  0.00    -0.286 OA
HETATM    8  C   UNL     1      -5.049 -12.638 -38.848  1.00  0.00     0.084 C 
ENDROOT
BRANCH   5   9
HETATM    9  C   UNL     1      -6.402 -13.607 -35.293  1.00  0.00     0.280 C 
HETATM   10  N   UNL     1      -5.641 -14.707 -34.936  1.00  0.00    -0.322 N 
HETATM   11  H   UNL     1      -4.968 -15.020 -35.633  1.00  0.00     0.169 HD
HETATM   12  O   UNL     1      -7.071 -12.898 -34.557  1.00  0.00    -0.265 OA
BRANCH  10  13
HETATM   13  C   UNL     1      -5.691 -15.377 -33.698  1.00  0.00     0.035 A 
HETATM   14  C   UNL     1      -4.583 -15.469 -32.849  1.00  0.00     0.039 A 
HETATM   15  C   UNL     1      -4.728 -16.083 -31.615  1.00  0.00    -0.022 A 
HETATM   16  C   UNL     1      -5.950 -16.617 -31.212  1.00  0.00    -0.025 A 
HETATM   17  C   UNL     1      -3.701 -16.220 -30.546  1.00  0.00     0.274 C 
HETATM   18  C   UNL     1      -5.847 -17.175 -29.835  1.00  0.00     0.273 C 
HETATM   19  C   UNL     1      -7.058 -16.545 -32.041  1.00  0.00     0.012 A 
HETATM   20  N   UNL     1      -4.370 -17.054 -29.459  1.00  0.00    -0.067 N 
HETATM   21  H   UNL     1      -3.972 -17.996 -29.539  1.00  0.00     0.280 HD
HETATM   22  C   UNL     1      -4.131 -16.545 -28.078  1.00  0.00     0.270 C 
HETATM   23  C   UNL     1      -6.924 -15.912 -33.284  1.00  0.00     0.030 A 
ENDBRANCH  10  13
ENDBRANCH   5   9
BRANCH   3  24
HETATM   24  C   UNL     1      -8.679 -13.204 -39.421  1.00  0.00     0.097 A 
HETATM   25  C   UNL     1      -9.220 -14.432 -39.839  1.00  0.00     0.145 A 
HETATM   26  F   UNL     1      -8.530 -15.572 -39.663  1.00  0.00    -0.204 F 
HETATM   27  C   UNL     1     -10.489 -14.514 -40.412  1.00  0.00     0.045 A 
HETATM   28  C   UNL     1     -11.241 -13.357 -40.596  1.00  0.00     0.003 A 
HETATM   29  C   UNL     1     -10.714 -12.121 -40.221  1.00  0.00     0.002 A 
HETATM   30  C   UNL     1      -9.442 -12.045 -39.646  1.00  0.00     0.035 A 
ENDBRANCH   3  24
TORSDOF 3
ENDMDL
MODEL 10
REMARK VINA RESULT:      -7.9      2.225      3.145
REMARK  3 active torsions:
REMARK  status: ('A' for Active; 'I' for Inactive)
REMARK    1  A    between atoms: N_3  and  C_4 
REMARK    2  A    between atoms: C_12  and  C_13 
REMARK       I    between atoms: C_13  and  N_14 
REMARK    3  A    between atoms: N_14  and  C_15 
ROOT
HETATM    1  C   UNL     1     -12.429   5.891 -31.372  1.00  0.00     0.070 C 
HETATM    2  C   UNL     1     -11.286   5.025 -31.847  1.00  0.00     0.036 C 
HETATM    3  N   UNL     1     -10.900   5.023 -33.197  1.00  0.00    -0.235 N 
HETATM    4  N   UNL     1      -9.869   4.257 -33.692  1.00  0.00    -0.157 NA
HETATM    5  C   UNL     1      -9.260   3.450 -32.871  1.00  0.00     0.195 C 
HETATM    6  C   UNL     1      -9.696   3.286 -31.442  1.00  0.00     0.209 C 
HETATM    7  O   UNL     1      -9.264   2.376 -30.750  1.00  0.00    -0.286 OA
HETATM    8  C   UNL     1     -10.715   4.211 -30.946  1.00  0.00     0.084 C 
ENDROOT
BRANCH   5   9
HETATM    9  C   UNL     1      -8.111   2.639 -33.426  1.00  0.00     0.280 C 
HETATM   10  N   UNL     1      -8.265   1.273 -33.260  1.00  0.00    -0.322 N 
HETATM   11  H   UNL     1      -9.201   0.966 -33.004  1.00  0.00     0.169 HD
HETATM   12  O   UNL     1      -7.185   3.220 -33.972  1.00  0.00    -0.265 OA
BRANCH  10  13
HETATM   13  C   UNL     1      -7.266   0.301 -33.460  1.00  0.00     0.035 A 
HETATM   14  C   UNL     1      -6.202   0.124 -32.570  1.00  0.00     0.039 A 
HETATM   15  C   UNL     1      -5.296  -0.900 -32.797  1.00  0.00    -0.022 A 
HETATM   16  C   UNL     1      -5.421  -1.746 -33.897  1.00  0.00    -0.025 A 
HETATM   17  C   UNL     1      -4.146  -1.298 -31.939  1.00  0.00     0.274 C 
HETATM   18  C   UNL     1      -4.351  -2.782 -33.883  1.00  0.00     0.273 C 
HETATM   19  C   UNL     1      -6.462  -1.583 -34.797  1.00  0.00     0.012 A 
HETATM   20  N   UNL     1      -3.445  -2.412 -32.709  1.00  0.00    -0.067 N 
HETATM   21  H   UNL     1      -2.603  -1.990 -33.114  1.00  0.00     0.280 HD
HETATM   22  C   UNL     1      -3.042  -3.568 -31.859  1.00  0.00     0.270 C 
HETATM   23  C   UNL     1      -7.391  -0.559 -34.566  1.00  0.00     0.030 A 
ENDBRANCH  10  13
ENDBRANCH   5   9
BRANCH   3  24
HETATM   24  C   UNL     1     -11.562   5.779 -34.210  1.00  0.00     0.097 A 
HETATM   25  C   UNL     1     -12.681   5.259 -34.884  1.00  0.00     0.145 A 
HETATM   26  F   UNL     1     -13.145   4.034 -34.584  1.00  0.00    -0.204 F 
HETATM   27  C   UNL     1     -13.360   6.001 -35.851  1.00  0.00     0.045 A 
HETATM   28  C   UNL     1     -12.920   7.280 -36.179  1.00  0.00     0.003 A 
HETATM   29  C   UNL     1     -11.792   7.807 -35.549  1.00  0.00     0.002 A 
HETATM   30  C   UNL     1     -11.116   7.060 -34.579  1.00  0.00     0.035 A 
ENDBRANCH   3  24
TORSDOF 3
ENDMDL
