MODEL 1
REMARK VINA RESULT:     -10.1      0.000      0.000
REMARK  8 active torsions:
REMARK  status: ('A' for Active; 'I' for Inactive)
REMARK    1  A    between atoms: O_2  and  C_3 
REMARK    2  A    between atoms: C_3  and  C_4 
REMARK    3  A    between atoms: C_4  and  N_5 
REMARK       I    between atoms: N_5  and  C_6 
REMARK    4  A    between atoms: C_6  and  C_7 
REMARK    5  A    between atoms: C_7  and  N_8 
REMARK       I    between atoms: N_14  and  C_15 
REMARK    6  A    between atoms: C_15  and  C_16 
REMARK    7  A    between atoms: C_19  and  C_20 
REMARK    8  A    between atoms: N_31  and  C_32 
ROOT
HETATM    1  N   UNL     1      -4.878   6.550 -28.453  1.00  0.00    -0.325 N 
HETATM    2  C   UNL     1      -5.851   5.816 -29.083  1.00  0.00     0.250 A 
HETATM    3  O   UNL     1      -6.899   5.453 -28.570  1.00  0.00    -0.270 OA
HETATM    4  C   UNL     1      -5.354   5.491 -30.509  1.00  0.00     0.118 A 
HETATM    5  C   UNL     1      -6.390   6.025 -31.514  1.00  0.00     0.061 C 
HETATM    6  C   UNL     1      -7.613   5.116 -31.632  1.00  0.00     0.129 C 
HETATM    7  N   UNL     1      -7.215   3.721 -31.787  1.00  0.00    -0.348 N 
HETATM    8  C   UNL     1      -7.324   3.122 -33.044  1.00  0.00     0.253 C 
HETATM    9  O   UNL     1      -7.697   3.716 -34.053  1.00  0.00    -0.267 OA
HETATM   10  C   UNL     1      -6.426   3.196 -30.674  1.00  0.00     0.129 C 
HETATM   11  C   UNL     1      -5.118   3.970 -30.547  1.00  0.00     0.061 C 
HETATM   12  N   UNL     1      -4.064   6.243 -30.567  1.00  0.00    -0.346 N 
HETATM   13  C   UNL     1      -3.772   6.883 -29.292  1.00  0.00     0.254 A 
ENDROOT
BRANCH  12  14
HETATM   14  C   UNL     1      -3.129   6.272 -31.587  1.00  0.00     0.032 A 
HETATM   15  C   UNL     1      -2.407   5.143 -32.004  1.00  0.00     0.029 A 
HETATM   16  C   UNL     1      -1.452   5.191 -33.031  1.00  0.00     0.002 A 
HETATM   17  C   UNL     1      -1.188   6.383 -33.687  1.00  0.00     0.000 A 
HETATM   18  C   UNL     1      -1.888   7.522 -33.318  1.00  0.00     0.002 A 
HETATM   19  C   UNL     1      -2.840   7.459 -32.292  1.00  0.00     0.029 A 
ENDBRANCH  12  14
BRANCH   1  20
HETATM   20  C   UNL     1      -4.954   7.019 -27.078  1.00  0.00     0.230 C 
BRANCH  20  21
HETATM   21  C   UNL     1      -3.590   7.129 -26.385  1.00  0.00     0.235 C 
HETATM   22  N   UNL     1      -2.882   5.951 -26.282  1.00  0.00    -0.358 N 
HETATM   23  H   UNL     1      -3.400   5.086 -26.394  1.00  0.00     0.162 HD
HETATM   24  O   UNL     1      -3.206   8.184 -25.885  1.00  0.00    -0.272 OA
BRANCH  22  25
HETATM   25  C   UNL     1      -1.660   5.878 -25.501  1.00  0.00     0.148 C 
BRANCH  25  26
HETATM   26  C   UNL     1      -0.417   6.063 -26.368  1.00  0.00     0.186 C 
BRANCH  26  27
HETATM   27  O   UNL     1       0.055   7.409 -26.232  1.00  0.00    -0.394 OA
HETATM   28  C   UNL     1       1.454   7.494 -26.478  1.00  0.00     0.201 C 
ENDBRANCH  26  27
ENDBRANCH  25  26
ENDBRANCH  22  25
ENDBRANCH  20  21
ENDBRANCH   1  20
BRANCH   8  29
HETATM   29  C   UNL     1      -6.939   1.699 -33.181  1.00  0.00     0.032 A 
HETATM   30  C   UNL     1      -5.597   1.312 -33.158  1.00  0.00     0.018 A 
HETATM   31  C   UNL     1      -5.254  -0.012 -33.444  1.00  0.00     0.013 A 
HETATM   32  C   UNL     1      -6.239  -0.981 -33.718  1.00  0.00    -0.026 A 
HETATM   33  C   UNL     1      -7.588  -0.581 -33.629  1.00  0.00     0.013 A 
HETATM   34  C   UNL     1      -7.939   0.745 -33.365  1.00  0.00     0.018 A 
BRANCH  32  35
HETATM   35  C   UNL     1      -5.869  -2.351 -34.137  1.00  0.00    -0.026 A 
HETATM   36  C   UNL     1      -6.809  -3.235 -34.693  1.00  0.00     0.012 A 
HETATM   37  C   UNL     1      -6.461  -4.547 -35.035  1.00  0.00     0.001 A 
HETATM   38  C   UNL     1      -5.160  -4.998 -34.837  1.00  0.00     0.000 A 
HETATM   39  C   UNL     1      -4.207  -4.141 -34.298  1.00  0.00     0.001 A 
HETATM   40  C   UNL     1      -4.559  -2.834 -33.949  1.00  0.00     0.012 A 
ENDBRANCH  32  35
ENDBRANCH   8  29
TORSDOF 8
ENDMDL
MODEL 2
REMARK VINA RESULT:      -9.5      3.072     10.271
REMARK  8 active torsions:
REMARK  status: ('A' for Active; 'I' for Inactive)
REMARK    1  A    between atoms: O_2  and  C_3 
REMARK    2  A    between atoms: C_3  and  C_4 
REMARK    3  A    between atoms: C_4  and  N_5 
REMARK       I    between atoms: N_5  and  C_6 
REMARK    4  A    between atoms: C_6  and  C_7 
REMARK    5  A    between atoms: C_7  and  N_8 
REMARK       I    between atoms: N_14  and  C_15 
REMARK    6  A    between atoms: C_15  and  C_16 
REMARK    7  A    between atoms: C_19  and  C_20 
REMARK    8  A    between atoms: N_31  and  C_32 
ROOT
HETATM    1  N   UNL     1      -5.590   1.546 -32.168  1.00  0.00    -0.325 N 
HETATM    2  C   UNL     1      -4.432   2.212 -32.485  1.00  0.00     0.250 A 
HETATM    3  O   UNL     1      -3.371   1.678 -32.769  1.00  0.00    -0.270 OA
HETATM    4  C   UNL     1      -4.705   3.727 -32.356  1.00  0.00     0.118 A 
HETATM    5  C   UNL     1      -4.377   4.392 -33.705  1.00  0.00     0.061 C 
HETATM    6  C   UNL     1      -2.875   4.584 -33.913  1.00  0.00     0.129 C 
HETATM    7  N   UNL     1      -2.254   5.170 -32.730  1.00  0.00    -0.348 N 
HETATM    8  C   UNL     1      -1.880   6.516 -32.758  1.00  0.00     0.253 C 
HETATM    9  O   UNL     1      -2.084   7.261 -33.715  1.00  0.00    -0.267 OA
HETATM   10  C   UNL     1      -2.396   4.366 -31.517  1.00  0.00     0.129 C 
HETATM   11  C   UNL     1      -3.871   4.215 -31.158  1.00  0.00     0.061 C 
HETATM   12  N   UNL     1      -6.167   3.754 -32.048  1.00  0.00    -0.346 N 
HETATM   13  C   UNL     1      -6.702   2.407 -31.922  1.00  0.00     0.254 A 
ENDROOT
BRANCH  12  14
HETATM   14  C   UNL     1      -6.965   4.848 -31.757  1.00  0.00     0.032 A 
HETATM   15  C   UNL     1      -7.202   5.304 -30.451  1.00  0.00     0.029 A 
HETATM   16  C   UNL     1      -8.025   6.406 -30.172  1.00  0.00     0.002 A 
HETATM   17  C   UNL     1      -8.642   7.099 -31.202  1.00  0.00     0.000 A 
HETATM   18  C   UNL     1      -8.425   6.692 -32.510  1.00  0.00     0.002 A 
HETATM   19  C   UNL     1      -7.599   5.591 -32.774  1.00  0.00     0.029 A 
ENDBRANCH  12  14
BRANCH   1  20
HETATM   20  C   UNL     1      -5.731   0.099 -32.135  1.00  0.00     0.230 C 
BRANCH  20  21
HETATM   21  C   UNL     1      -5.996  -0.529 -33.509  1.00  0.00     0.235 C 
HETATM   22  N   UNL     1      -5.772  -1.886 -33.593  1.00  0.00    -0.358 N 
HETATM   23  H   UNL     1      -5.196  -2.308 -32.872  1.00  0.00     0.162 HD
HETATM   24  O   UNL     1      -6.305   0.158 -34.480  1.00  0.00    -0.272 OA
BRANCH  22  25
HETATM   25  C   UNL     1      -5.818  -2.575 -34.871  1.00  0.00     0.148 C 
BRANCH  25  26
HETATM   26  C   UNL     1      -6.730  -3.799 -34.828  1.00  0.00     0.186 C 
BRANCH  26  27
HETATM   27  O   UNL     1      -5.973  -4.961 -35.183  1.00  0.00    -0.394 OA
HETATM   28  C   UNL     1      -4.835  -5.114 -34.342  1.00  0.00     0.201 C 
ENDBRANCH  26  27
ENDBRANCH  25  26
ENDBRANCH  22  25
ENDBRANCH  20  21
ENDBRANCH   1  20
BRANCH   8  29
HETATM   29  C   UNL     1      -1.230   7.092 -31.560  1.00  0.00     0.032 A 
HETATM   30  C   UNL     1       0.097   6.787 -31.247  1.00  0.00     0.018 A 
HETATM   31  C   UNL     1       0.636   7.218 -30.032  1.00  0.00     0.013 A 
HETATM   32  C   UNL     1      -0.119   7.991 -29.128  1.00  0.00    -0.026 A 
HETATM   33  C   UNL     1      -1.417   8.370 -29.522  1.00  0.00     0.013 A 
HETATM   34  C   UNL     1      -1.973   7.925 -30.725  1.00  0.00     0.018 A 
BRANCH  32  35
HETATM   35  C   UNL     1       0.414   8.344 -27.793  1.00  0.00    -0.026 A 
HETATM   36  C   UNL     1      -0.002   9.500 -27.111  1.00  0.00     0.012 A 
HETATM   37  C   UNL     1       0.548   9.854 -25.875  1.00  0.00     0.001 A 
HETATM   38  C   UNL     1       1.521   9.050 -25.287  1.00  0.00     0.000 A 
HETATM   39  C   UNL     1       1.944   7.895 -25.935  1.00  0.00     0.001 A 
HETATM   40  C   UNL     1       1.399   7.549 -27.175  1.00  0.00     0.012 A 
ENDBRANCH  32  35
ENDBRANCH   8  29
TORSDOF 8
ENDMDL
MODEL 3
REMARK VINA RESULT:      -9.2      5.505      9.274
REMARK  8 active torsions:
REMARK  status: ('A' for Active; 'I' for Inactive)
REMARK    1  A    between atoms: O_2  and  C_3 
REMARK    2  A    between atoms: C_3  and  C_4 
REMARK    3  A    between atoms: C_4  and  N_5 
REMARK       I    between atoms: N_5  and  C_6 
REMARK    4  A    between atoms: C_6  and  C_7 
REMARK    5  A    between atoms: C_7  and  N_8 
REMARK       I    between atoms: N_14  and  C_15 
REMARK    6  A    between atoms: C_15  and  C_16 
REMARK    7  A    between atoms: C_19  and  C_20 
REMARK    8  A    between atoms: N_31  and  C_32 
ROOT
HETATM    1  N   UNL     1     -12.212   7.245 -34.197  1.00  0.00    -0.325 N 
HETATM    2  C   UNL     1     -11.070   6.740 -33.627  1.00  0.00     0.250 A 
HETATM    3  O   UNL     1      -9.973   7.275 -33.662  1.00  0.00    -0.270 OA
HETATM    4  C   UNL     1     -11.417   5.371 -33.001  1.00  0.00     0.118 A 
HETATM    5  C   UNL     1     -11.048   5.416 -31.507  1.00  0.00     0.061 C 
HETATM    6  C   UNL     1      -9.547   5.250 -31.270  1.00  0.00     0.129 C 
HETATM    7  N   UNL     1      -9.017   4.129 -32.038  1.00  0.00    -0.348 N 
HETATM    8  C   UNL     1      -8.703   2.942 -31.372  1.00  0.00     0.253 C 
HETATM    9  O   UNL     1      -8.889   2.763 -30.171  1.00  0.00    -0.267 OA
HETATM   10  C   UNL     1      -9.187   4.259 -33.484  1.00  0.00     0.129 C 
HETATM   11  C   UNL     1     -10.670   4.314 -33.835  1.00  0.00     0.061 C 
HETATM   12  N   UNL     1     -12.893   5.293 -33.221  1.00  0.00    -0.346 N 
HETATM   13  C   UNL     1     -13.373   6.446 -33.969  1.00  0.00     0.254 A 
ENDROOT
BRANCH  12  14
HETATM   14  C   UNL     1     -13.753   4.249 -32.929  1.00  0.00     0.032 A 
HETATM   15  C   UNL     1     -14.881   4.386 -32.105  1.00  0.00     0.029 A 
HETATM   16  C   UNL     1     -15.736   3.314 -31.807  1.00  0.00     0.002 A 
HETATM   17  C   UNL     1     -15.491   2.055 -32.332  1.00  0.00     0.000 A 
HETATM   18  C   UNL     1     -14.395   1.875 -33.162  1.00  0.00     0.002 A 
HETATM   19  C   UNL     1     -13.551   2.956 -33.454  1.00  0.00     0.029 A 
ENDBRANCH  12  14
BRANCH   1  20
HETATM   20  C   UNL     1     -12.290   8.505 -34.921  1.00  0.00     0.230 C 
BRANCH  20  21
HETATM   21  C   UNL     1     -11.729   8.435 -36.346  1.00  0.00     0.235 C 
HETATM   22  N   UNL     1     -10.398   8.766 -36.476  1.00  0.00    -0.358 N 
HETATM   23  H   UNL     1      -9.973   9.290 -35.718  1.00  0.00     0.162 HD
HETATM   24  O   UNL     1     -12.451   8.184 -37.308  1.00  0.00    -0.272 OA
BRANCH  22  25
HETATM   25  C   UNL     1      -9.786   8.908 -37.786  1.00  0.00     0.148 C 
BRANCH  25  26
HETATM   26  C   UNL     1      -9.416  10.358 -38.089  1.00  0.00     0.186 C 
BRANCH  26  27
HETATM   27  O   UNL     1      -9.707  10.639 -39.462  1.00  0.00    -0.394 OA
HETATM   28  C   UNL     1     -11.097  10.871 -39.660  1.00  0.00     0.201 C 
ENDBRANCH  26  27
ENDBRANCH  25  26
ENDBRANCH  22  25
ENDBRANCH  20  21
ENDBRANCH   1  20
BRANCH   8  29
HETATM   29  C   UNL     1      -8.143   1.820 -32.160  1.00  0.00     0.032 A 
HETATM   30  C   UNL     1      -8.959   0.778 -32.606  1.00  0.00     0.018 A 
HETATM   31  C   UNL     1      -8.382  -0.342 -33.211  1.00  0.00     0.013 A 
HETATM   32  C   UNL     1      -6.992  -0.427 -33.418  1.00  0.00    -0.026 A 
HETATM   33  C   UNL     1      -6.209   0.687 -33.052  1.00  0.00     0.013 A 
HETATM   34  C   UNL     1      -6.775   1.801 -32.427  1.00  0.00     0.018 A 
BRANCH  32  35
HETATM   35  C   UNL     1      -6.372  -1.662 -33.949  1.00  0.00    -0.026 A 
HETATM   36  C   UNL     1      -7.145  -2.717 -34.462  1.00  0.00     0.012 A 
HETATM   37  C   UNL     1      -6.553  -3.902 -34.910  1.00  0.00     0.001 A 
HETATM   38  C   UNL     1      -5.170  -4.053 -34.865  1.00  0.00     0.000 A 
HETATM   39  C   UNL     1      -4.380  -3.021 -34.372  1.00  0.00     0.001 A 
HETATM   40  C   UNL     1      -4.975  -1.841 -33.915  1.00  0.00     0.012 A 
ENDBRANCH  32  35
ENDBRANCH   8  29
TORSDOF 8
ENDMDL
MODEL 4
REMARK VINA RESULT:      -9.1      5.618      8.388
REMARK  8 active torsions:
REMARK  status: ('A' for Active; 'I' for Inactive)
REMARK    1  A    between atoms: O_2  and  C_3 
REMARK    2  A    between atoms: C_3  and  C_4 
REMARK    3  A    between atoms: C_4  and  N_5 
REMARK       I    between atoms: N_5  and  C_6 
REMARK    4  A    between atoms: C_6  and  C_7 
REMARK    5  A    between atoms: C_7  and  N_8 
REMARK       I    between atoms: N_14  and  C_15 
REMARK    6  A    between atoms: C_15  and  C_16 
REMARK    7  A    between atoms: C_19  and  C_20 
REMARK    8  A    between atoms: N_31  and  C_32 
ROOT
HETATM    1  N   UNL     1     -11.617   6.342 -35.270  1.00  0.00    -0.325 N 
HETATM    2  C   UNL     1     -10.488   5.889 -34.634  1.00  0.00     0.250 A 
HETATM    3  O   UNL     1      -9.391   6.422 -34.691  1.00  0.00    -0.270 OA
HETATM    4  C   UNL     1     -10.849   4.578 -33.901  1.00  0.00     0.118 A 
HETATM    5  C   UNL     1     -10.513   4.752 -32.409  1.00  0.00     0.061 C 
HETATM    6  C   UNL     1      -9.017   4.610 -32.126  1.00  0.00     0.129 C 
HETATM    7  N   UNL     1      -8.470   3.429 -32.783  1.00  0.00    -0.348 N 
HETATM    8  C   UNL     1      -8.171   2.303 -32.011  1.00  0.00     0.253 C 
HETATM    9  O   UNL     1      -8.383   2.228 -30.803  1.00  0.00    -0.267 OA
HETATM   10  C   UNL     1      -8.608   3.434 -34.238  1.00  0.00     0.129 C 
HETATM   11  C   UNL     1     -10.083   3.455 -34.625  1.00  0.00     0.061 C 
HETATM   12  N   UNL     1     -12.320   4.480 -34.146  1.00  0.00    -0.346 N 
HETATM   13  C   UNL     1     -12.783   5.563 -35.000  1.00  0.00     0.254 A 
ENDROOT
BRANCH  12  14
HETATM   14  C   UNL     1     -13.186   3.463 -33.784  1.00  0.00     0.032 A 
HETATM   15  C   UNL     1     -13.950   3.482 -32.607  1.00  0.00     0.029 A 
HETATM   16  C   UNL     1     -14.814   2.437 -32.247  1.00  0.00     0.002 A 
HETATM   17  C   UNL     1     -14.947   1.325 -33.064  1.00  0.00     0.000 A 
HETATM   18  C   UNL     1     -14.221   1.268 -34.244  1.00  0.00     0.002 A 
HETATM   19  C   UNL     1     -13.364   2.320 -34.592  1.00  0.00     0.029 A 
ENDBRANCH  12  14
BRANCH   1  20
HETATM   20  C   UNL     1     -11.679   7.535 -36.101  1.00  0.00     0.230 C 
BRANCH  20  21
HETATM   21  C   UNL     1     -11.496   8.842 -35.322  1.00  0.00     0.235 C 
HETATM   22  N   UNL     1     -10.217   9.355 -35.319  1.00  0.00    -0.358 N 
HETATM   23  H   UNL     1      -9.461   8.723 -35.563  1.00  0.00     0.162 HD
HETATM   24  O   UNL     1     -12.416   9.341 -34.679  1.00  0.00    -0.272 OA
BRANCH  22  25
HETATM   25  C   UNL     1      -9.867  10.490 -34.482  1.00  0.00     0.148 C 
BRANCH  25  26
HETATM   26  C   UNL     1      -9.167  10.058 -33.196  1.00  0.00     0.186 C 
BRANCH  26  27
HETATM   27  O   UNL     1     -10.151   9.822 -32.183  1.00  0.00    -0.394 OA
HETATM   28  C   UNL     1     -10.165   8.456 -31.784  1.00  0.00     0.201 C 
ENDBRANCH  26  27
ENDBRANCH  25  26
ENDBRANCH  22  25
ENDBRANCH  20  21
ENDBRANCH   1  20
BRANCH   8  29
HETATM   29  C   UNL     1      -7.594   1.119 -32.687  1.00  0.00     0.032 A 
HETATM   30  C   UNL     1      -8.417   0.138 -33.244  1.00  0.00     0.018 A 
HETATM   31  C   UNL     1      -7.852  -1.041 -33.737  1.00  0.00     0.013 A 
HETATM   32  C   UNL     1      -6.458  -1.247 -33.721  1.00  0.00    -0.026 A 
HETATM   33  C   UNL     1      -5.650  -0.193 -33.250  1.00  0.00     0.013 A 
HETATM   34  C   UNL     1      -6.208   0.980 -32.735  1.00  0.00     0.018 A 
BRANCH  32  35
HETATM   35  C   UNL     1      -5.872  -2.543 -34.133  1.00  0.00    -0.026 A 
HETATM   36  C   UNL     1      -6.641  -3.537 -34.760  1.00  0.00     0.012 A 
HETATM   37  C   UNL     1      -6.091  -4.779 -35.096  1.00  0.00     0.001 A 
HETATM   38  C   UNL     1      -4.754  -5.048 -34.820  1.00  0.00     0.000 A 
HETATM   39  C   UNL     1      -3.967  -4.078 -34.209  1.00  0.00     0.001 A 
HETATM   40  C   UNL     1      -4.522  -2.841 -33.866  1.00  0.00     0.012 A 
ENDBRANCH  32  35
ENDBRANCH   8  29
TORSDOF 8
ENDMDL
MODEL 5
REMARK VINA RESULT:      -9.0      5.637     10.127
REMARK  8 active torsions:
REMARK  status: ('A' for Active; 'I' for Inactive)
REMARK    1  A    between atoms: O_2  and  C_3 
REMARK    2  A    between atoms: C_3  and  C_4 
REMARK    3  A    between atoms: C_4  and  N_5 
REMARK       I    between atoms: N_5  and  C_6 
REMARK    4  A    between atoms: C_6  and  C_7 
REMARK    5  A    between atoms: C_7  and  N_8 
REMARK       I    between atoms: N_14  and  C_15 
REMARK    6  A    between atoms: C_15  and  C_16 
REMARK    7  A    between atoms: C_19  and  C_20 
REMARK    8  A    between atoms: N_31  and  C_32 
ROOT
HETATM    1  N   UNL     1     -11.886   6.380 -35.244  1.00  0.00    -0.325 N 
HETATM    2  C   UNL     1     -10.739   5.960 -34.618  1.00  0.00     0.250 A 
HETATM    3  O   UNL     1      -9.654   6.516 -34.696  1.00  0.00    -0.270 OA
HETATM    4  C   UNL     1     -11.060   4.649 -33.867  1.00  0.00     0.118 A 
HETATM    5  C   UNL     1     -10.708   4.847 -32.382  1.00  0.00     0.061 C 
HETATM    6  C   UNL     1      -9.206   4.741 -32.117  1.00  0.00     0.129 C 
HETATM    7  N   UNL     1      -8.642   3.564 -32.769  1.00  0.00    -0.348 N 
HETATM    8  C   UNL     1      -8.307   2.454 -31.990  1.00  0.00     0.253 C 
HETATM    9  O   UNL     1      -8.501   2.387 -30.779  1.00  0.00    -0.267 OA
HETATM   10  C   UNL     1      -8.800   3.551 -34.223  1.00  0.00     0.129 C 
HETATM   11  C   UNL     1     -10.280   3.536 -34.589  1.00  0.00     0.061 C 
HETATM   12  N   UNL     1     -12.532   4.515 -34.091  1.00  0.00    -0.346 N 
HETATM   13  C   UNL     1     -13.031   5.579 -34.949  1.00  0.00     0.254 A 
ENDROOT
BRANCH  12  14
HETATM   14  C   UNL     1     -13.371   3.483 -33.706  1.00  0.00     0.032 A 
HETATM   15  C   UNL     1     -13.512   2.292 -34.433  1.00  0.00     0.029 A 
HETATM   16  C   UNL     1     -14.377   1.260 -34.037  1.00  0.00     0.002 A 
HETATM   17  C   UNL     1     -15.135   1.386 -32.884  1.00  0.00     0.000 A 
HETATM   18  C   UNL     1     -15.018   2.541 -32.125  1.00  0.00     0.002 A 
HETATM   19  C   UNL     1     -14.149   3.562 -32.532  1.00  0.00     0.029 A 
ENDBRANCH  12  14
BRANCH   1  20
HETATM   20  C   UNL     1     -11.986   7.562 -36.086  1.00  0.00     0.230 C 
BRANCH  20  21
HETATM   21  C   UNL     1     -13.427   7.994 -36.380  1.00  0.00     0.235 C 
HETATM   22  N   UNL     1     -13.911   7.639 -37.620  1.00  0.00    -0.358 N 
HETATM   23  H   UNL     1     -13.230   7.393 -38.332  1.00  0.00     0.162 HD
HETATM   24  O   UNL     1     -14.066   8.683 -35.587  1.00  0.00    -0.272 OA
BRANCH  22  25
HETATM   25  C   UNL     1     -15.194   8.130 -38.093  1.00  0.00     0.148 C 
BRANCH  25  26
HETATM   26  C   UNL     1     -16.289   7.074 -37.973  1.00  0.00     0.186 C 
BRANCH  26  27
HETATM   27  O   UNL     1     -16.968   7.240 -36.724  1.00  0.00    -0.394 OA
HETATM   28  C   UNL     1     -18.251   6.626 -36.746  1.00  0.00     0.201 C 
ENDBRANCH  26  27
ENDBRANCH  25  26
ENDBRANCH  22  25
ENDBRANCH  20  21
ENDBRANCH   1  20
BRANCH   8  29
HETATM   29  C   UNL     1      -7.713   1.276 -32.661  1.00  0.00     0.032 A 
HETATM   30  C   UNL     1      -8.522   0.310 -33.264  1.00  0.00     0.018 A 
HETATM   31  C   UNL     1      -7.946  -0.866 -33.752  1.00  0.00     0.013 A 
HETATM   32  C   UNL     1      -6.556  -1.083 -33.687  1.00  0.00    -0.026 A 
HETATM   33  C   UNL     1      -5.758  -0.043 -33.170  1.00  0.00     0.013 A 
HETATM   34  C   UNL     1      -6.327   1.127 -32.658  1.00  0.00     0.018 A 
BRANCH  32  35
HETATM   35  C   UNL     1      -5.963  -2.377 -34.096  1.00  0.00    -0.026 A 
HETATM   36  C   UNL     1      -6.730  -3.380 -34.712  1.00  0.00     0.012 A 
HETATM   37  C   UNL     1      -6.173  -4.620 -35.044  1.00  0.00     0.001 A 
HETATM   38  C   UNL     1      -4.832  -4.878 -34.777  1.00  0.00     0.000 A 
HETATM   39  C   UNL     1      -4.048  -3.899 -34.177  1.00  0.00     0.001 A 
HETATM   40  C   UNL     1      -4.609  -2.664 -33.837  1.00  0.00     0.012 A 
ENDBRANCH  32  35
ENDBRANCH   8  29
TORSDOF 8
ENDMDL
MODEL 6
REMARK VINA RESULT:      -8.8      3.607      9.984
REMARK  8 active torsions:
REMARK  status: ('A' for Active; 'I' for Inactive)
REMARK    1  A    between atoms: O_2  and  C_3 
REMARK    2  A    between atoms: C_3  and  C_4 
REMARK    3  A    between atoms: C_4  and  N_5 
REMARK       I    between atoms: N_5  and  C_6 
REMARK    4  A    between atoms: C_6  and  C_7 
REMARK    5  A    between atoms: C_7  and  N_8 
REMARK       I    between atoms: N_14  and  C_15 
REMARK    6  A    between atoms: C_15  and  C_16 
REMARK    7  A    between atoms: C_19  and  C_20 
REMARK    8  A    between atoms: N_31  and  C_32 
ROOT
HETATM    1  N   UNL     1      -5.679   2.109 -32.566  1.00  0.00    -0.325 N 
HETATM    2  C   UNL     1      -4.428   2.649 -32.733  1.00  0.00     0.250 A 
HETATM    3  O   UNL     1      -3.397   2.005 -32.857  1.00  0.00    -0.270 OA
HETATM    4  C   UNL     1      -4.562   4.186 -32.674  1.00  0.00     0.118 A 
HETATM    5  C   UNL     1      -3.989   4.770 -33.978  1.00  0.00     0.061 C 
HETATM    6  C   UNL     1      -2.460   4.809 -33.980  1.00  0.00     0.129 C 
HETATM    7  N   UNL     1      -1.950   5.372 -32.734  1.00  0.00    -0.348 N 
HETATM    8  C   UNL     1      -1.443   6.674 -32.738  1.00  0.00     0.253 C 
HETATM    9  O   UNL     1      -1.439   7.402 -33.728  1.00  0.00    -0.267 OA
HETATM   10  C   UNL     1      -2.336   4.627 -31.537  1.00  0.00     0.129 C 
HETATM   11  C   UNL     1      -3.853   4.632 -31.382  1.00  0.00     0.061 C 
HETATM   12  N   UNL     1      -6.042   4.366 -32.572  1.00  0.00    -0.346 N 
HETATM   13  C   UNL     1      -6.722   3.081 -32.494  1.00  0.00     0.254 A 
ENDROOT
BRANCH  12  14
HETATM   14  C   UNL     1      -6.758   5.540 -32.416  1.00  0.00     0.032 A 
HETATM   15  C   UNL     1      -8.136   5.642 -32.662  1.00  0.00     0.029 A 
HETATM   16  C   UNL     1      -8.845   6.844 -32.512  1.00  0.00     0.002 A 
HETATM   17  C   UNL     1      -8.192   7.997 -32.103  1.00  0.00     0.000 A 
HETATM   18  C   UNL     1      -6.832   7.940 -31.836  1.00  0.00     0.002 A 
HETATM   19  C   UNL     1      -6.137   6.732 -31.988  1.00  0.00     0.029 A 
ENDBRANCH  12  14
BRANCH   1  20
HETATM   20  C   UNL     1      -5.968   0.684 -32.525  1.00  0.00     0.230 C 
BRANCH  20  21
HETATM   21  C   UNL     1      -7.389   0.354 -32.054  1.00  0.00     0.235 C 
HETATM   22  N   UNL     1      -8.312   0.145 -33.056  1.00  0.00    -0.358 N 
HETATM   23  H   UNL     1      -8.081   0.494 -33.980  1.00  0.00     0.162 HD
HETATM   24  O   UNL     1      -7.689   0.362 -30.862  1.00  0.00    -0.272 OA
BRANCH  22  25
HETATM   25  C   UNL     1      -9.724  -0.006 -32.753  1.00  0.00     0.148 C 
BRANCH  25  26
HETATM   26  C   UNL     1     -10.582   0.997 -33.521  1.00  0.00     0.186 C 
BRANCH  26  27
HETATM   27  O   UNL     1     -10.131   2.323 -33.227  1.00  0.00    -0.394 OA
HETATM   28  C   UNL     1     -11.200   3.145 -32.773  1.00  0.00     0.201 C 
ENDBRANCH  26  27
ENDBRANCH  25  26
ENDBRANCH  22  25
ENDBRANCH  20  21
ENDBRANCH   1  20
BRANCH   8  29
HETATM   29  C   UNL     1      -0.906   7.224 -31.473  1.00  0.00     0.032 A 
HETATM   30  C   UNL     1       0.363   6.863 -31.014  1.00  0.00     0.018 A 
HETATM   31  C   UNL     1       0.781   7.273 -29.745  1.00  0.00     0.013 A 
HETATM   32  C   UNL     1      -0.036   8.080 -28.930  1.00  0.00    -0.026 A 
HETATM   33  C   UNL     1      -1.265   8.514 -29.466  1.00  0.00     0.013 A 
HETATM   34  C   UNL     1      -1.701   8.090 -30.725  1.00  0.00     0.018 A 
BRANCH  32  35
HETATM   35  C   UNL     1       0.358   8.413 -27.543  1.00  0.00    -0.026 A 
HETATM   36  C   UNL     1      -0.356   9.347 -26.773  1.00  0.00     0.012 A 
HETATM   37  C   UNL     1       0.057   9.695 -25.483  1.00  0.00     0.001 A 
HETATM   38  C   UNL     1       1.191   9.108 -24.930  1.00  0.00     0.000 A 
HETATM   39  C   UNL     1       1.911   8.173 -25.665  1.00  0.00     0.001 A 
HETATM   40  C   UNL     1       1.501   7.834 -26.958  1.00  0.00     0.012 A 
ENDBRANCH  32  35
ENDBRANCH   8  29
TORSDOF 8
ENDMDL
MODEL 7
REMARK VINA RESULT:      -8.5      2.038      2.456
REMARK  8 active torsions:
REMARK  status: ('A' for Active; 'I' for Inactive)
REMARK    1  A    between atoms: O_2  and  C_3 
REMARK    2  A    between atoms: C_3  and  C_4 
REMARK    3  A    between atoms: C_4  and  N_5 
REMARK       I    between atoms: N_5  and  C_6 
REMARK    4  A    between atoms: C_6  and  C_7 
REMARK    5  A    between atoms: C_7  and  N_8 
REMARK       I    between atoms: N_14  and  C_15 
REMARK    6  A    between atoms: C_15  and  C_16 
REMARK    7  A    between atoms: C_19  and  C_20 
REMARK    8  A    between atoms: N_31  and  C_32 
ROOT
HETATM    1  N   UNL     1      -4.273   7.684 -27.154  1.00  0.00    -0.325 N 
HETATM    2  C   UNL     1      -5.217   7.186 -28.016  1.00  0.00     0.250 A 
HETATM    3  O   UNL     1      -6.395   7.016 -27.744  1.00  0.00    -0.270 OA
HETATM    4  C   UNL     1      -4.509   6.833 -29.343  1.00  0.00     0.118 A 
HETATM    5  C   UNL     1      -5.203   7.606 -30.480  1.00  0.00     0.061 C 
HETATM    6  C   UNL     1      -6.524   6.963 -30.903  1.00  0.00     0.129 C 
HETATM    7  N   UNL     1      -6.368   5.526 -31.094  1.00  0.00    -0.348 N 
HETATM    8  C   UNL     1      -6.328   5.016 -32.395  1.00  0.00     0.253 C 
HETATM    9  O   UNL     1      -6.373   5.716 -33.403  1.00  0.00    -0.267 OA
HETATM   10  C   UNL     1      -5.932   4.806 -29.899  1.00  0.00     0.129 C 
HETATM   11  C   UNL     1      -4.557   5.299 -29.462  1.00  0.00     0.061 C 
HETATM   12  N   UNL     1      -3.118   7.317 -29.092  1.00  0.00    -0.346 N 
HETATM   13  C   UNL     1      -2.978   7.829 -27.737  1.00  0.00     0.254 A 
ENDROOT
BRANCH  12  14
HETATM   14  C   UNL     1      -2.007   7.205 -29.910  1.00  0.00     0.032 A 
HETATM   15  C   UNL     1      -2.030   7.485 -31.285  1.00  0.00     0.029 A 
HETATM   16  C   UNL     1      -0.898   7.354 -32.104  1.00  0.00     0.002 A 
HETATM   17  C   UNL     1       0.311   6.937 -31.567  1.00  0.00     0.000 A 
HETATM   18  C   UNL     1       0.384   6.662 -30.210  1.00  0.00     0.002 A 
HETATM   19  C   UNL     1      -0.754   6.800 -29.404  1.00  0.00     0.029 A 
ENDBRANCH  12  14
BRANCH   1  20
HETATM   20  C   UNL     1      -4.537   8.098 -25.784  1.00  0.00     0.230 C 
BRANCH  20  21
HETATM   21  C   UNL     1      -3.280   8.197 -24.913  1.00  0.00     0.235 C 
HETATM   22  N   UNL     1      -3.091   9.406 -24.280  1.00  0.00    -0.358 N 
HETATM   23  H   UNL     1      -3.602  10.205 -24.642  1.00  0.00     0.162 HD
HETATM   24  O   UNL     1      -2.461   7.282 -24.861  1.00  0.00    -0.272 OA
BRANCH  22  25
HETATM   25  C   UNL     1      -1.859   9.694 -23.566  1.00  0.00     0.148 C 
BRANCH  25  26
HETATM   26  C   UNL     1      -0.940  10.618 -24.361  1.00  0.00     0.186 C 
BRANCH  26  27
HETATM   27  O   UNL     1      -0.034   9.825 -25.136  1.00  0.00    -0.394 OA
HETATM   28  C   UNL     1      -0.255  10.003 -26.531  1.00  0.00     0.201 C 
ENDBRANCH  26  27
ENDBRANCH  25  26
ENDBRANCH  22  25
ENDBRANCH  20  21
ENDBRANCH   1  20
BRANCH   8  29
HETATM   29  C   UNL     1      -6.194   3.553 -32.574  1.00  0.00     0.032 A 
HETATM   30  C   UNL     1      -4.945   2.932 -32.497  1.00  0.00     0.018 A 
HETATM   31  C   UNL     1      -4.826   1.578 -32.823  1.00  0.00     0.013 A 
HETATM   32  C   UNL     1      -5.949   0.811 -33.190  1.00  0.00    -0.026 A 
HETATM   33  C   UNL     1      -7.208   1.442 -33.154  1.00  0.00     0.013 A 
HETATM   34  C   UNL     1      -7.334   2.801 -32.852  1.00  0.00     0.018 A 
BRANCH  32  35
HETATM   35  C   UNL     1      -5.802  -0.589 -33.649  1.00  0.00    -0.026 A 
HETATM   36  C   UNL     1      -6.874  -1.298 -34.216  1.00  0.00     0.012 A 
HETATM   37  C   UNL     1      -6.740  -2.638 -34.596  1.00  0.00     0.001 A 
HETATM   38  C   UNL     1      -5.525  -3.295 -34.425  1.00  0.00     0.000 A 
HETATM   39  C   UNL     1      -4.445  -2.614 -33.875  1.00  0.00     0.001 A 
HETATM   40  C   UNL     1      -4.584  -1.277 -33.488  1.00  0.00     0.012 A 
ENDBRANCH  32  35
ENDBRANCH   8  29
TORSDOF 8
ENDMDL
MODEL 8
REMARK VINA RESULT:      -8.4      2.497      4.247
REMARK  8 active torsions:
REMARK  status: ('A' for Active; 'I' for Inactive)
REMARK    1  A    between atoms: O_2  and  C_3 
REMARK    2  A    between atoms: C_3  and  C_4 
REMARK    3  A    between atoms: C_4  and  N_5 
REMARK       I    between atoms: N_5  and  C_6 
REMARK    4  A    between atoms: C_6  and  C_7 
REMARK    5  A    between atoms: C_7  and  N_8 
REMARK       I    between atoms: N_14  and  C_15 
REMARK    6  A    between atoms: C_15  and  C_16 
REMARK    7  A    between atoms: C_19  and  C_20 
REMARK    8  A    between atoms: N_31  and  C_32 
ROOT
HETATM    1  N   UNL     1      -5.938   7.656 -28.761  1.00  0.00    -0.325 N 
HETATM    2  C   UNL     1      -6.533   6.808 -29.660  1.00  0.00     0.250 A 
HETATM    3  O   UNL     1      -7.703   6.458 -29.625  1.00  0.00    -0.270 OA
HETATM    4  C   UNL     1      -5.453   6.345 -30.663  1.00  0.00     0.118 A 
HETATM    5  C   UNL     1      -5.926   6.708 -32.082  1.00  0.00     0.061 C 
HETATM    6  C   UNL     1      -6.976   5.733 -32.616  1.00  0.00     0.129 C 
HETATM    7  N   UNL     1      -6.563   4.351 -32.402  1.00  0.00    -0.348 N 
HETATM    8  C   UNL     1      -6.103   3.605 -33.490  1.00  0.00     0.253 C 
HETATM    9  O   UNL     1      -5.981   4.060 -34.625  1.00  0.00    -0.267 OA
HETATM   10  C   UNL     1      -6.359   3.997 -30.998  1.00  0.00     0.129 C 
HETATM   11  C   UNL     1      -5.239   4.843 -30.402  1.00  0.00     0.061 C 
HETATM   12  N   UNL     1      -4.267   7.147 -30.235  1.00  0.00    -0.346 N 
HETATM   13  C   UNL     1      -4.570   7.943 -29.055  1.00  0.00     0.254 A 
ENDROOT
BRANCH  12  14
HETATM   14  C   UNL     1      -2.974   7.102 -30.728  1.00  0.00     0.032 A 
HETATM   15  C   UNL     1      -1.957   6.324 -30.155  1.00  0.00     0.029 A 
HETATM   16  C   UNL     1      -0.647   6.300 -30.659  1.00  0.00     0.002 A 
HETATM   17  C   UNL     1      -0.309   7.058 -31.769  1.00  0.00     0.000 A 
HETATM   18  C   UNL     1      -1.287   7.832 -32.377  1.00  0.00     0.002 A 
HETATM   19  C   UNL     1      -2.591   7.845 -31.864  1.00  0.00     0.029 A 
ENDBRANCH  12  14
BRANCH   1  20
HETATM   20  C   UNL     1      -6.616   8.278 -27.633  1.00  0.00     0.230 C 
BRANCH  20  21
HETATM   21  C   UNL     1      -7.494   9.473 -28.021  1.00  0.00     0.235 C 
HETATM   22  N   UNL     1      -8.784   9.164 -28.394  1.00  0.00    -0.358 N 
HETATM   23  H   UNL     1      -8.973   8.203 -28.661  1.00  0.00     0.162 HD
HETATM   24  O   UNL     1      -7.041  10.614 -28.074  1.00  0.00    -0.272 OA
BRANCH  22  25
HETATM   25  C   UNL     1      -9.668  10.176 -28.947  1.00  0.00     0.148 C 
BRANCH  25  26
HETATM   26  C   UNL     1      -9.770  10.074 -30.467  1.00  0.00     0.186 C 
BRANCH  26  27
HETATM   27  O   UNL     1     -10.267   8.779 -30.819  1.00  0.00    -0.394 OA
HETATM   28  C   UNL     1      -9.658   8.298 -32.012  1.00  0.00     0.201 C 
ENDBRANCH  26  27
ENDBRANCH  25  26
ENDBRANCH  22  25
ENDBRANCH  20  21
ENDBRANCH   1  20
BRANCH   8  29
HETATM   29  C   UNL     1      -5.710   2.196 -33.263  1.00  0.00     0.032 A 
HETATM   30  C   UNL     1      -4.468   1.878 -32.710  1.00  0.00     0.018 A 
HETATM   31  C   UNL     1      -4.060   0.543 -32.651  1.00  0.00     0.013 A 
HETATM   32  C   UNL     1      -4.894  -0.499 -33.101  1.00  0.00    -0.026 A 
HETATM   33  C   UNL     1      -6.183  -0.151 -33.553  1.00  0.00     0.013 A 
HETATM   34  C   UNL     1      -6.591   1.183 -33.638  1.00  0.00     0.018 A 
BRANCH  32  35
HETATM   35  C   UNL     1      -4.414  -1.898 -33.146  1.00  0.00    -0.026 A 
HETATM   36  C   UNL     1      -3.556  -2.419 -32.163  1.00  0.00     0.012 A 
HETATM   37  C   UNL     1      -3.064  -3.726 -32.244  1.00  0.00     0.001 A 
HETATM   38  C   UNL     1      -3.429  -4.545 -33.309  1.00  0.00     0.000 A 
HETATM   39  C   UNL     1      -4.285  -4.059 -34.290  1.00  0.00     0.001 A 
HETATM   40  C   UNL     1      -4.768  -2.749 -34.211  1.00  0.00     0.012 A 
ENDBRANCH  32  35
ENDBRANCH   8  29
TORSDOF 8
ENDMDL
MODEL 9
REMARK VINA RESULT:      -8.2      2.573      3.881
REMARK  8 active torsions:
REMARK  status: ('A' for Active; 'I' for Inactive)
REMARK    1  A    between atoms: O_2  and  C_3 
REMARK    2  A    between atoms: C_3  and  C_4 
REMARK    3  A    between atoms: C_4  and  N_5 
REMARK       I    between atoms: N_5  and  C_6 
REMARK    4  A    between atoms: C_6  and  C_7 
REMARK    5  A    between atoms: C_7  and  N_8 
REMARK       I    between atoms: N_14  and  C_15 
REMARK    6  A    between atoms: C_15  and  C_16 
REMARK    7  A    between atoms: C_19  and  C_20 
REMARK    8  A    between atoms: N_31  and  C_32 
ROOT
HETATM    1  N   UNL     1      -7.913   6.990 -28.543  1.00  0.00    -0.325 N 
HETATM    2  C   UNL     1      -8.089   6.253 -29.687  1.00  0.00     0.250 A 
HETATM    3  O   UNL     1      -9.166   5.868 -30.114  1.00  0.00    -0.270 OA
HETATM    4  C   UNL     1      -6.694   5.958 -30.282  1.00  0.00     0.118 A 
HETATM    5  C   UNL     1      -6.662   6.494 -31.724  1.00  0.00     0.061 C 
HETATM    6  C   UNL     1      -7.381   5.570 -32.708  1.00  0.00     0.129 C 
HETATM    7  N   UNL     1      -6.969   4.183 -32.519  1.00  0.00    -0.348 N 
HETATM    8  C   UNL     1      -6.101   3.603 -33.447  1.00  0.00     0.253 C 
HETATM    9  O   UNL     1      -5.621   4.208 -34.403  1.00  0.00    -0.267 OA
HETATM   10  C   UNL     1      -7.246   3.652 -31.185  1.00  0.00     0.129 C 
HETATM   11  C   UNL     1      -6.474   4.442 -30.134  1.00  0.00     0.061 C 
HETATM   12  N   UNL     1      -5.797   6.730 -29.368  1.00  0.00    -0.346 N 
HETATM   13  C   UNL     1      -6.555   7.353 -28.293  1.00  0.00     0.254 A 
ENDROOT
BRANCH  12  14
HETATM   14  C   UNL     1      -4.414   6.787 -29.366  1.00  0.00     0.032 A 
HETATM   15  C   UNL     1      -3.626   6.443 -30.475  1.00  0.00     0.029 A 
HETATM   16  C   UNL     1      -2.224   6.494 -30.453  1.00  0.00     0.002 A 
HETATM   17  C   UNL     1      -1.555   6.900 -29.309  1.00  0.00     0.000 A 
HETATM   18  C   UNL     1      -2.294   7.263 -28.192  1.00  0.00     0.002 A 
HETATM   19  C   UNL     1      -3.694   7.209 -28.229  1.00  0.00     0.029 A 
ENDBRANCH  12  14
BRANCH   1  20
HETATM   20  C   UNL     1      -8.989   7.437 -27.671  1.00  0.00     0.230 C 
BRANCH  20  21
HETATM   21  C   UNL     1      -8.840   8.887 -27.197  1.00  0.00     0.235 C 
HETATM   22  N   UNL     1      -8.764   9.833 -28.197  1.00  0.00    -0.358 N 
HETATM   23  H   UNL     1      -8.525   9.506 -29.128  1.00  0.00     0.162 HD
HETATM   24  O   UNL     1      -8.713   9.165 -26.007  1.00  0.00    -0.272 OA
BRANCH  22  25
HETATM   25  C   UNL     1      -8.452  11.219 -27.896  1.00  0.00     0.148 C 
BRANCH  25  26
HETATM   26  C   UNL     1      -6.950  11.488 -27.937  1.00  0.00     0.186 C 
BRANCH  26  27
HETATM   27  O   UNL     1      -6.404  10.920 -29.133  1.00  0.00    -0.394 OA
HETATM   28  C   UNL     1      -5.000  10.718 -29.017  1.00  0.00     0.201 C 
ENDBRANCH  26  27
ENDBRANCH  25  26
ENDBRANCH  22  25
ENDBRANCH  20  21
ENDBRANCH   1  20
BRANCH   8  29
HETATM   29  C   UNL     1      -5.710   2.188 -33.257  1.00  0.00     0.032 A 
HETATM   30  C   UNL     1      -4.549   1.852 -32.557  1.00  0.00     0.018 A 
HETATM   31  C   UNL     1      -4.121   0.522 -32.525  1.00  0.00     0.013 A 
HETATM   32  C   UNL     1      -4.860  -0.500 -33.153  1.00  0.00    -0.026 A 
HETATM   33  C   UNL     1      -6.082  -0.142 -33.758  1.00  0.00     0.013 A 
HETATM   34  C   UNL     1      -6.505   1.188 -33.814  1.00  0.00     0.018 A 
BRANCH  32  35
HETATM   35  C   UNL     1      -4.345  -1.886 -33.219  1.00  0.00    -0.026 A 
HETATM   36  C   UNL     1      -4.668  -2.746 -34.282  1.00  0.00     0.012 A 
HETATM   37  C   UNL     1      -4.221  -4.071 -34.308  1.00  0.00     0.001 A 
HETATM   38  C   UNL     1      -3.431  -4.562 -33.273  1.00  0.00     0.000 A 
HETATM   39  C   UNL     1      -3.088  -3.730 -32.213  1.00  0.00     0.001 A 
HETATM   40  C   UNL     1      -3.544  -2.409 -32.186  1.00  0.00     0.012 A 
ENDBRANCH  32  35
ENDBRANCH   8  29
TORSDOF 8
ENDMDL
MODEL 10
REMARK VINA RESULT:      -8.1      4.444      9.076
REMARK  8 active torsions:
REMARK  status: ('A' for Active; 'I' for Inactive)
REMARK    1  A    between atoms: O_2  and  C_3 
REMARK    2  A    between atoms: C_3  and  C_4 
REMARK    3  A    between atoms: C_4  and  N_5 
REMARK       I    between atoms: N_5  and  C_6 
REMARK    4  A    between atoms: C_6  and  C_7 
REMARK    5  A    between atoms: C_7  and  N_8 
REMARK       I    between atoms: N_14  and  C_15 
REMARK    6  A    between atoms: C_15  and  C_16 
REMARK    7  A    between atoms: C_19  and  C_20 
REMARK    8  A    between atoms: N_31  and  C_32 
ROOT
HETATM    1  N   UNL     1      -4.988   0.416 -32.060  1.00  0.00    -0.325 N 
HETATM    2  C   UNL     1      -6.232   0.908 -31.753  1.00  0.00     0.250 A 
HETATM    3  O   UNL     1      -7.203   0.227 -31.459  1.00  0.00    -0.270 OA
HETATM    4  C   UNL     1      -6.187   2.444 -31.907  1.00  0.00     0.118 A 
HETATM    5  C   UNL     1      -6.612   3.075 -30.568  1.00  0.00     0.061 C 
HETATM    6  C   UNL     1      -8.126   3.046 -30.363  1.00  0.00     0.129 C 
HETATM    7  N   UNL     1      -8.825   3.514 -31.554  1.00  0.00    -0.348 N 
HETATM    8  C   UNL     1      -9.395   4.790 -31.548  1.00  0.00     0.253 C 
HETATM    9  O   UNL     1      -9.305   5.572 -30.604  1.00  0.00    -0.267 OA
HETATM   10  C   UNL     1      -8.564   2.720 -32.754  1.00  0.00     0.129 C 
HETATM   11  C   UNL     1      -7.083   2.784 -33.112  1.00  0.00     0.061 C 
HETATM   12  N   UNL     1      -4.744   2.683 -32.216  1.00  0.00    -0.346 N 
HETATM   13  C   UNL     1      -4.015   1.428 -32.321  1.00  0.00     0.254 A 
ENDROOT
BRANCH  12  14
HETATM   14  C   UNL     1      -4.117   3.878 -32.526  1.00  0.00     0.032 A 
HETATM   15  C   UNL     1      -2.808   3.955 -33.025  1.00  0.00     0.029 A 
HETATM   16  C   UNL     1      -2.181   5.175 -33.322  1.00  0.00     0.002 A 
HETATM   17  C   UNL     1      -2.852   6.373 -33.130  1.00  0.00     0.000 A 
HETATM   18  C   UNL     1      -4.153   6.344 -32.651  1.00  0.00     0.002 A 
HETATM   19  C   UNL     1      -4.768   5.118 -32.362  1.00  0.00     0.029 A 
ENDBRANCH  12  14
BRANCH   1  20
HETATM   20  C   UNL     1      -4.634  -0.995 -32.069  1.00  0.00     0.230 C 
BRANCH  20  21
HETATM   21  C   UNL     1      -4.875  -1.686 -33.416  1.00  0.00     0.235 C 
HETATM   22  N   UNL     1      -6.196  -1.903 -33.742  1.00  0.00    -0.358 N 
HETATM   23  H   UNL     1      -6.874  -1.868 -32.987  1.00  0.00     0.162 HD
HETATM   24  O   UNL     1      -3.943  -2.089 -34.108  1.00  0.00    -0.272 OA
BRANCH  22  25
HETATM   25  C   UNL     1      -6.561  -2.697 -34.903  1.00  0.00     0.148 C 
BRANCH  25  26
HETATM   26  C   UNL     1      -6.958  -4.120 -34.519  1.00  0.00     0.186 C 
BRANCH  26  27
HETATM   27  O   UNL     1      -6.059  -5.044 -35.143  1.00  0.00    -0.394 OA
HETATM   28  C   UNL     1      -4.919  -5.288 -34.327  1.00  0.00     0.201 C 
ENDBRANCH  26  27
ENDBRANCH  25  26
ENDBRANCH  22  25
ENDBRANCH  20  21
ENDBRANCH   1  20
BRANCH   8  29
HETATM   29  C   UNL     1     -10.121   5.243 -32.755  1.00  0.00     0.032 A 
HETATM   30  C   UNL     1      -9.478   5.996 -33.740  1.00  0.00     0.018 A 
HETATM   31  C   UNL     1     -10.223   6.541 -34.789  1.00  0.00     0.013 A 
HETATM   32  C   UNL     1     -11.609   6.315 -34.899  1.00  0.00    -0.026 A 
HETATM   33  C   UNL     1     -12.206   5.464 -33.948  1.00  0.00     0.013 A 
HETATM   34  C   UNL     1     -11.474   4.932 -32.883  1.00  0.00     0.018 A 
BRANCH  32  35
HETATM   35  C   UNL     1     -12.414   6.990 -35.942  1.00  0.00    -0.026 A 
HETATM   36  C   UNL     1     -13.661   6.491 -36.352  1.00  0.00     0.012 A 
HETATM   37  C   UNL     1     -14.389   7.105 -37.377  1.00  0.00     0.001 A 
HETATM   38  C   UNL     1     -13.888   8.240 -38.007  1.00  0.00     0.000 A 
HETATM   39  C   UNL     1     -12.660   8.761 -37.614  1.00  0.00     0.001 A 
HETATM   40  C   UNL     1     -11.930   8.140 -36.596  1.00  0.00     0.012 A 
ENDBRANCH  32  35
ENDBRANCH   8  29
TORSDOF 8
ENDMDL
