MODEL 1
REMARK VINA RESULT:      -9.4      0.000      0.000
REMARK  6 active torsions:
REMARK  status: ('A' for Active; 'I' for Inactive)
REMARK    1  A    between atoms: N_6  and  C_7 
REMARK    2  A    between atoms: C_10  and  N_11 
REMARK    3  A    between atoms: N_11  and  C_12 
REMARK    4  A    between atoms: C_12  and  N_13 
REMARK       I    between atoms: N_13  and  C_14 
REMARK    5  A    between atoms: C_14  and  C_15 
REMARK    6  A    between atoms: C_16  and  O_17 
ROOT
HETATM    1  C   UNL     1      -7.852   2.833 -32.344  1.00  0.00     0.179 C 
HETATM    2  S   UNL     1      -8.860   2.868 -31.011  1.00  0.00    -0.040 SA
ENDROOT
BRANCH   1   3
HETATM    3  N   UNL     1      -7.641   3.977 -33.040  1.00  0.00    -0.333 N 
HETATM    4  H   UNL     1      -8.437   4.290 -33.585  1.00  0.00     0.168 HD
BRANCH   3   5
HETATM    5  C   UNL     1      -6.441   4.683 -33.246  1.00  0.00     0.034 C 
HETATM    6  C   UNL     1      -6.122   5.723 -32.377  1.00  0.00     0.032 C 
HETATM    7  C   UNL     1      -4.881   6.373 -32.474  1.00  0.00     0.031 C 
HETATM    8  C   UNL     1      -3.935   5.994 -33.435  1.00  0.00     0.030 C 
HETATM    9  C   UNL     1      -4.348   5.053 -34.390  1.00  0.00     0.031 C 
HETATM   10  C   UNL     1      -5.582   4.409 -34.301  1.00  0.00     0.032 C 
BRANCH   8  11
HETATM   11  N   UNL     1      -2.620   6.478 -33.483  1.00  0.00    -0.378 N 
HETATM   12  C   UNL     1      -1.597   5.403 -33.557  1.00  0.00     0.150 C 
HETATM   13  C   UNL     1      -1.212   4.922 -32.143  1.00  0.00     0.254 C 
HETATM   14  N   UNL     1      -0.696   6.106 -31.320  1.00  0.00    -0.072 N 
HETATM   15  C   UNL     1      -0.230   5.684 -29.961  1.00  0.00     0.269 C 
HETATM   16  H   UNL     1       0.114   6.488 -31.825  1.00  0.00     0.279 HD
HETATM   17  C   UNL     1      -1.745   7.215 -31.247  1.00  0.00     0.254 C 
HETATM   18  C   UNL     1      -2.220   7.631 -32.658  1.00  0.00     0.150 C 
ENDBRANCH   8  11
ENDBRANCH   3   5
ENDBRANCH   1   3
BRANCH   1  19
HETATM   19  N   UNL     1      -7.231   1.655 -32.650  1.00  0.00    -0.299 N 
HETATM   20  C   UNL     1      -7.013   1.066 -33.894  1.00  0.00     0.260 C 
HETATM   21  O   UNL     1      -7.379   1.459 -34.995  1.00  0.00    -0.267 OA
HETATM   22  H   UNL     1      -6.606   1.350 -31.913  1.00  0.00     0.171 HD
BRANCH  20  23
HETATM   23  C   UNL     1      -6.138  -0.120 -33.844  1.00  0.00     0.068 A 
HETATM   24  C   UNL     1      -4.906  -0.092 -33.192  1.00  0.00     0.102 A 
HETATM   25  C   UNL     1      -4.177  -1.289 -33.055  1.00  0.00     0.056 A 
HETATM   26 BR   UNL     1      -2.578  -1.279 -31.996  1.00  0.00    -0.047 Br
HETATM   27  C   UNL     1      -4.638  -2.501 -33.650  1.00  0.00    -0.006 A 
HETATM   28  C   UNL     1      -5.877  -2.480 -34.345  1.00  0.00    -0.024 A 
HETATM   29  C   UNL     1      -3.952  -3.740 -33.597  1.00  0.00     0.014 A 
HETATM   30  C   UNL     1      -6.619  -1.297 -34.420  1.00  0.00     0.032 A 
HETATM   31  C   UNL     1      -6.374  -3.646 -34.947  1.00  0.00     0.012 A 
HETATM   32  C   UNL     1      -5.669  -4.844 -34.879  1.00  0.00     0.001 A 
HETATM   33  C   UNL     1      -4.458  -4.892 -34.204  1.00  0.00     0.001 A 
BRANCH  24  34
HETATM   34  O   UNL     1      -4.477   1.088 -32.637  1.00  0.00    -0.353 OA
HETATM   35  C   UNL     1      -4.547   1.057 -31.207  1.00  0.00     0.210 C 
ENDBRANCH  24  34
ENDBRANCH  20  23
ENDBRANCH   1  19
TORSDOF 6
ENDMDL
MODEL 2
REMARK VINA RESULT:      -9.3      3.217      4.713
REMARK  6 active torsions:
REMARK  status: ('A' for Active; 'I' for Inactive)
REMARK    1  A    between atoms: N_6  and  C_7 
REMARK    2  A    between atoms: C_10  and  N_11 
REMARK    3  A    between atoms: N_11  and  C_12 
REMARK    4  A    between atoms: C_12  and  N_13 
REMARK       I    between atoms: N_13  and  C_14 
REMARK    5  A    between atoms: C_14  and  C_15 
REMARK    6  A    between atoms: C_16  and  O_17 
ROOT
HETATM    1  C   UNL     1      -2.688   3.781 -32.463  1.00  0.00     0.179 C 
HETATM    2  S   UNL     1      -2.384   4.836 -33.725  1.00  0.00    -0.040 SA
ENDROOT
BRANCH   1   3
HETATM    3  N   UNL     1      -2.279   4.113 -31.214  1.00  0.00    -0.333 N 
HETATM    4  H   UNL     1      -2.394   3.376 -30.526  1.00  0.00     0.168 HD
BRANCH   3   5
HETATM    5  C   UNL     1      -1.888   5.367 -30.710  1.00  0.00     0.034 C 
HETATM    6  C   UNL     1      -2.871   6.317 -30.449  1.00  0.00     0.032 C 
HETATM    7  C   UNL     1      -2.536   7.535 -29.835  1.00  0.00     0.031 C 
HETATM    8  C   UNL     1      -1.217   7.823 -29.464  1.00  0.00     0.030 C 
HETATM    9  C   UNL     1      -0.232   6.915 -29.880  1.00  0.00     0.031 C 
HETATM   10  C   UNL     1      -0.559   5.707 -30.497  1.00  0.00     0.032 C 
BRANCH   8  11
HETATM   11  N   UNL     1      -0.836   8.935 -28.701  1.00  0.00    -0.378 N 
HETATM   12  C   UNL     1       0.146   8.611 -27.633  1.00  0.00     0.150 C 
HETATM   13  C   UNL     1      -0.579   8.161 -26.348  1.00  0.00     0.254 C 
HETATM   14  N   UNL     1      -1.538   9.263 -25.886  1.00  0.00    -0.072 N 
HETATM   15  C   UNL     1      -2.211   8.915 -24.595  1.00  0.00     0.269 C 
HETATM   16  H   UNL     1      -0.969  10.104 -25.727  1.00  0.00     0.279 HD
HETATM   17  C   UNL     1      -2.545   9.600 -26.985  1.00  0.00     0.254 C 
HETATM   18  C   UNL     1      -1.832   9.948 -28.312  1.00  0.00     0.150 C 
ENDBRANCH   8  11
ENDBRANCH   3   5
ENDBRANCH   1   3
BRANCH   1  19
HETATM   19  N   UNL     1      -3.394   2.642 -32.733  1.00  0.00    -0.299 N 
HETATM   20  C   UNL     1      -3.425   1.435 -32.038  1.00  0.00     0.260 C 
HETATM   21  O   UNL     1      -2.781   1.112 -31.048  1.00  0.00    -0.267 OA
HETATM   22  H   UNL     1      -4.198   2.822 -33.323  1.00  0.00     0.171 HD
BRANCH  20  23
HETATM   23  C   UNL     1      -4.452   0.496 -32.525  1.00  0.00     0.068 A 
HETATM   24  C   UNL     1      -5.811   0.803 -32.465  1.00  0.00     0.102 A 
HETATM   25  C   UNL     1      -6.736  -0.068 -33.071  1.00  0.00     0.056 A 
HETATM   26 BR   UNL     1      -8.580   0.455 -33.149  1.00  0.00    -0.047 Br
HETATM   27  C   UNL     1      -6.312  -1.295 -33.661  1.00  0.00    -0.006 A 
HETATM   28  C   UNL     1      -4.923  -1.594 -33.664  1.00  0.00    -0.024 A 
HETATM   29  C   UNL     1      -7.176  -2.248 -34.258  1.00  0.00     0.014 A 
HETATM   30  C   UNL     1      -4.009  -0.690 -33.113  1.00  0.00     0.032 A 
HETATM   31  C   UNL     1      -4.454  -2.788 -34.235  1.00  0.00     0.012 A 
HETATM   32  C   UNL     1      -5.334  -3.704 -34.806  1.00  0.00     0.001 A 
HETATM   33  C   UNL     1      -6.695  -3.433 -34.818  1.00  0.00     0.001 A 
BRANCH  24  34
HETATM   34  O   UNL     1      -6.197   1.983 -31.882  1.00  0.00    -0.353 OA
HETATM   35  C   UNL     1      -6.505   1.813 -30.494  1.00  0.00     0.210 C 
ENDBRANCH  24  34
ENDBRANCH  20  23
ENDBRANCH   1  19
TORSDOF 6
ENDMDL
MODEL 3
REMARK VINA RESULT:      -9.3      1.866      2.784
REMARK  6 active torsions:
REMARK  status: ('A' for Active; 'I' for Inactive)
REMARK    1  A    between atoms: N_6  and  C_7 
REMARK    2  A    between atoms: C_10  and  N_11 
REMARK    3  A    between atoms: N_11  and  C_12 
REMARK    4  A    between atoms: C_12  and  N_13 
REMARK       I    between atoms: N_13  and  C_14 
REMARK    5  A    between atoms: C_14  and  C_15 
REMARK    6  A    between atoms: C_16  and  O_17 
ROOT
HETATM    1  C   UNL     1      -9.933   1.105 -32.654  1.00  0.00     0.179 C 
HETATM    2  S   UNL     1     -11.339   0.821 -33.514  1.00  0.00    -0.040 SA
ENDROOT
BRANCH   1   3
HETATM    3  N   UNL     1      -9.921   2.082 -31.716  1.00  0.00    -0.333 N 
HETATM    4  H   UNL     1     -10.779   2.160 -31.180  1.00  0.00     0.168 HD
BRANCH   3   5
HETATM    5  C   UNL     1      -8.969   3.096 -31.501  1.00  0.00     0.034 C 
HETATM    6  C   UNL     1      -8.000   2.904 -30.520  1.00  0.00     0.032 C 
HETATM    7  C   UNL     1      -6.962   3.836 -30.355  1.00  0.00     0.031 C 
HETATM    8  C   UNL     1      -6.870   4.972 -31.169  1.00  0.00     0.030 C 
HETATM    9  C   UNL     1      -7.944   5.214 -32.038  1.00  0.00     0.031 C 
HETATM   10  C   UNL     1      -8.980   4.294 -32.201  1.00  0.00     0.032 C 
BRANCH   8  11
HETATM   11  N   UNL     1      -5.778   5.851 -31.177  1.00  0.00    -0.378 N 
HETATM   12  C   UNL     1      -5.561   6.512 -32.490  1.00  0.00     0.150 C 
HETATM   13  C   UNL     1      -4.673   5.635 -33.399  1.00  0.00     0.254 C 
HETATM   14  N   UNL     1      -3.337   5.361 -32.702  1.00  0.00    -0.072 N 
HETATM   15  C   UNL     1      -2.401   4.581 -33.572  1.00  0.00     0.269 C 
HETATM   16  H   UNL     1      -2.906   6.276 -32.517  1.00  0.00     0.279 HD
HETATM   17  C   UNL     1      -3.559   4.686 -31.349  1.00  0.00     0.254 C 
HETATM   18  C   UNL     1      -4.534   5.501 -30.469  1.00  0.00     0.150 C 
ENDBRANCH   8  11
ENDBRANCH   3   5
ENDBRANCH   1   3
BRANCH   1  19
HETATM   19  N   UNL     1      -8.859   0.295 -32.894  1.00  0.00    -0.299 N 
HETATM   20  C   UNL     1      -8.067   0.189 -34.036  1.00  0.00     0.260 C 
HETATM   21  O   UNL     1      -8.194   0.774 -35.105  1.00  0.00    -0.267 OA
HETATM   22  H   UNL     1      -8.426  -0.029 -32.037  1.00  0.00     0.171 HD
BRANCH  20  23
HETATM   23  C   UNL     1      -6.878  -0.663 -33.857  1.00  0.00     0.068 A 
HETATM   24  C   UNL     1      -5.810  -0.268 -33.051  1.00  0.00     0.102 A 
HETATM   25  C   UNL     1      -4.765  -1.178 -32.805  1.00  0.00     0.056 A 
HETATM   26 BR   UNL     1      -3.399  -0.696 -31.548  1.00  0.00    -0.047 Br
HETATM   27  C   UNL     1      -4.741  -2.457 -33.437  1.00  0.00    -0.006 A 
HETATM   28  C   UNL     1      -5.825  -2.807 -34.286  1.00  0.00    -0.024 A 
HETATM   29  C   UNL     1      -3.712  -3.420 -33.278  1.00  0.00     0.014 A 
HETATM   30  C   UNL     1      -6.887  -1.915 -34.473  1.00  0.00     0.032 A 
HETATM   31  C   UNL     1      -5.850  -4.054 -34.930  1.00  0.00     0.012 A 
HETATM   32  C   UNL     1      -4.818  -4.972 -34.755  1.00  0.00     0.001 A 
HETATM   33  C   UNL     1      -3.749  -4.655 -33.928  1.00  0.00     0.001 A 
BRANCH  24  34
HETATM   34  O   UNL     1      -5.848   0.972 -32.463  1.00  0.00    -0.353 OA
HETATM   35  C   UNL     1      -5.311   1.983 -33.323  1.00  0.00     0.210 C 
ENDBRANCH  24  34
ENDBRANCH  20  23
ENDBRANCH   1  19
TORSDOF 6
ENDMDL
MODEL 4
REMARK VINA RESULT:      -9.0      4.151     10.018
REMARK  6 active torsions:
REMARK  status: ('A' for Active; 'I' for Inactive)
REMARK    1  A    between atoms: N_6  and  C_7 
REMARK    2  A    between atoms: C_10  and  N_11 
REMARK    3  A    between atoms: N_11  and  C_12 
REMARK    4  A    between atoms: C_12  and  N_13 
REMARK       I    between atoms: N_13  and  C_14 
REMARK    5  A    between atoms: C_14  and  C_15 
REMARK    6  A    between atoms: C_16  and  O_17 
ROOT
HETATM    1  C   UNL     1      -2.641   3.889 -31.610  1.00  0.00     0.179 C 
HETATM    2  S   UNL     1      -2.827   4.218 -33.239  1.00  0.00    -0.040 SA
ENDROOT
BRANCH   1   3
HETATM    3  N   UNL     1      -2.996   2.670 -31.139  1.00  0.00    -0.333 N 
HETATM    4  H   UNL     1      -2.246   2.162 -30.680  1.00  0.00     0.168 HD
BRANCH   3   5
HETATM    5  C   UNL     1      -4.188   1.950 -31.344  1.00  0.00     0.034 C 
HETATM    6  C   UNL     1      -5.353   2.398 -30.727  1.00  0.00     0.032 C 
HETATM    7  C   UNL     1      -6.584   1.781 -31.001  1.00  0.00     0.031 C 
HETATM    8  C   UNL     1      -6.676   0.709 -31.899  1.00  0.00     0.030 C 
HETATM    9  C   UNL     1      -5.468   0.185 -32.380  1.00  0.00     0.031 C 
HETATM   10  C   UNL     1      -4.241   0.791 -32.106  1.00  0.00     0.032 C 
BRANCH   8  11
HETATM   11  N   UNL     1      -7.883   0.157 -32.348  1.00  0.00    -0.378 N 
HETATM   12  C   UNL     1      -7.950   0.005 -33.824  1.00  0.00     0.150 C 
HETATM   13  C   UNL     1      -8.470   1.301 -34.480  1.00  0.00     0.254 C 
HETATM   14  N   UNL     1      -9.847   1.650 -33.907  1.00  0.00    -0.072 N 
HETATM   15  C   UNL     1     -10.439   2.858 -34.567  1.00  0.00     0.269 C 
HETATM   16  H   UNL     1     -10.462   0.850 -34.106  1.00  0.00     0.279 HD
HETATM   17  C   UNL     1      -9.780   1.802 -32.388  1.00  0.00     0.254 C 
HETATM   18  C   UNL     1      -9.160   0.550 -31.726  1.00  0.00     0.150 C 
ENDBRANCH   8  11
ENDBRANCH   3   5
ENDBRANCH   1   3
BRANCH   1  19
HETATM   19  N   UNL     1      -2.079   4.853 -30.819  1.00  0.00    -0.299 N 
HETATM   20  C   UNL     1      -0.748   5.253 -30.722  1.00  0.00     0.260 C 
HETATM   21  O   UNL     1       0.228   4.789 -31.298  1.00  0.00    -0.267 OA
HETATM   22  H   UNL     1      -2.759   5.537 -30.509  1.00  0.00     0.171 HD
BRANCH  20  23
HETATM   23  C   UNL     1      -0.549   6.456 -29.894  1.00  0.00     0.068 A 
HETATM   24  C   UNL     1      -1.317   7.606 -30.079  1.00  0.00     0.102 A 
HETATM   25  C   UNL     1      -1.180   8.673 -29.171  1.00  0.00     0.056 A 
HETATM   26 BR   UNL     1      -2.371  10.169 -29.320  1.00  0.00    -0.047 Br
HETATM   27  C   UNL     1      -0.209   8.628 -28.127  1.00  0.00    -0.006 A 
HETATM   28  C   UNL     1       0.585   7.458 -27.997  1.00  0.00    -0.024 A 
HETATM   29  C   UNL     1       0.024   9.670 -27.193  1.00  0.00     0.014 A 
HETATM   30  C   UNL     1       0.396   6.381 -28.870  1.00  0.00     0.032 A 
HETATM   31  C   UNL     1       1.553   7.364 -26.985  1.00  0.00     0.012 A 
HETATM   32  C   UNL     1       1.758   8.410 -26.090  1.00  0.00     0.001 A 
HETATM   33  C   UNL     1       0.993   9.563 -26.193  1.00  0.00     0.001 A 
BRANCH  24  34
HETATM   34  O   UNL     1      -2.236   7.631 -31.097  1.00  0.00    -0.353 OA
HETATM   35  C   UNL     1      -1.672   8.148 -32.308  1.00  0.00     0.210 C 
ENDBRANCH  24  34
ENDBRANCH  20  23
ENDBRANCH   1  19
TORSDOF 6
ENDMDL
MODEL 5
REMARK VINA RESULT:      -9.0      4.442      6.784
REMARK  6 active torsions:
REMARK  status: ('A' for Active; 'I' for Inactive)
REMARK    1  A    between atoms: N_6  and  C_7 
REMARK    2  A    between atoms: C_10  and  N_11 
REMARK    3  A    between atoms: N_11  and  C_12 
REMARK    4  A    between atoms: C_12  and  N_13 
REMARK       I    between atoms: N_13  and  C_14 
REMARK    5  A    between atoms: C_14  and  C_15 
REMARK    6  A    between atoms: C_16  and  O_17 
ROOT
HETATM    1  C   UNL     1      -9.322   1.527 -33.576  1.00  0.00     0.179 C 
HETATM    2  S   UNL     1      -9.590   2.274 -32.104  1.00  0.00    -0.040 SA
ENDROOT
BRANCH   1   3
HETATM    3  N   UNL     1     -10.072   1.890 -34.644  1.00  0.00    -0.333 N 
HETATM    4  H   UNL     1     -10.080   1.212 -35.400  1.00  0.00     0.168 HD
BRANCH   3   5
HETATM    5  C   UNL     1     -10.688   3.124 -34.921  1.00  0.00     0.034 C 
HETATM    6  C   UNL     1     -12.040   3.134 -35.255  1.00  0.00     0.032 C 
HETATM    7  C   UNL     1     -12.721   4.351 -35.421  1.00  0.00     0.031 C 
HETATM    8  C   UNL     1     -12.068   5.579 -35.250  1.00  0.00     0.030 C 
HETATM    9  C   UNL     1     -10.678   5.533 -35.068  1.00  0.00     0.031 C 
HETATM   10  C   UNL     1      -9.996   4.326 -34.909  1.00  0.00     0.032 C 
BRANCH   8  11
HETATM   11  N   UNL     1     -12.715   6.821 -35.233  1.00  0.00    -0.378 N 
HETATM   12  C   UNL     1     -14.056   6.799 -35.872  1.00  0.00     0.150 C 
HETATM   13  C   UNL     1     -13.938   7.047 -37.390  1.00  0.00     0.254 C 
HETATM   14  N   UNL     1     -13.242   8.388 -37.639  1.00  0.00    -0.072 N 
HETATM   15  C   UNL     1     -13.171   8.721 -39.097  1.00  0.00     0.269 C 
HETATM   16  H   UNL     1     -13.813   9.108 -37.179  1.00  0.00     0.279 HD
HETATM   17  C   UNL     1     -11.864   8.415 -36.978  1.00  0.00     0.254 C 
HETATM   18  C   UNL     1     -11.955   8.061 -35.476  1.00  0.00     0.150 C 
ENDBRANCH   8  11
ENDBRANCH   3   5
ENDBRANCH   1   3
BRANCH   1  19
HETATM   19  N   UNL     1      -8.310   0.613 -33.658  1.00  0.00    -0.299 N 
HETATM   20  C   UNL     1      -7.321   0.471 -34.630  1.00  0.00     0.260 C 
HETATM   21  O   UNL     1      -7.172   1.116 -35.660  1.00  0.00    -0.267 OA
HETATM   22  H   UNL     1      -8.092   0.202 -32.758  1.00  0.00     0.171 HD
BRANCH  20  23
HETATM   23  C   UNL     1      -6.285  -0.518 -34.283  1.00  0.00     0.068 A 
HETATM   24  C   UNL     1      -5.193  -0.183 -33.482  1.00  0.00     0.102 A 
HETATM   25  C   UNL     1      -4.311  -1.198 -33.068  1.00  0.00     0.056 A 
HETATM   26 BR   UNL     1      -2.925  -0.762 -31.815  1.00  0.00    -0.047 Br
HETATM   27  C   UNL     1      -4.467  -2.539 -33.529  1.00  0.00    -0.006 A 
HETATM   28  C   UNL     1      -5.566  -2.833 -34.380  1.00  0.00    -0.024 A 
HETATM   29  C   UNL     1      -3.606  -3.615 -33.196  1.00  0.00     0.014 A 
HETATM   30  C   UNL     1      -6.470  -1.826 -34.733  1.00  0.00     0.032 A 
HETATM   31  C   UNL     1      -5.765  -4.138 -34.859  1.00  0.00     0.012 A 
HETATM   32  C   UNL     1      -4.894  -5.168 -34.516  1.00  0.00     0.001 A 
HETATM   33  C   UNL     1      -3.814  -4.907 -33.683  1.00  0.00     0.001 A 
BRANCH  24  34
HETATM   34  O   UNL     1      -5.056   1.116 -33.060  1.00  0.00    -0.353 OA
HETATM   35  C   UNL     1      -5.590   1.305 -31.744  1.00  0.00     0.210 C 
ENDBRANCH  24  34
ENDBRANCH  20  23
ENDBRANCH   1  19
TORSDOF 6
ENDMDL
MODEL 6
REMARK VINA RESULT:      -8.8      2.871      5.620
REMARK  6 active torsions:
REMARK  status: ('A' for Active; 'I' for Inactive)
REMARK    1  A    between atoms: N_6  and  C_7 
REMARK    2  A    between atoms: C_10  and  N_11 
REMARK    3  A    between atoms: N_11  and  C_12 
REMARK    4  A    between atoms: C_12  and  N_13 
REMARK       I    between atoms: N_13  and  C_14 
REMARK    5  A    between atoms: C_14  and  C_15 
REMARK    6  A    between atoms: C_16  and  O_17 
ROOT
HETATM    1  C   UNL     1      -3.458   4.219 -32.415  1.00  0.00     0.179 C 
HETATM    2  S   UNL     1      -1.990   4.605 -33.115  1.00  0.00    -0.040 SA
ENDROOT
BRANCH   1   3
HETATM    3  N   UNL     1      -4.070   5.132 -31.623  1.00  0.00    -0.333 N 
HETATM    4  H   UNL     1      -3.454   5.596 -30.963  1.00  0.00     0.168 HD
BRANCH   3   5
HETATM    5  C   UNL     1      -5.443   5.399 -31.471  1.00  0.00     0.034 C 
HETATM    6  C   UNL     1      -6.208   5.634 -32.611  1.00  0.00     0.032 C 
HETATM    7  C   UNL     1      -7.601   5.784 -32.513  1.00  0.00     0.031 C 
HETATM    8  C   UNL     1      -8.256   5.697 -31.278  1.00  0.00     0.030 C 
HETATM    9  C   UNL     1      -7.444   5.616 -30.138  1.00  0.00     0.031 C 
HETATM   10  C   UNL     1      -6.059   5.472 -30.229  1.00  0.00     0.032 C 
BRANCH   8  11
HETATM   11  N   UNL     1      -9.649   5.668 -31.124  1.00  0.00    -0.378 N 
HETATM   12  C   UNL     1     -10.150   4.410 -30.513  1.00  0.00     0.150 C 
HETATM   13  C   UNL     1     -10.395   3.340 -31.598  1.00  0.00     0.254 C 
HETATM   14  N   UNL     1     -11.391   3.876 -32.632  1.00  0.00    -0.072 N 
HETATM   15  C   UNL     1     -11.731   2.849 -33.667  1.00  0.00     0.269 C 
HETATM   16  H   UNL     1     -12.254   4.105 -32.121  1.00  0.00     0.279 HD
HETATM   17  C   UNL     1     -10.879   5.173 -33.257  1.00  0.00     0.254 C 
HETATM   18  C   UNL     1     -10.526   6.217 -32.172  1.00  0.00     0.150 C 
ENDBRANCH   8  11
ENDBRANCH   3   5
ENDBRANCH   1   3
BRANCH   1  19
HETATM   19  N   UNL     1      -4.016   3.008 -32.716  1.00  0.00    -0.299 N 
HETATM   20  C   UNL     1      -3.802   1.763 -32.129  1.00  0.00     0.260 C 
HETATM   21  O   UNL     1      -3.020   1.472 -31.232  1.00  0.00    -0.267 OA
HETATM   22  H   UNL     1      -4.894   3.106 -33.213  1.00  0.00     0.171 HD
BRANCH  20  23
HETATM   23  C   UNL     1      -4.727   0.717 -32.600  1.00  0.00     0.068 A 
HETATM   24  C   UNL     1      -6.110   0.895 -32.569  1.00  0.00     0.102 A 
HETATM   25  C   UNL     1      -6.939  -0.077 -33.159  1.00  0.00     0.056 A 
HETATM   26 BR   UNL     1      -8.822   0.266 -33.279  1.00  0.00    -0.047 Br
HETATM   27  C   UNL     1      -6.391  -1.276 -33.704  1.00  0.00    -0.006 A 
HETATM   28  C   UNL     1      -4.980  -1.443 -33.677  1.00  0.00    -0.024 A 
HETATM   29  C   UNL     1      -7.151  -2.324 -34.281  1.00  0.00     0.014 A 
HETATM   30  C   UNL     1      -4.165  -0.440 -33.143  1.00  0.00     0.032 A 
HETATM   31  C   UNL     1      -4.391  -2.603 -34.203  1.00  0.00     0.012 A 
HETATM   32  C   UNL     1      -5.171  -3.615 -34.756  1.00  0.00     0.001 A 
HETATM   33  C   UNL     1      -6.551  -3.476 -34.796  1.00  0.00     0.001 A 
BRANCH  24  34
HETATM   34  O   UNL     1      -6.615   2.052 -32.029  1.00  0.00    -0.353 OA
HETATM   35  C   UNL     1      -6.876   1.912 -30.627  1.00  0.00     0.210 C 
ENDBRANCH  24  34
ENDBRANCH  20  23
ENDBRANCH   1  19
TORSDOF 6
ENDMDL
MODEL 7
REMARK VINA RESULT:      -8.7      3.759      9.616
REMARK  6 active torsions:
REMARK  status: ('A' for Active; 'I' for Inactive)
REMARK    1  A    between atoms: N_6  and  C_7 
REMARK    2  A    between atoms: C_10  and  N_11 
REMARK    3  A    between atoms: N_11  and  C_12 
REMARK    4  A    between atoms: C_12  and  N_13 
REMARK       I    between atoms: N_13  and  C_14 
REMARK    5  A    between atoms: C_14  and  C_15 
REMARK    6  A    between atoms: C_16  and  O_17 
ROOT
HETATM    1  C   UNL     1      -2.757   5.798 -33.347  1.00  0.00     0.179 C 
HETATM    2  S   UNL     1      -1.653   5.597 -34.587  1.00  0.00    -0.040 SA
ENDROOT
BRANCH   1   3
HETATM    3  N   UNL     1      -4.051   5.452 -33.555  1.00  0.00    -0.333 N 
HETATM    4  H   UNL     1      -4.684   6.239 -33.655  1.00  0.00     0.168 HD
BRANCH   3   5
HETATM    5  C   UNL     1      -4.656   4.184 -33.479  1.00  0.00     0.034 C 
HETATM    6  C   UNL     1      -4.053   3.203 -32.696  1.00  0.00     0.032 C 
HETATM    7  C   UNL     1      -4.686   1.965 -32.498  1.00  0.00     0.031 C 
HETATM    8  C   UNL     1      -5.933   1.686 -33.072  1.00  0.00     0.030 C 
HETATM    9  C   UNL     1      -6.436   2.632 -33.977  1.00  0.00     0.031 C 
HETATM   10  C   UNL     1      -5.808   3.861 -34.182  1.00  0.00     0.032 C 
BRANCH   8  11
HETATM   11  N   UNL     1      -6.697   0.547 -32.784  1.00  0.00    -0.378 N 
HETATM   12  C   UNL     1      -5.925  -0.528 -32.109  1.00  0.00     0.150 C 
HETATM   13  C   UNL     1      -5.234  -1.435 -33.148  1.00  0.00     0.254 C 
HETATM   14  N   UNL     1      -6.285  -2.032 -34.089  1.00  0.00    -0.072 N 
HETATM   15  C   UNL     1      -5.681  -2.987 -35.071  1.00  0.00     0.269 C 
HETATM   16  H   UNL     1      -6.944  -2.559 -33.502  1.00  0.00     0.279 HD
HETATM   17  C   UNL     1      -7.083  -0.927 -34.781  1.00  0.00     0.254 C 
HETATM   18  C   UNL     1      -7.692   0.053 -33.752  1.00  0.00     0.150 C 
ENDBRANCH   8  11
ENDBRANCH   3   5
ENDBRANCH   1   3
BRANCH   1  19
HETATM   19  N   UNL     1      -2.297   6.252 -32.143  1.00  0.00    -0.299 N 
HETATM   20  C   UNL     1      -1.913   7.539 -31.771  1.00  0.00     0.260 C 
HETATM   21  O   UNL     1      -1.861   8.546 -32.465  1.00  0.00    -0.267 OA
HETATM   22  H   UNL     1      -2.559   5.642 -31.379  1.00  0.00     0.171 HD
BRANCH  20  23
HETATM   23  C   UNL     1      -1.648   7.685 -30.328  1.00  0.00     0.068 A 
HETATM   24  C   UNL     1      -2.656   7.517 -29.379  1.00  0.00     0.102 A 
HETATM   25  C   UNL     1      -2.318   7.529 -28.012  1.00  0.00     0.056 A 
HETATM   26 BR   UNL     1      -3.674   7.110 -26.723  1.00  0.00    -0.047 Br
HETATM   27  C   UNL     1      -0.983   7.801 -27.589  1.00  0.00    -0.006 A 
HETATM   28  C   UNL     1       0.008   8.012 -28.585  1.00  0.00    -0.024 A 
HETATM   29  C   UNL     1      -0.561   7.872 -26.237  1.00  0.00     0.014 A 
HETATM   30  C   UNL     1      -0.331   7.935 -29.940  1.00  0.00     0.032 A 
HETATM   31  C   UNL     1       1.337   8.280 -28.220  1.00  0.00     0.012 A 
HETATM   32  C   UNL     1       1.713   8.349 -26.882  1.00  0.00     0.001 A 
HETATM   33  C   UNL     1       0.764   8.144 -25.890  1.00  0.00     0.001 A 
BRANCH  24  34
HETATM   34  O   UNL     1      -3.935   7.268 -29.809  1.00  0.00    -0.353 OA
HETATM   35  C   UNL     1      -4.691   8.477 -29.948  1.00  0.00     0.210 C 
ENDBRANCH  24  34
ENDBRANCH  20  23
ENDBRANCH   1  19
TORSDOF 6
ENDMDL
MODEL 8
REMARK VINA RESULT:      -8.5      3.604      5.182
REMARK  6 active torsions:
REMARK  status: ('A' for Active; 'I' for Inactive)
REMARK    1  A    between atoms: N_6  and  C_7 
REMARK    2  A    between atoms: C_10  and  N_11 
REMARK    3  A    between atoms: N_11  and  C_12 
REMARK    4  A    between atoms: C_12  and  N_13 
REMARK       I    between atoms: N_13  and  C_14 
REMARK    5  A    between atoms: C_14  and  C_15 
REMARK    6  A    between atoms: C_16  and  O_17 
ROOT
HETATM    1  C   UNL     1      -3.175   3.865 -32.179  1.00  0.00     0.179 C 
HETATM    2  S   UNL     1      -2.098   4.549 -33.261  1.00  0.00    -0.040 SA
ENDROOT
BRANCH   1   3
HETATM    3  N   UNL     1      -3.456   4.519 -31.026  1.00  0.00    -0.333 N 
HETATM    4  H   UNL     1      -2.814   4.322 -30.266  1.00  0.00     0.168 HD
BRANCH   3   5
HETATM    5  C   UNL     1      -4.588   5.284 -30.691  1.00  0.00     0.034 C 
HETATM    6  C   UNL     1      -4.775   6.511 -31.322  1.00  0.00     0.032 C 
HETATM    7  C   UNL     1      -5.951   7.249 -31.105  1.00  0.00     0.031 C 
HETATM    8  C   UNL     1      -6.963   6.772 -30.262  1.00  0.00     0.030 C 
HETATM    9  C   UNL     1      -6.676   5.614 -29.525  1.00  0.00     0.031 C 
HETATM   10  C   UNL     1      -5.507   4.881 -29.732  1.00  0.00     0.032 C 
BRANCH   8  11
HETATM   11  N   UNL     1      -8.225   7.366 -30.130  1.00  0.00    -0.378 N 
HETATM   12  C   UNL     1      -8.199   8.846 -30.255  1.00  0.00     0.150 C 
HETATM   13  C   UNL     1      -7.911   9.500 -28.887  1.00  0.00     0.254 C 
HETATM   14  N   UNL     1      -8.972   9.061 -27.874  1.00  0.00    -0.072 N 
HETATM   15  C   UNL     1      -8.791   9.730 -26.546  1.00  0.00     0.269 C 
HETATM   16  H   UNL     1      -9.882   9.353 -28.252  1.00  0.00     0.279 HD
HETATM   17  C   UNL     1      -9.004   7.538 -27.748  1.00  0.00     0.254 C 
HETATM   18  C   UNL     1      -9.184   6.865 -29.129  1.00  0.00     0.150 C 
ENDBRANCH   8  11
ENDBRANCH   3   5
ENDBRANCH   1   3
BRANCH   1  19
HETATM   19  N   UNL     1      -3.778   2.690 -32.529  1.00  0.00    -0.299 N 
HETATM   20  C   UNL     1      -3.604   1.413 -32.000  1.00  0.00     0.260 C 
HETATM   21  O   UNL     1      -2.827   1.054 -31.124  1.00  0.00    -0.267 OA
HETATM   22  H   UNL     1      -4.656   2.841 -33.014  1.00  0.00     0.171 HD
BRANCH  20  23
HETATM   23  C   UNL     1      -4.570   0.422 -32.508  1.00  0.00     0.068 A 
HETATM   24  C   UNL     1      -5.946   0.633 -32.425  1.00  0.00     0.102 A 
HETATM   25  C   UNL     1      -6.817  -0.278 -33.051  1.00  0.00     0.056 A 
HETATM   26 BR   UNL     1      -8.693   0.119 -33.093  1.00  0.00    -0.047 Br
HETATM   27  C   UNL     1      -6.317  -1.454 -33.686  1.00  0.00    -0.006 A 
HETATM   28  C   UNL     1      -4.911  -1.657 -33.712  1.00  0.00    -0.024 A 
HETATM   29  C   UNL     1      -7.121  -2.444 -34.306  1.00  0.00     0.014 A 
HETATM   30  C   UNL     1      -4.055  -0.711 -33.139  1.00  0.00     0.032 A 
HETATM   31  C   UNL     1      -4.369  -2.796 -34.327  1.00  0.00     0.012 A 
HETATM   32  C   UNL     1      -5.190  -3.751 -34.920  1.00  0.00     0.001 A 
HETATM   33  C   UNL     1      -6.567  -3.574 -34.910  1.00  0.00     0.001 A 
BRANCH  24  34
HETATM   34  O   UNL     1      -6.405   1.765 -31.798  1.00  0.00    -0.353 OA
HETATM   35  C   UNL     1      -6.675   1.530 -30.411  1.00  0.00     0.210 C 
ENDBRANCH  24  34
ENDBRANCH  20  23
ENDBRANCH   1  19
TORSDOF 6
ENDMDL
MODEL 9
REMARK VINA RESULT:      -8.5      4.012      9.060
REMARK  6 active torsions:
REMARK  status: ('A' for Active; 'I' for Inactive)
REMARK    1  A    between atoms: N_6  and  C_7 
REMARK    2  A    between atoms: C_10  and  N_11 
REMARK    3  A    between atoms: N_11  and  C_12 
REMARK    4  A    between atoms: C_12  and  N_13 
REMARK       I    between atoms: N_13  and  C_14 
REMARK    5  A    between atoms: C_14  and  C_15 
REMARK    6  A    between atoms: C_16  and  O_17 
ROOT
HETATM    1  C   UNL     1      -6.416   1.077 -31.248  1.00  0.00     0.179 C 
HETATM    2  S   UNL     1      -5.786  -0.448 -31.517  1.00  0.00    -0.040 SA
ENDROOT
BRANCH   1   3
HETATM    3  N   UNL     1      -7.751   1.215 -31.059  1.00  0.00    -0.333 N 
HETATM    4  H   UNL     1      -8.062   1.019 -30.113  1.00  0.00     0.168 HD
BRANCH   3   5
HETATM    5  C   UNL     1      -8.767   1.418 -32.009  1.00  0.00     0.034 C 
HETATM    6  C   UNL     1      -9.484   0.315 -32.466  1.00  0.00     0.032 C 
HETATM    7  C   UNL     1     -10.584   0.488 -33.323  1.00  0.00     0.031 C 
HETATM    8  C   UNL     1     -10.992   1.764 -33.733  1.00  0.00     0.030 C 
HETATM    9  C   UNL     1     -10.158   2.836 -33.382  1.00  0.00     0.031 C 
HETATM   10  C   UNL     1      -9.061   2.668 -32.537  1.00  0.00     0.032 C 
BRANCH   8  11
HETATM   11  N   UNL     1     -12.171   2.025 -34.444  1.00  0.00    -0.378 N 
HETATM   12  C   UNL     1     -12.740   3.370 -34.170  1.00  0.00     0.150 C 
HETATM   13  C   UNL     1     -13.667   3.327 -32.937  1.00  0.00     0.254 C 
HETATM   14  N   UNL     1     -14.782   2.303 -33.168  1.00  0.00    -0.072 N 
HETATM   15  C   UNL     1     -15.761   2.276 -32.035  1.00  0.00     0.269 C 
HETATM   16  H   UNL     1     -15.287   2.600 -34.013  1.00  0.00     0.279 HD
HETATM   17  C   UNL     1     -14.198   0.920 -33.454  1.00  0.00     0.254 C 
HETATM   18  C   UNL     1     -13.184   0.970 -34.620  1.00  0.00     0.150 C 
ENDBRANCH   8  11
ENDBRANCH   3   5
ENDBRANCH   1   3
BRANCH   1  19
HETATM   19  N   UNL     1      -5.546   2.128 -31.172  1.00  0.00    -0.299 N 
HETATM   20  C   UNL     1      -5.062   2.953 -32.185  1.00  0.00     0.260 C 
HETATM   21  O   UNL     1      -5.280   2.884 -33.388  1.00  0.00    -0.267 OA
HETATM   22  H   UNL     1      -5.500   2.520 -30.238  1.00  0.00     0.171 HD
BRANCH  20  23
HETATM   23  C   UNL     1      -4.282   4.103 -31.694  1.00  0.00     0.068 A 
HETATM   24  C   UNL     1      -4.861   5.094 -30.901  1.00  0.00     0.102 A 
HETATM   25  C   UNL     1      -4.039   6.092 -30.345  1.00  0.00     0.056 A 
HETATM   26 BR   UNL     1      -4.810   7.338 -29.107  1.00  0.00    -0.047 Br
HETATM   27  C   UNL     1      -2.648   6.154 -30.654  1.00  0.00    -0.006 A 
HETATM   28  C   UNL     1      -2.103   5.152 -31.501  1.00  0.00    -0.024 A 
HETATM   29  C   UNL     1      -1.754   7.144 -30.172  1.00  0.00     0.014 A 
HETATM   30  C   UNL     1      -2.920   4.131 -31.997  1.00  0.00     0.032 A 
HETATM   31  C   UNL     1      -0.739   5.167 -31.833  1.00  0.00     0.012 A 
HETATM   32  C   UNL     1       0.107   6.159 -31.346  1.00  0.00     0.001 A 
HETATM   33  C   UNL     1      -0.400   7.148 -30.514  1.00  0.00     0.001 A 
BRANCH  24  34
HETATM   34  O   UNL     1      -6.204   5.022 -30.627  1.00  0.00    -0.353 OA
HETATM   35  C   UNL     1      -6.981   5.748 -31.586  1.00  0.00     0.210 C 
ENDBRANCH  24  34
ENDBRANCH  20  23
ENDBRANCH   1  19
TORSDOF 6
ENDMDL
MODEL 10
REMARK VINA RESULT:      -8.5      1.787      2.384
REMARK  6 active torsions:
REMARK  status: ('A' for Active; 'I' for Inactive)
REMARK    1  A    between atoms: N_6  and  C_7 
REMARK    2  A    between atoms: C_10  and  N_11 
REMARK    3  A    between atoms: N_11  and  C_12 
REMARK    4  A    between atoms: C_12  and  N_13 
REMARK       I    between atoms: N_13  and  C_14 
REMARK    5  A    between atoms: C_14  and  C_15 
REMARK    6  A    between atoms: C_16  and  O_17 
ROOT
HETATM    1  C   UNL     1      -8.433   3.711 -31.423  1.00  0.00     0.179 C 
HETATM    2  S   UNL     1      -9.776   3.401 -30.475  1.00  0.00    -0.040 SA
ENDROOT
BRANCH   1   3
HETATM    3  N   UNL     1      -8.062   4.997 -31.638  1.00  0.00    -0.333 N 
HETATM    4  H   UNL     1      -8.753   5.556 -32.128  1.00  0.00     0.168 HD
BRANCH   3   5
HETATM    5  C   UNL     1      -6.811   5.606 -31.437  1.00  0.00     0.034 C 
HETATM    6  C   UNL     1      -6.172   5.430 -30.212  1.00  0.00     0.032 C 
HETATM    7  C   UNL     1      -4.871   5.920 -30.012  1.00  0.00     0.031 C 
HETATM    8  C   UNL     1      -4.182   6.589 -31.032  1.00  0.00     0.030 C 
HETATM    9  C   UNL     1      -4.908   6.885 -32.195  1.00  0.00     0.031 C 
HETATM   10  C   UNL     1      -6.203   6.406 -32.395  1.00  0.00     0.032 C 
BRANCH   8  11
HETATM   11  N   UNL     1      -2.831   6.954 -30.964  1.00  0.00    -0.378 N 
HETATM   12  C   UNL     1      -2.246   6.804 -29.606  1.00  0.00     0.150 C 
HETATM   13  C   UNL     1      -2.481   8.079 -28.770  1.00  0.00     0.254 C 
HETATM   14  N   UNL     1      -1.873   9.286 -29.491  1.00  0.00    -0.072 N 
HETATM   15  C   UNL     1      -2.000  10.542 -28.686  1.00  0.00     0.269 C 
HETATM   16  H   UNL     1      -0.872   9.088 -29.609  1.00  0.00     0.279 HD
HETATM   17  C   UNL     1      -2.471   9.439 -30.890  1.00  0.00     0.254 C 
HETATM   18  C   UNL     1      -2.338   8.131 -31.702  1.00  0.00     0.150 C 
ENDBRANCH   8  11
ENDBRANCH   3   5
ENDBRANCH   1   3
BRANCH   1  19
HETATM   19  N   UNL     1      -7.722   2.646 -31.900  1.00  0.00    -0.299 N 
HETATM   20  C   UNL     1      -7.166   2.446 -33.162  1.00  0.00     0.260 C 
HETATM   21  O   UNL     1      -7.235   3.173 -34.145  1.00  0.00    -0.267 OA
HETATM   22  H   UNL     1      -7.310   2.097 -31.155  1.00  0.00     0.171 HD
BRANCH  20  23
HETATM   23  C   UNL     1      -6.306   1.252 -33.250  1.00  0.00     0.068 A 
HETATM   24  C   UNL     1      -5.121   1.149 -32.522  1.00  0.00     0.102 A 
HETATM   25  C   UNL     1      -4.413  -0.067 -32.536  1.00  0.00     0.056 A 
HETATM   26 BR   UNL     1      -2.890  -0.261 -31.386  1.00  0.00    -0.047 Br
HETATM   27  C   UNL     1      -4.842  -1.157 -33.350  1.00  0.00    -0.006 A 
HETATM   28  C   UNL     1      -6.030  -0.999 -34.112  1.00  0.00    -0.024 A 
HETATM   29  C   UNL     1      -4.171  -2.401 -33.456  1.00  0.00     0.014 A 
HETATM   30  C   UNL     1      -6.757   0.194 -34.041  1.00  0.00     0.032 A 
HETATM   31  C   UNL     1      -6.495  -2.042 -34.928  1.00  0.00     0.012 A 
HETATM   32  C   UNL     1      -5.806  -3.249 -35.012  1.00  0.00     0.001 A 
HETATM   33  C   UNL     1      -4.644  -3.429 -34.275  1.00  0.00     0.001 A 
BRANCH  24  34
HETATM   34  O   UNL     1      -4.721   2.215 -31.754  1.00  0.00    -0.353 OA
HETATM   35  C   UNL     1      -3.863   3.100 -32.482  1.00  0.00     0.210 C 
ENDBRANCH  24  34
ENDBRANCH  20  23
ENDBRANCH   1  19
TORSDOF 6
ENDMDL
