MODEL 1
REMARK VINA RESULT:      -9.1      0.000      0.000
REMARK  3 active torsions:
REMARK  status: ('A' for Active; 'I' for Inactive)
REMARK    1  A    between atoms: O_2  and  C_3 
REMARK    2  A    between atoms: C_4  and  N_5 
REMARK       I    between atoms: N_5  and  C_6 
REMARK       I    between atoms: C_6  and  N_7 
REMARK    3  A    between atoms: C_10  and  C_11 
ROOT
HETATM    1  N   UNL     1      -6.328  -0.381 -33.883  1.00  0.00    -0.306 N 
HETATM    2  C   UNL     1      -6.502   0.214 -32.656  1.00  0.00     0.323 C 
HETATM    3  N   UNL     1      -6.660   1.609 -32.736  1.00  0.00    -0.334 N 
HETATM    4  C   UNL     1      -5.853   2.376 -33.690  1.00  0.00     0.128 C 
HETATM    5  C   UNL     1      -6.354   3.809 -33.859  1.00  0.00     0.029 C 
HETATM    6  C   UNL     1      -6.492   4.543 -32.521  1.00  0.00     0.024 C 
HETATM    7  C   UNL     1      -7.453   3.697 -31.658  1.00  0.00     0.029 C 
HETATM    8  C   UNL     1      -6.929   2.276 -31.464  1.00  0.00     0.128 C 
HETATM    9  O   UNL     1      -6.548  -0.393 -31.590  1.00  0.00    -0.247 OA
HETATM   10  H   UNL     1      -6.778   0.084 -34.661  1.00  0.00     0.171 HD
ENDROOT
BRANCH   1  11
HETATM   11  C   UNL     1      -5.926  -1.704 -34.150  1.00  0.00     0.072 A 
HETATM   12  C   UNL     1      -4.599  -2.050 -33.827  1.00  0.00     0.095 A 
HETATM   13  C   UNL     1      -4.126  -3.345 -34.058  1.00  0.00     0.042 A 
HETATM   14  C   UNL     1      -4.993  -4.314 -34.562  1.00  0.00     0.045 A 
HETATM   15  C   UNL     1      -6.313  -3.975 -34.845  1.00  0.00     0.118 A 
HETATM   16  C   UNL     1      -6.788  -2.682 -34.647  1.00  0.00     0.074 A 
HETATM   17  F   UNL     1      -7.142  -4.918 -35.313  1.00  0.00    -0.206 F 
BRANCH  12  18
HETATM   18  O   UNL     1      -3.790  -1.044 -33.349  1.00  0.00    -0.354 OA
HETATM   19  C   UNL     1      -3.141  -1.382 -32.126  1.00  0.00     0.210 C 
ENDBRANCH  12  18
ENDBRANCH   1  11
BRANCH   6  20
HETATM   20  C   UNL     1      -5.203   4.898 -31.790  1.00  0.00    -0.026 A 
HETATM   21  C   UNL     1      -3.834   4.995 -32.253  1.00  0.00    -0.001 A 
HETATM   22  C   UNL     1      -3.040   5.335 -31.152  1.00  0.00     0.042 A 
HETATM   23  C   UNL     1      -3.167   4.827 -33.490  1.00  0.00     0.014 A 
HETATM   24  C   UNL     1      -1.648   5.487 -31.218  1.00  0.00     0.030 A 
HETATM   25  N   UNL     1      -3.874   5.483 -30.075  1.00  0.00    -0.365 N 
HETATM   26  C   UNL     1      -1.027   5.298 -32.451  1.00  0.00     0.002 A 
HETATM   27  C   UNL     1      -1.775   4.977 -33.575  1.00  0.00     0.001 A 
HETATM   28  H   UNL     1      -3.571   5.736 -29.146  1.00  0.00     0.165 HD
HETATM   29  C   UNL     1      -5.166   5.257 -30.448  1.00  0.00     0.096 A 
ENDBRANCH   6  20
TORSDOF 3
ENDMDL
MODEL 2
REMARK VINA RESULT:      -9.0      3.687      8.391
REMARK  3 active torsions:
REMARK  status: ('A' for Active; 'I' for Inactive)
REMARK    1  A    between atoms: O_2  and  C_3 
REMARK    2  A    between atoms: C_4  and  N_5 
REMARK       I    between atoms: N_5  and  C_6 
REMARK       I    between atoms: C_6  and  N_7 
REMARK    3  A    between atoms: C_10  and  C_11 
ROOT
HETATM    1  N   UNL     1      -3.306   4.576 -30.993  1.00  0.00    -0.306 N 
HETATM    2  C   UNL     1      -3.834   4.018 -32.133  1.00  0.00     0.323 C 
HETATM    3  N   UNL     1      -4.741   2.976 -31.869  1.00  0.00    -0.334 N 
HETATM    4  C   UNL     1      -4.459   2.028 -30.786  1.00  0.00     0.128 C 
HETATM    5  C   UNL     1      -5.666   1.158 -30.442  1.00  0.00     0.029 C 
HETATM    6  C   UNL     1      -6.247   0.451 -31.671  1.00  0.00     0.024 C 
HETATM    7  C   UNL     1      -6.609   1.562 -32.682  1.00  0.00     0.029 C 
HETATM    8  C   UNL     1      -5.390   2.406 -33.047  1.00  0.00     0.128 C 
HETATM    9  O   UNL     1      -3.580   4.394 -33.274  1.00  0.00    -0.247 OA
HETATM   10  H   UNL     1      -3.905   4.552 -30.179  1.00  0.00     0.171 HD
ENDROOT
BRANCH   1  11
HETATM   11  C   UNL     1      -2.222   5.471 -30.895  1.00  0.00     0.072 A 
HETATM   12  C   UNL     1      -2.511   6.789 -30.489  1.00  0.00     0.095 A 
HETATM   13  C   UNL     1      -1.490   7.734 -30.365  1.00  0.00     0.042 A 
HETATM   14  C   UNL     1      -0.168   7.351 -30.593  1.00  0.00     0.045 A 
HETATM   15  C   UNL     1       0.115   6.039 -30.958  1.00  0.00     0.118 A 
HETATM   16  C   UNL     1      -0.896   5.096 -31.114  1.00  0.00     0.074 A 
HETATM   17  F   UNL     1       1.390   5.678 -31.158  1.00  0.00    -0.206 F 
BRANCH  12  18
HETATM   18  O   UNL     1      -3.837   7.106 -30.297  1.00  0.00    -0.354 OA
HETATM   19  C   UNL     1      -4.287   8.162 -31.142  1.00  0.00     0.210 C 
ENDBRANCH  12  18
ENDBRANCH   1  11
BRANCH   6  20
HETATM   20  C   UNL     1      -5.409  -0.660 -32.293  1.00  0.00    -0.026 A 
HETATM   21  C   UNL     1      -5.722  -1.641 -33.310  1.00  0.00    -0.001 A 
HETATM   22  C   UNL     1      -4.587  -2.441 -33.487  1.00  0.00     0.042 A 
HETATM   23  C   UNL     1      -6.849  -1.953 -34.107  1.00  0.00     0.014 A 
HETATM   24  C   UNL     1      -4.532  -3.523 -34.377  1.00  0.00     0.030 A 
HETATM   25  N   UNL     1      -3.611  -1.956 -32.657  1.00  0.00    -0.365 N 
HETATM   26  C   UNL     1      -5.668  -3.806 -35.133  1.00  0.00     0.002 A 
HETATM   27  C   UNL     1      -6.811  -3.030 -35.006  1.00  0.00     0.001 A 
HETATM   28  H   UNL     1      -2.679  -2.339 -32.584  1.00  0.00     0.165 HD
HETATM   29  C   UNL     1      -4.077  -0.878 -31.964  1.00  0.00     0.096 A 
ENDBRANCH   6  20
TORSDOF 3
ENDMDL
MODEL 3
REMARK VINA RESULT:      -8.9      3.842      8.172
REMARK  3 active torsions:
REMARK  status: ('A' for Active; 'I' for Inactive)
REMARK    1  A    between atoms: O_2  and  C_3 
REMARK    2  A    between atoms: C_4  and  N_5 
REMARK       I    between atoms: N_5  and  C_6 
REMARK       I    between atoms: C_6  and  N_7 
REMARK    3  A    between atoms: C_10  and  C_11 
ROOT
HETATM    1  N   UNL     1      -3.038   4.561 -31.029  1.00  0.00    -0.306 N 
HETATM    2  C   UNL     1      -4.336   4.146 -30.848  1.00  0.00     0.323 C 
HETATM    3  N   UNL     1      -4.447   2.764 -30.613  1.00  0.00    -0.334 N 
HETATM    4  C   UNL     1      -3.595   1.832 -31.358  1.00  0.00     0.128 C 
HETATM    5  C   UNL     1      -3.626   0.420 -30.778  1.00  0.00     0.029 C 
HETATM    6  C   UNL     1      -5.052  -0.120 -30.628  1.00  0.00     0.024 C 
HETATM    7  C   UNL     1      -5.806   0.887 -29.731  1.00  0.00     0.029 C 
HETATM    8  C   UNL     1      -5.800   2.289 -30.335  1.00  0.00     0.128 C 
HETATM    9  O   UNL     1      -5.312   4.891 -30.856  1.00  0.00    -0.247 OA
HETATM   10  H   UNL     1      -2.336   4.022 -30.540  1.00  0.00     0.171 HD
ENDROOT
BRANCH   1  11
HETATM   11  C   UNL     1      -2.591   5.812 -31.497  1.00  0.00     0.072 A 
HETATM   12  C   UNL     1      -2.358   5.936 -32.881  1.00  0.00     0.095 A 
HETATM   13  C   UNL     1      -1.917   7.146 -33.422  1.00  0.00     0.042 A 
HETATM   14  C   UNL     1      -1.759   8.254 -32.589  1.00  0.00     0.045 A 
HETATM   15  C   UNL     1      -2.025   8.135 -31.228  1.00  0.00     0.118 A 
HETATM   16  C   UNL     1      -2.436   6.928 -30.673  1.00  0.00     0.074 A 
HETATM   17  F   UNL     1      -1.886   9.210 -30.441  1.00  0.00    -0.206 F 
BRANCH  12  18
HETATM   18  O   UNL     1      -2.516   4.801 -33.644  1.00  0.00    -0.354 OA
HETATM   19  C   UNL     1      -1.926   4.910 -34.937  1.00  0.00     0.210 C 
ENDBRANCH  12  18
ENDBRANCH   1  11
BRANCH   6  20
HETATM   20  C   UNL     1      -5.808  -0.446 -31.910  1.00  0.00    -0.026 A 
HETATM   21  C   UNL     1      -5.498  -1.345 -33.003  1.00  0.00    -0.001 A 
HETATM   22  C   UNL     1      -6.530  -1.238 -33.942  1.00  0.00     0.042 A 
HETATM   23  C   UNL     1      -4.449  -2.242 -33.312  1.00  0.00     0.014 A 
HETATM   24  C   UNL     1      -6.553  -1.944 -35.152  1.00  0.00     0.030 A 
HETATM   25  N   UNL     1      -7.450  -0.355 -33.441  1.00  0.00    -0.365 N 
HETATM   26  C   UNL     1      -5.494  -2.807 -35.427  1.00  0.00     0.002 A 
HETATM   27  C   UNL     1      -4.456  -2.960 -34.518  1.00  0.00     0.001 A 
HETATM   28  H   UNL     1      -8.307  -0.093 -33.907  1.00  0.00     0.165 HD
HETATM   29  C   UNL     1      -7.048   0.099 -32.219  1.00  0.00     0.096 A 
ENDBRANCH   6  20
TORSDOF 3
ENDMDL
MODEL 4
REMARK VINA RESULT:      -8.8      3.533      7.840
REMARK  3 active torsions:
REMARK  status: ('A' for Active; 'I' for Inactive)
REMARK    1  A    between atoms: O_2  and  C_3 
REMARK    2  A    between atoms: C_4  and  N_5 
REMARK       I    between atoms: N_5  and  C_6 
REMARK       I    between atoms: C_6  and  N_7 
REMARK    3  A    between atoms: C_10  and  C_11 
ROOT
HETATM    1  N   UNL     1      -3.362   4.591 -31.271  1.00  0.00    -0.306 N 
HETATM    2  C   UNL     1      -4.723   4.521 -31.452  1.00  0.00     0.323 C 
HETATM    3  N   UNL     1      -5.297   3.370 -30.885  1.00  0.00    -0.334 N 
HETATM    4  C   UNL     1      -4.592   2.087 -30.976  1.00  0.00     0.128 C 
HETATM    5  C   UNL     1      -5.195   1.021 -30.065  1.00  0.00     0.029 C 
HETATM    6  C   UNL     1      -6.702   0.851 -30.282  1.00  0.00     0.024 C 
HETATM    7  C   UNL     1      -7.337   2.238 -30.043  1.00  0.00     0.029 C 
HETATM    8  C   UNL     1      -6.752   3.291 -30.981  1.00  0.00     0.128 C 
HETATM    9  O   UNL     1      -5.393   5.378 -32.021  1.00  0.00    -0.247 OA
HETATM   10  H   UNL     1      -3.011   4.150 -30.432  1.00  0.00     0.171 HD
ENDROOT
BRANCH   1  11
HETATM   11  C   UNL     1      -2.455   5.474 -31.889  1.00  0.00     0.072 A 
HETATM   12  C   UNL     1      -1.932   6.516 -31.098  1.00  0.00     0.095 A 
HETATM   13  C   UNL     1      -1.024   7.431 -31.637  1.00  0.00     0.042 A 
HETATM   14  C   UNL     1      -0.594   7.277 -32.955  1.00  0.00     0.045 A 
HETATM   15  C   UNL     1      -1.087   6.225 -33.721  1.00  0.00     0.118 A 
HETATM   16  C   UNL     1      -2.013   5.324 -33.204  1.00  0.00     0.074 A 
HETATM   17  F   UNL     1      -0.654   6.076 -34.980  1.00  0.00    -0.206 F 
BRANCH  12  18
HETATM   18  O   UNL     1      -2.410   6.623 -29.811  1.00  0.00    -0.354 OA
HETATM   19  C   UNL     1      -1.567   7.400 -28.964  1.00  0.00     0.210 C 
ENDBRANCH  12  18
ENDBRANCH   1  11
BRANCH   6  20
HETATM   20  C   UNL     1      -7.145   0.221 -31.598  1.00  0.00    -0.026 A 
HETATM   21  C   UNL     1      -6.443  -0.628 -32.538  1.00  0.00    -0.001 A 
HETATM   22  C   UNL     1      -7.319  -0.900 -33.595  1.00  0.00     0.042 A 
HETATM   23  C   UNL     1      -5.152  -1.200 -32.620  1.00  0.00     0.014 A 
HETATM   24  C   UNL     1      -6.970  -1.672 -34.712  1.00  0.00     0.030 A 
HETATM   25  N   UNL     1      -8.511  -0.289 -33.307  1.00  0.00    -0.365 N 
HETATM   26  C   UNL     1      -5.683  -2.205 -34.762  1.00  0.00     0.002 A 
HETATM   27  C   UNL     1      -4.785  -1.978 -33.729  1.00  0.00     0.001 A 
HETATM   28  H   UNL     1      -9.331  -0.326 -33.896  1.00  0.00     0.165 HD
HETATM   29  C   UNL     1      -8.431   0.354 -32.107  1.00  0.00     0.096 A 
ENDBRANCH   6  20
TORSDOF 3
ENDMDL
MODEL 5
REMARK VINA RESULT:      -8.6      3.706      7.038
REMARK  3 active torsions:
REMARK  status: ('A' for Active; 'I' for Inactive)
REMARK    1  A    between atoms: O_2  and  C_3 
REMARK    2  A    between atoms: C_4  and  N_5 
REMARK       I    between atoms: N_5  and  C_6 
REMARK       I    between atoms: C_6  and  N_7 
REMARK    3  A    between atoms: C_10  and  C_11 
ROOT
HETATM    1  N   UNL     1      -9.384   1.985 -33.031  1.00  0.00    -0.306 N 
HETATM    2  C   UNL     1      -8.869   1.143 -32.074  1.00  0.00     0.323 C 
HETATM    3  N   UNL     1      -7.472   1.242 -31.945  1.00  0.00    -0.334 N 
HETATM    4  C   UNL     1      -6.643   1.402 -33.144  1.00  0.00     0.128 C 
HETATM    5  C   UNL     1      -5.204   1.790 -32.813  1.00  0.00     0.029 C 
HETATM    6  C   UNL     1      -4.557   0.835 -31.805  1.00  0.00     0.024 C 
HETATM    7  C   UNL     1      -5.459   0.847 -30.552  1.00  0.00     0.029 C 
HETATM    8  C   UNL     1      -6.888   0.425 -30.885  1.00  0.00     0.128 C 
HETATM    9  O   UNL     1      -9.542   0.394 -31.372  1.00  0.00    -0.247 OA
HETATM   10  H   UNL     1      -8.872   2.845 -33.176  1.00  0.00     0.171 HD
ENDROOT
BRANCH   1  11
HETATM   11  C   UNL     1     -10.687   1.985 -33.567  1.00  0.00     0.072 A 
HETATM   12  C   UNL     1     -11.171   3.204 -34.081  1.00  0.00     0.095 A 
HETATM   13  C   UNL     1     -12.452   3.283 -34.633  1.00  0.00     0.042 A 
HETATM   14  C   UNL     1     -13.234   2.132 -34.723  1.00  0.00     0.045 A 
HETATM   15  C   UNL     1     -12.737   0.923 -34.247  1.00  0.00     0.118 A 
HETATM   16  C   UNL     1     -11.474   0.837 -33.668  1.00  0.00     0.074 A 
HETATM   17  F   UNL     1     -13.490  -0.180 -34.354  1.00  0.00    -0.206 F 
BRANCH  12  18
HETATM   18  O   UNL     1     -10.357   4.305 -33.946  1.00  0.00    -0.354 OA
HETATM   19  C   UNL     1     -10.225   5.055 -35.152  1.00  0.00     0.210 C 
ENDBRANCH  12  18
ENDBRANCH   1  11
BRANCH   6  20
HETATM   20  C   UNL     1      -4.245  -0.576 -32.291  1.00  0.00    -0.026 A 
HETATM   21  C   UNL     1      -4.881  -1.407 -33.292  1.00  0.00    -0.001 A 
HETATM   22  C   UNL     1      -4.200  -2.630 -33.319  1.00  0.00     0.042 A 
HETATM   23  C   UNL     1      -5.970  -1.268 -34.185  1.00  0.00     0.014 A 
HETATM   24  C   UNL     1      -4.558  -3.699 -34.151  1.00  0.00     0.030 A 
HETATM   25  N   UNL     1      -3.173  -2.546 -32.415  1.00  0.00    -0.365 N 
HETATM   26  C   UNL     1      -5.646  -3.527 -35.005  1.00  0.00     0.002 A 
HETATM   27  C   UNL     1      -6.341  -2.326 -35.028  1.00  0.00     0.001 A 
HETATM   28  H   UNL     1      -2.510  -3.286 -32.232  1.00  0.00     0.165 HD
HETATM   29  C   UNL     1      -3.170  -1.319 -31.820  1.00  0.00     0.096 A 
ENDBRANCH   6  20
TORSDOF 3
ENDMDL
MODEL 6
REMARK VINA RESULT:      -8.6      3.949      7.872
REMARK  3 active torsions:
REMARK  status: ('A' for Active; 'I' for Inactive)
REMARK    1  A    between atoms: O_2  and  C_3 
REMARK    2  A    between atoms: C_4  and  N_5 
REMARK       I    between atoms: N_5  and  C_6 
REMARK       I    between atoms: C_6  and  N_7 
REMARK    3  A    between atoms: C_10  and  C_11 
ROOT
HETATM    1  N   UNL     1      -3.671   5.100 -30.469  1.00  0.00    -0.306 N 
HETATM    2  C   UNL     1      -4.834   5.419 -31.130  1.00  0.00     0.323 C 
HETATM    3  N   UNL     1      -5.881   4.516 -30.871  1.00  0.00    -0.334 N 
HETATM    4  C   UNL     1      -5.594   3.081 -30.775  1.00  0.00     0.128 C 
HETATM    5  C   UNL     1      -6.765   2.287 -30.202  1.00  0.00     0.029 C 
HETATM    6  C   UNL     1      -8.074   2.550 -30.955  1.00  0.00     0.024 C 
HETATM    7  C   UNL     1      -8.321   4.073 -30.882  1.00  0.00     0.029 C 
HETATM    8  C   UNL     1      -7.160   4.858 -31.488  1.00  0.00     0.128 C 
HETATM    9  O   UNL     1      -4.976   6.401 -31.852  1.00  0.00    -0.247 OA
HETATM   10  H   UNL     1      -3.789   4.623 -29.585  1.00  0.00     0.171 HD
ENDROOT
BRANCH   1  11
HETATM   11  C   UNL     1      -2.389   5.647 -30.670  1.00  0.00     0.072 A 
HETATM   12  C   UNL     1      -1.643   5.157 -31.760  1.00  0.00     0.095 A 
HETATM   13  C   UNL     1      -0.365   5.654 -32.028  1.00  0.00     0.042 A 
HETATM   14  C   UNL     1       0.153   6.680 -31.238  1.00  0.00     0.045 A 
HETATM   15  C   UNL     1      -0.603   7.186 -30.184  1.00  0.00     0.118 A 
HETATM   16  C   UNL     1      -1.865   6.679 -29.890  1.00  0.00     0.074 A 
HETATM   17  F   UNL     1      -0.103   8.183 -29.443  1.00  0.00    -0.206 F 
BRANCH  12  18
HETATM   18  O   UNL     1      -2.204   4.133 -32.489  1.00  0.00    -0.354 OA
HETATM   19  C   UNL     1      -2.337   4.441 -33.875  1.00  0.00     0.210 C 
ENDBRANCH  12  18
ENDBRANCH   1  11
BRANCH   6  20
HETATM   20  C   UNL     1      -8.178   2.005 -32.374  1.00  0.00    -0.026 A 
HETATM   21  C   UNL     1      -7.572   0.849 -33.003  1.00  0.00    -0.001 A 
HETATM   22  C   UNL     1      -7.989   0.830 -34.339  1.00  0.00     0.042 A 
HETATM   23  C   UNL     1      -6.706  -0.192 -32.594  1.00  0.00     0.014 A 
HETATM   24  C   UNL     1      -7.575  -0.136 -35.267  1.00  0.00     0.030 A 
HETATM   25  N   UNL     1      -8.839   1.890 -34.518  1.00  0.00    -0.365 N 
HETATM   26  C   UNL     1      -6.709  -1.136 -34.828  1.00  0.00     0.002 A 
HETATM   27  C   UNL     1      -6.282  -1.169 -33.507  1.00  0.00     0.001 A 
HETATM   28  H   UNL     1      -9.299   2.115 -35.389  1.00  0.00     0.165 HD
HETATM   29  C   UNL     1      -8.984   2.577 -33.349  1.00  0.00     0.096 A 
ENDBRANCH   6  20
TORSDOF 3
ENDMDL
MODEL 7
REMARK VINA RESULT:      -8.6      4.088      8.331
REMARK  3 active torsions:
REMARK  status: ('A' for Active; 'I' for Inactive)
REMARK    1  A    between atoms: O_2  and  C_3 
REMARK    2  A    between atoms: C_4  and  N_5 
REMARK       I    between atoms: N_5  and  C_6 
REMARK       I    between atoms: C_6  and  N_7 
REMARK    3  A    between atoms: C_10  and  C_11 
ROOT
HETATM    1  N   UNL     1      -8.102   3.554 -31.355  1.00  0.00    -0.306 N 
HETATM    2  C   UNL     1      -7.238   3.355 -32.406  1.00  0.00     0.323 C 
HETATM    3  N   UNL     1      -7.516   2.186 -33.137  1.00  0.00    -0.334 N 
HETATM    4  C   UNL     1      -7.925   0.969 -32.429  1.00  0.00     0.128 C 
HETATM    5  C   UNL     1      -8.472  -0.100 -33.372  1.00  0.00     0.029 C 
HETATM    6  C   UNL     1      -7.508  -0.415 -34.521  1.00  0.00     0.024 C 
HETATM    7  C   UNL     1      -7.253   0.921 -35.253  1.00  0.00     0.029 C 
HETATM    8  C   UNL     1      -6.675   1.975 -34.311  1.00  0.00     0.128 C 
HETATM    9  O   UNL     1      -6.327   4.120 -32.712  1.00  0.00    -0.247 OA
HETATM   10  H   UNL     1      -9.036   3.188 -31.484  1.00  0.00     0.171 HD
ENDROOT
BRANCH   1  11
HETATM   11  C   UNL     1      -7.980   4.484 -30.304  1.00  0.00     0.072 A 
HETATM   12  C   UNL     1      -8.955   5.498 -30.225  1.00  0.00     0.095 A 
HETATM   13  C   UNL     1      -8.904   6.455 -29.208  1.00  0.00     0.042 A 
HETATM   14  C   UNL     1      -7.909   6.370 -28.235  1.00  0.00     0.045 A 
HETATM   15  C   UNL     1      -6.970   5.345 -28.297  1.00  0.00     0.118 A 
HETATM   16  C   UNL     1      -6.993   4.403 -29.321  1.00  0.00     0.074 A 
HETATM   17  F   UNL     1      -6.029   5.264 -27.346  1.00  0.00    -0.206 F 
BRANCH  12  18
HETATM   18  O   UNL     1      -9.898   5.535 -31.226  1.00  0.00    -0.354 OA
HETATM   19  C   UNL     1     -11.215   5.242 -30.765  1.00  0.00     0.210 C 
ENDBRANCH  12  18
ENDBRANCH   1  11
BRANCH   6  20
HETATM   20  C   UNL     1      -6.219  -1.145 -34.164  1.00  0.00    -0.026 A 
HETATM   21  C   UNL     1      -5.831  -2.533 -34.315  1.00  0.00    -0.001 A 
HETATM   22  C   UNL     1      -4.538  -2.667 -33.797  1.00  0.00     0.042 A 
HETATM   23  C   UNL     1      -6.433  -3.705 -34.832  1.00  0.00     0.014 A 
HETATM   24  C   UNL     1      -3.845  -3.884 -33.746  1.00  0.00     0.030 A 
HETATM   25  N   UNL     1      -4.130  -1.425 -33.386  1.00  0.00    -0.365 N 
HETATM   26  C   UNL     1      -4.479  -5.018 -34.251  1.00  0.00     0.002 A 
HETATM   27  C   UNL     1      -5.754  -4.932 -34.792  1.00  0.00     0.001 A 
HETATM   28  H   UNL     1      -3.229  -1.224 -32.977  1.00  0.00     0.165 HD
HETATM   29  C   UNL     1      -5.109  -0.506 -33.628  1.00  0.00     0.096 A 
ENDBRANCH   6  20
TORSDOF 3
ENDMDL
MODEL 8
REMARK VINA RESULT:      -8.5      2.941      4.806
REMARK  3 active torsions:
REMARK  status: ('A' for Active; 'I' for Inactive)
REMARK    1  A    between atoms: O_2  and  C_3 
REMARK    2  A    between atoms: C_4  and  N_5 
REMARK       I    between atoms: N_5  and  C_6 
REMARK       I    between atoms: C_6  and  N_7 
REMARK    3  A    between atoms: C_10  and  C_11 
ROOT
HETATM    1  N   UNL     1      -4.620   2.900 -32.940  1.00  0.00    -0.306 N 
HETATM    2  C   UNL     1      -4.620   3.890 -31.986  1.00  0.00     0.323 C 
HETATM    3  N   UNL     1      -3.571   4.813 -32.148  1.00  0.00    -0.334 N 
HETATM    4  C   UNL     1      -2.244   4.339 -32.553  1.00  0.00     0.128 C 
HETATM    5  C   UNL     1      -1.318   5.479 -32.969  1.00  0.00     0.029 C 
HETATM    6  C   UNL     1      -1.222   6.576 -31.903  1.00  0.00     0.024 C 
HETATM    7  C   UNL     1      -2.665   7.068 -31.654  1.00  0.00     0.029 C 
HETATM    8  C   UNL     1      -3.577   5.929 -31.205  1.00  0.00     0.128 C 
HETATM    9  O   UNL     1      -5.455   3.994 -31.092  1.00  0.00    -0.247 OA
HETATM   10  H   UNL     1      -4.246   3.165 -33.842  1.00  0.00     0.171 HD
ENDROOT
BRANCH   1  11
HETATM   11  C   UNL     1      -5.376   1.712 -32.948  1.00  0.00     0.072 A 
HETATM   12  C   UNL     1      -4.707   0.522 -32.599  1.00  0.00     0.095 A 
HETATM   13  C   UNL     1      -5.390  -0.697 -32.580  1.00  0.00     0.042 A 
HETATM   14  C   UNL     1      -6.757  -0.724 -32.857  1.00  0.00     0.045 A 
HETATM   15  C   UNL     1      -7.420   0.460 -33.165  1.00  0.00     0.118 A 
HETATM   16  C   UNL     1      -6.745   1.676 -33.216  1.00  0.00     0.074 A 
HETATM   17  F   UNL     1      -8.736   0.425 -33.412  1.00  0.00    -0.206 F 
BRANCH  12  18
HETATM   18  O   UNL     1      -3.356   0.614 -32.355  1.00  0.00    -0.354 OA
HETATM   19  C   UNL     1      -2.979   0.074 -31.091  1.00  0.00     0.210 C 
ENDBRANCH  12  18
ENDBRANCH   1  11
BRANCH   6  20
HETATM   20  C   UNL     1      -0.490   6.225 -30.613  1.00  0.00    -0.026 A 
HETATM   21  C   UNL     1      -0.240   6.996 -29.413  1.00  0.00    -0.001 A 
HETATM   22  C   UNL     1       0.505   6.192 -28.543  1.00  0.00     0.042 A 
HETATM   23  C   UNL     1      -0.557   8.299 -28.959  1.00  0.00     0.014 A 
HETATM   24  C   UNL     1       0.959   6.621 -27.288  1.00  0.00     0.030 A 
HETATM   25  N   UNL     1       0.671   4.975 -29.151  1.00  0.00    -0.365 N 
HETATM   26  C   UNL     1       0.639   7.916 -26.884  1.00  0.00     0.002 A 
HETATM   27  C   UNL     1      -0.113   8.745 -27.705  1.00  0.00     0.001 A 
HETATM   28  H   UNL     1       1.167   4.195 -28.744  1.00  0.00     0.165 HD
HETATM   29  C   UNL     1       0.057   4.971 -30.369  1.00  0.00     0.096 A 
ENDBRANCH   6  20
TORSDOF 3
ENDMDL
MODEL 9
REMARK VINA RESULT:      -8.4      3.790      6.368
REMARK  3 active torsions:
REMARK  status: ('A' for Active; 'I' for Inactive)
REMARK    1  A    between atoms: O_2  and  C_3 
REMARK    2  A    between atoms: C_4  and  N_5 
REMARK       I    between atoms: N_5  and  C_6 
REMARK       I    between atoms: C_6  and  N_7 
REMARK    3  A    between atoms: C_10  and  C_11 
ROOT
HETATM    1  N   UNL     1      -6.769  -0.498 -33.501  1.00  0.00    -0.306 N 
HETATM    2  C   UNL     1      -7.216   0.548 -34.273  1.00  0.00     0.323 C 
HETATM    3  N   UNL     1      -7.926   1.513 -33.537  1.00  0.00    -0.334 N 
HETATM    4  C   UNL     1      -8.845   1.085 -32.477  1.00  0.00     0.128 C 
HETATM    5  C   UNL     1      -9.297   2.244 -31.591  1.00  0.00     0.029 C 
HETATM    6  C   UNL     1      -9.876   3.409 -32.401  1.00  0.00     0.024 C 
HETATM    7  C   UNL     1      -8.775   3.839 -33.394  1.00  0.00     0.029 C 
HETATM    8  C   UNL     1      -8.352   2.684 -34.299  1.00  0.00     0.128 C 
HETATM    9  O   UNL     1      -7.005   0.664 -35.477  1.00  0.00    -0.247 OA
HETATM   10  H   UNL     1      -6.563  -0.272 -32.537  1.00  0.00     0.171 HD
ENDROOT
BRANCH   1  11
HETATM   11  C   UNL     1      -6.229  -1.723 -33.940  1.00  0.00     0.072 A 
HETATM   12  C   UNL     1      -4.869  -1.964 -33.661  1.00  0.00     0.095 A 
HETATM   13  C   UNL     1      -4.263  -3.157 -34.061  1.00  0.00     0.042 A 
HETATM   14  C   UNL     1      -5.026  -4.138 -34.694  1.00  0.00     0.045 A 
HETATM   15  C   UNL     1      -6.377  -3.909 -34.934  1.00  0.00     0.118 A 
HETATM   16  C   UNL     1      -6.986  -2.713 -34.568  1.00  0.00     0.074 A 
HETATM   17  F   UNL     1      -7.105  -4.865 -35.528  1.00  0.00    -0.206 F 
BRANCH  12  18
HETATM   18  O   UNL     1      -4.169  -0.949 -33.050  1.00  0.00    -0.354 OA
HETATM   19  C   UNL     1      -3.340  -1.405 -31.983  1.00  0.00     0.210 C 
ENDBRANCH  12  18
ENDBRANCH   1  11
BRANCH   6  20
HETATM   20  C   UNL     1     -11.222   3.178 -33.079  1.00  0.00    -0.026 A 
HETATM   21  C   UNL     1     -11.953   1.962 -33.368  1.00  0.00    -0.001 A 
HETATM   22  C   UNL     1     -13.131   2.326 -34.031  1.00  0.00     0.042 A 
HETATM   23  C   UNL     1     -11.751   0.579 -33.147  1.00  0.00     0.014 A 
HETATM   24  C   UNL     1     -14.077   1.402 -34.495  1.00  0.00     0.030 A 
HETATM   25  N   UNL     1     -13.149   3.694 -34.112  1.00  0.00    -0.365 N 
HETATM   26  C   UNL     1     -13.834   0.048 -34.271  1.00  0.00     0.002 A 
HETATM   27  C   UNL     1     -12.689  -0.360 -33.601  1.00  0.00     0.001 A 
HETATM   28  H   UNL     1     -13.890   4.233 -34.537  1.00  0.00     0.165 HD
HETATM   29  C   UNL     1     -12.035   4.214 -33.522  1.00  0.00     0.096 A 
ENDBRANCH   6  20
TORSDOF 3
ENDMDL
MODEL 10
REMARK VINA RESULT:      -8.3      3.892      8.230
REMARK  3 active torsions:
REMARK  status: ('A' for Active; 'I' for Inactive)
REMARK    1  A    between atoms: O_2  and  C_3 
REMARK    2  A    between atoms: C_4  and  N_5 
REMARK       I    between atoms: N_5  and  C_6 
REMARK       I    between atoms: C_6  and  N_7 
REMARK    3  A    between atoms: C_10  and  C_11 
ROOT
HETATM    1  N   UNL     1      -3.269   5.563 -30.556  1.00  0.00    -0.306 N 
HETATM    2  C   UNL     1      -3.879   5.111 -31.702  1.00  0.00     0.323 C 
HETATM    3  N   UNL     1      -5.119   4.493 -31.460  1.00  0.00    -0.334 N 
HETATM    4  C   UNL     1      -5.282   3.629 -30.287  1.00  0.00     0.128 C 
HETATM    5  C   UNL     1      -6.744   3.287 -30.011  1.00  0.00     0.029 C 
HETATM    6  C   UNL     1      -7.451   2.706 -31.240  1.00  0.00     0.024 C 
HETATM    7  C   UNL     1      -7.308   3.757 -32.363  1.00  0.00     0.029 C 
HETATM    8  C   UNL     1      -5.842   4.068 -32.656  1.00  0.00     0.128 C 
HETATM    9  O   UNL     1      -3.421   5.247 -32.833  1.00  0.00    -0.247 OA
HETATM   10  H   UNL     1      -3.893   5.841 -29.811  1.00  0.00     0.171 HD
ENDROOT
BRANCH   1  11
HETATM   11  C   UNL     1      -1.944   6.019 -30.408  1.00  0.00     0.072 A 
HETATM   12  C   UNL     1      -1.756   7.238 -29.727  1.00  0.00     0.095 A 
HETATM   13  C   UNL     1      -0.471   7.755 -29.537  1.00  0.00     0.042 A 
HETATM   14  C   UNL     1       0.634   7.029 -29.979  1.00  0.00     0.045 A 
HETATM   15  C   UNL     1       0.444   5.807 -30.619  1.00  0.00     0.118 A 
HETATM   16  C   UNL     1      -0.832   5.296 -30.841  1.00  0.00     0.074 A 
HETATM   17  F   UNL     1       1.514   5.110 -31.025  1.00  0.00    -0.206 F 
BRANCH  12  18
HETATM   18  O   UNL     1      -2.888   7.913 -29.332  1.00  0.00    -0.354 OA
HETATM   19  C   UNL     1      -2.942   8.139 -27.925  1.00  0.00     0.210 C 
ENDBRANCH  12  18
ENDBRANCH   1  11
BRANCH   6  20
HETATM   20  C   UNL     1      -7.031   1.310 -31.685  1.00  0.00    -0.026 A 
HETATM   21  C   UNL     1      -7.136   0.640 -32.965  1.00  0.00    -0.001 A 
HETATM   22  C   UNL     1      -6.613  -0.649 -32.810  1.00  0.00     0.042 A 
HETATM   23  C   UNL     1      -7.624   0.976 -34.249  1.00  0.00     0.014 A 
HETATM   24  C   UNL     1      -6.578  -1.600 -33.838  1.00  0.00     0.030 A 
HETATM   25  N   UNL     1      -6.169  -0.758 -31.518  1.00  0.00    -0.365 N 
HETATM   26  C   UNL     1      -7.082  -1.235 -35.085  1.00  0.00     0.002 A 
HETATM   27  C   UNL     1      -7.595   0.038 -35.292  1.00  0.00     0.001 A 
HETATM   28  H   UNL     1      -5.735  -1.583 -31.129  1.00  0.00     0.165 HD
HETATM   29  C   UNL     1      -6.383   0.410 -30.848  1.00  0.00     0.096 A 
ENDBRANCH   6  20
TORSDOF 3
ENDMDL
