MODEL 1
REMARK VINA RESULT:      -8.5      0.000      0.000
REMARK  5 active torsions:
REMARK  status: ('A' for Active; 'I' for Inactive)
REMARK    1  A    between atoms: C_3  and  N_4 
REMARK       I    between atoms: N_4  and  C_5 
REMARK    2  A    between atoms: C_5  and  C_6 
REMARK    3  A    between atoms: C_6  and  N_7 
REMARK    4  A    between atoms: C_6  and  C_16 
REMARK       I    between atoms: N_7  and  C_8 
REMARK    5  A    between atoms: C_8  and  C_9 
ROOT
HETATM    1  C   UNL     1      -6.119   1.132 -33.507  1.00  0.00     0.210 C 
ENDROOT
BRANCH   1   2
HETATM    2  C   UNL     1      -5.840  -0.344 -33.085  1.00  0.00     0.249 C 
HETATM    3  N   UNL     1      -5.052  -1.079 -33.955  1.00  0.00    -0.324 N 
HETATM    4  H   UNL     1      -4.510  -0.525 -34.616  1.00  0.00     0.169 HD
HETATM    5  O   UNL     1      -6.351  -0.790 -32.055  1.00  0.00    -0.270 OA
BRANCH   3   6
HETATM    6  C   UNL     1      -4.578  -2.390 -33.702  1.00  0.00     0.046 A 
HETATM    7  C   UNL     1      -3.560  -2.664 -32.765  1.00  0.00    -0.035 A 
HETATM    8  C   UNL     1      -2.945  -1.625 -31.867  1.00  0.00     0.050 C 
HETATM    9  C   UNL     1      -3.114  -3.989 -32.601  1.00  0.00     0.009 A 
HETATM   10  C   UNL     1      -3.702  -5.036 -33.303  1.00  0.00     0.001 A 
HETATM   11  C   UNL     1      -4.749  -4.776 -34.178  1.00  0.00     0.009 A 
HETATM   12  C   UNL     1      -5.198  -3.461 -34.390  1.00  0.00    -0.035 A 
HETATM   13  C   UNL     1      -6.316  -3.247 -35.376  1.00  0.00     0.050 C 
ENDBRANCH   3   6
ENDBRANCH   1   2
BRANCH   1  14
HETATM   14  N   UNL     1      -7.536   1.482 -33.605  1.00  0.00    -0.338 N 
HETATM   15  C   UNL     1      -8.462   0.877 -34.417  1.00  0.00     0.273 C 
HETATM   16  O   UNL     1      -8.161   0.148 -35.357  1.00  0.00    -0.266 OA
HETATM   17  H   UNL     1      -7.948   1.999 -32.832  1.00  0.00     0.164 HD
BRANCH  15  18
HETATM   18  C   UNL     1      -9.851   1.198 -34.061  1.00  0.00     0.145 A 
HETATM   19  N   UNL     1     -10.585   0.392 -33.267  1.00  0.00    -0.170 NA
HETATM   20  N   UNL     1     -11.775   1.014 -33.183  1.00  0.00    -0.289 N 
HETATM   21  H   UNL     1     -12.506   0.586 -32.622  1.00  0.00     0.188 HD
HETATM   22  C   UNL     1     -11.836   2.174 -33.893  1.00  0.00     0.112 A 
HETATM   23  C   UNL     1     -10.602   2.326 -34.477  1.00  0.00     0.058 A 
ENDBRANCH  15  18
ENDBRANCH   1  14
BRANCH   1  24
HETATM   24  C   UNL     1      -5.251   2.178 -32.804  1.00  0.00    -0.026 A 
HETATM   25  C   UNL     1      -5.740   3.475 -32.574  1.00  0.00     0.010 A 
HETATM   26  C   UNL     1      -4.986   4.423 -31.877  1.00  0.00     0.001 A 
HETATM   27  C   UNL     1      -3.734   4.085 -31.373  1.00  0.00     0.000 A 
HETATM   28  C   UNL     1      -3.241   2.797 -31.559  1.00  0.00     0.001 A 
HETATM   29  C   UNL     1      -3.996   1.850 -32.257  1.00  0.00     0.010 A 
ENDBRANCH   1  24
TORSDOF 5
ENDMDL
MODEL 2
REMARK VINA RESULT:      -8.4      1.768      5.840
REMARK  5 active torsions:
REMARK  status: ('A' for Active; 'I' for Inactive)
REMARK    1  A    between atoms: C_3  and  N_4 
REMARK       I    between atoms: N_4  and  C_5 
REMARK    2  A    between atoms: C_5  and  C_6 
REMARK    3  A    between atoms: C_6  and  N_7 
REMARK    4  A    between atoms: C_6  and  C_16 
REMARK       I    between atoms: N_7  and  C_8 
REMARK    5  A    between atoms: C_8  and  C_9 
ROOT
HETATM    1  C   UNL     1      -7.247  -0.257 -33.380  1.00  0.00     0.210 C 
ENDROOT
BRANCH   1   2
HETATM    2  C   UNL     1      -6.606   1.089 -33.837  1.00  0.00     0.249 C 
HETATM    3  N   UNL     1      -6.218   1.947 -32.821  1.00  0.00    -0.324 N 
HETATM    4  H   UNL     1      -6.126   1.512 -31.904  1.00  0.00     0.169 HD
HETATM    5  O   UNL     1      -6.514   1.343 -35.041  1.00  0.00    -0.270 OA
BRANCH   3   6
HETATM    6  C   UNL     1      -5.507   3.157 -33.013  1.00  0.00     0.046 A 
HETATM    7  C   UNL     1      -6.128   4.343 -33.459  1.00  0.00    -0.035 A 
HETATM    8  C   UNL     1      -7.610   4.482 -33.678  1.00  0.00     0.050 C 
HETATM    9  C   UNL     1      -5.346   5.493 -33.666  1.00  0.00     0.009 A 
HETATM   10  C   UNL     1      -3.984   5.496 -33.381  1.00  0.00     0.001 A 
HETATM   11  C   UNL     1      -3.384   4.349 -32.880  1.00  0.00     0.009 A 
HETATM   12  C   UNL     1      -4.128   3.172 -32.691  1.00  0.00    -0.035 A 
HETATM   13  C   UNL     1      -3.408   1.955 -32.173  1.00  0.00     0.050 C 
ENDBRANCH   3   6
ENDBRANCH   1   2
BRANCH   1  14
HETATM   14  N   UNL     1      -8.708  -0.291 -33.446  1.00  0.00    -0.338 N 
HETATM   15  C   UNL     1      -9.566   0.530 -32.759  1.00  0.00     0.273 C 
HETATM   16  O   UNL     1      -9.223   1.214 -31.800  1.00  0.00    -0.266 OA
HETATM   17  H   UNL     1      -9.132  -0.738 -34.255  1.00  0.00     0.164 HD
BRANCH  15  18
HETATM   18  C   UNL     1     -10.942   0.500 -33.273  1.00  0.00     0.145 A 
HETATM   19  N   UNL     1     -11.761  -0.549 -33.051  1.00  0.00    -0.170 NA
HETATM   20  N   UNL     1     -12.904  -0.206 -33.671  1.00  0.00    -0.289 N 
HETATM   21  H   UNL     1     -13.686  -0.854 -33.636  1.00  0.00     0.188 HD
HETATM   22  C   UNL     1     -12.849   1.008 -34.286  1.00  0.00     0.112 A 
HETATM   23  C   UNL     1     -11.588   1.496 -34.049  1.00  0.00     0.058 A 
ENDBRANCH  15  18
ENDBRANCH   1  14
BRANCH   1  24
HETATM   24  C   UNL     1      -6.555  -1.514 -33.911  1.00  0.00    -0.026 A 
HETATM   25  C   UNL     1      -5.160  -1.659 -33.808  1.00  0.00     0.010 A 
HETATM   26  C   UNL     1      -4.519  -2.827 -34.228  1.00  0.00     0.001 A 
HETATM   27  C   UNL     1      -5.262  -3.886 -34.739  1.00  0.00     0.000 A 
HETATM   28  C   UNL     1      -6.646  -3.780 -34.821  1.00  0.00     0.001 A 
HETATM   29  C   UNL     1      -7.287  -2.611 -34.401  1.00  0.00     0.010 A 
ENDBRANCH   1  24
TORSDOF 5
ENDMDL
MODEL 3
REMARK VINA RESULT:      -8.3      2.982      5.201
REMARK  5 active torsions:
REMARK  status: ('A' for Active; 'I' for Inactive)
REMARK    1  A    between atoms: C_3  and  N_4 
REMARK       I    between atoms: N_4  and  C_5 
REMARK    2  A    between atoms: C_5  and  C_6 
REMARK    3  A    between atoms: C_6  and  N_7 
REMARK    4  A    between atoms: C_6  and  C_16 
REMARK       I    between atoms: N_7  and  C_8 
REMARK    5  A    between atoms: C_8  and  C_9 
ROOT
HETATM    1  C   UNL     1      -6.176   2.597 -31.599  1.00  0.00     0.210 C 
ENDROOT
BRANCH   1   2
HETATM    2  C   UNL     1      -6.179   1.077 -31.950  1.00  0.00     0.249 C 
HETATM    3  N   UNL     1      -5.659   0.743 -33.190  1.00  0.00    -0.324 N 
HETATM    4  H   UNL     1      -5.081   1.463 -33.621  1.00  0.00     0.169 HD
HETATM    5  O   UNL     1      -6.666   0.269 -31.155  1.00  0.00    -0.270 OA
BRANCH   3   6
HETATM    6  C   UNL     1      -5.455  -0.580 -33.651  1.00  0.00     0.046 A 
HETATM    7  C   UNL     1      -4.371  -1.376 -33.225  1.00  0.00    -0.035 A 
HETATM    8  C   UNL     1      -3.383  -0.953 -32.171  1.00  0.00     0.050 C 
HETATM    9  C   UNL     1      -4.213  -2.667 -33.761  1.00  0.00     0.009 A 
HETATM   10  C   UNL     1      -5.140  -3.192 -34.655  1.00  0.00     0.001 A 
HETATM   11  C   UNL     1      -6.244  -2.434 -35.026  1.00  0.00     0.009 A 
HETATM   12  C   UNL     1      -6.416  -1.129 -34.535  1.00  0.00    -0.035 A 
HETATM   13  C   UNL     1      -7.618  -0.351 -35.002  1.00  0.00     0.050 C 
ENDBRANCH   3   6
ENDBRANCH   1   2
BRANCH   1  14
HETATM   14  N   UNL     1      -5.430   3.438 -32.536  1.00  0.00    -0.338 N 
HETATM   15  C   UNL     1      -4.388   4.271 -32.217  1.00  0.00     0.273 C 
HETATM   16  O   UNL     1      -4.127   4.617 -31.070  1.00  0.00    -0.266 OA
HETATM   17  H   UNL     1      -5.470   3.194 -33.522  1.00  0.00     0.164 HD
BRANCH  15  18
HETATM   18  C   UNL     1      -3.620   4.721 -33.386  1.00  0.00     0.145 A 
HETATM   19  N   UNL     1      -4.201   5.393 -34.402  1.00  0.00    -0.170 NA
HETATM   20  N   UNL     1      -3.191   5.619 -35.262  1.00  0.00    -0.289 N 
HETATM   21  H   UNL     1      -3.391   6.124 -36.120  1.00  0.00     0.188 HD
HETATM   22  C   UNL     1      -1.997   5.114 -34.846  1.00  0.00     0.112 A 
HETATM   23  C   UNL     1      -2.237   4.523 -33.630  1.00  0.00     0.058 A 
ENDBRANCH  15  18
ENDBRANCH   1  14
BRANCH   1  24
HETATM   24  C   UNL     1      -7.532   3.162 -31.174  1.00  0.00    -0.026 A 
HETATM   25  C   UNL     1      -7.609   4.197 -30.226  1.00  0.00     0.010 A 
HETATM   26  C   UNL     1      -8.834   4.770 -29.874  1.00  0.00     0.001 A 
HETATM   27  C   UNL     1     -10.007   4.336 -30.481  1.00  0.00     0.000 A 
HETATM   28  C   UNL     1      -9.955   3.336 -31.447  1.00  0.00     0.001 A 
HETATM   29  C   UNL     1      -8.728   2.763 -31.798  1.00  0.00     0.010 A 
ENDBRANCH   1  24
TORSDOF 5
ENDMDL
MODEL 4
REMARK VINA RESULT:      -8.2      3.025      5.434
REMARK  5 active torsions:
REMARK  status: ('A' for Active; 'I' for Inactive)
REMARK    1  A    between atoms: C_3  and  N_4 
REMARK       I    between atoms: N_4  and  C_5 
REMARK    2  A    between atoms: C_5  and  C_6 
REMARK    3  A    between atoms: C_6  and  N_7 
REMARK    4  A    between atoms: C_6  and  C_16 
REMARK       I    between atoms: N_7  and  C_8 
REMARK    5  A    between atoms: C_8  and  C_9 
ROOT
HETATM    1  C   UNL     1      -5.322   1.795 -30.693  1.00  0.00     0.210 C 
ENDROOT
BRANCH   1   2
HETATM    2  C   UNL     1      -5.679   0.429 -31.356  1.00  0.00     0.249 C 
HETATM    3  N   UNL     1      -5.196   0.237 -32.640  1.00  0.00    -0.324 N 
HETATM    4  H   UNL     1      -4.438   0.862 -32.911  1.00  0.00     0.169 HD
HETATM    5  O   UNL     1      -6.389  -0.377 -30.747  1.00  0.00    -0.270 OA
BRANCH   3   6
HETATM    6  C   UNL     1      -5.299  -0.973 -33.369  1.00  0.00     0.046 A 
HETATM    7  C   UNL     1      -6.334  -1.217 -34.296  1.00  0.00    -0.035 A 
HETATM    8  C   UNL     1      -7.369  -0.197 -34.685  1.00  0.00     0.050 C 
HETATM    9  C   UNL     1      -6.391  -2.461 -34.950  1.00  0.00     0.009 A 
HETATM   10  C   UNL     1      -5.412  -3.427 -34.743  1.00  0.00     0.001 A 
HETATM   11  C   UNL     1      -4.357  -3.163 -33.880  1.00  0.00     0.009 A 
HETATM   12  C   UNL     1      -4.285  -1.944 -33.186  1.00  0.00    -0.035 A 
HETATM   13  C   UNL     1      -3.130  -1.735 -32.242  1.00  0.00     0.050 C 
ENDBRANCH   3   6
ENDBRANCH   1   2
BRANCH   1  14
HETATM   14  N   UNL     1      -4.137   2.451 -31.246  1.00  0.00    -0.338 N 
HETATM   15  C   UNL     1      -4.091   3.197 -32.396  1.00  0.00     0.273 C 
HETATM   16  O   UNL     1      -4.976   3.185 -33.245  1.00  0.00    -0.266 OA
HETATM   17  H   UNL     1      -3.358   2.624 -30.616  1.00  0.00     0.164 HD
BRANCH  15  18
HETATM   18  C   UNL     1      -2.870   4.005 -32.520  1.00  0.00     0.145 A 
HETATM   19  N   UNL     1      -1.968   4.087 -31.521  1.00  0.00    -0.170 NA
HETATM   20  N   UNL     1      -1.016   4.905 -32.007  1.00  0.00    -0.289 N 
HETATM   21  H   UNL     1      -0.215   5.117 -31.421  1.00  0.00     0.188 HD
HETATM   22  C   UNL     1      -1.275   5.354 -33.267  1.00  0.00     0.112 A 
HETATM   23  C   UNL     1      -2.472   4.789 -33.633  1.00  0.00     0.058 A 
ENDBRANCH  15  18
ENDBRANCH   1  14
BRANCH   1  24
HETATM   24  C   UNL     1      -6.513   2.725 -30.454  1.00  0.00    -0.026 A 
HETATM   25  C   UNL     1      -6.385   3.850 -29.621  1.00  0.00     0.010 A 
HETATM   26  C   UNL     1      -7.442   4.746 -29.443  1.00  0.00     0.001 A 
HETATM   27  C   UNL     1      -8.644   4.549 -30.114  1.00  0.00     0.000 A 
HETATM   28  C   UNL     1      -8.786   3.462 -30.970  1.00  0.00     0.001 A 
HETATM   29  C   UNL     1      -7.727   2.565 -31.147  1.00  0.00     0.010 A 
ENDBRANCH   1  24
TORSDOF 5
ENDMDL
MODEL 5
REMARK VINA RESULT:      -8.1      1.857      5.752
REMARK  5 active torsions:
REMARK  status: ('A' for Active; 'I' for Inactive)
REMARK    1  A    between atoms: C_3  and  N_4 
REMARK       I    between atoms: N_4  and  C_5 
REMARK    2  A    between atoms: C_5  and  C_6 
REMARK    3  A    between atoms: C_6  and  N_7 
REMARK    4  A    between atoms: C_6  and  C_16 
REMARK       I    between atoms: N_7  and  C_8 
REMARK    5  A    between atoms: C_8  and  C_9 
ROOT
HETATM    1  C   UNL     1      -7.347   0.138 -33.005  1.00  0.00     0.210 C 
ENDROOT
BRANCH   1   2
HETATM    2  C   UNL     1      -6.552   1.476 -33.119  1.00  0.00     0.249 C 
HETATM    3  N   UNL     1      -6.176   2.057 -31.919  1.00  0.00    -0.324 N 
HETATM    4  H   UNL     1      -6.200   1.433 -31.114  1.00  0.00     0.169 HD
HETATM    5  O   UNL     1      -6.339   1.965 -34.231  1.00  0.00    -0.270 OA
BRANCH   3   6
HETATM    6  C   UNL     1      -5.347   3.200 -31.800  1.00  0.00     0.046 A 
HETATM    7  C   UNL     1      -5.857   4.515 -31.817  1.00  0.00    -0.035 A 
HETATM    8  C   UNL     1      -7.324   4.846 -31.857  1.00  0.00     0.050 C 
HETATM    9  C   UNL     1      -4.964   5.599 -31.736  1.00  0.00     0.009 A 
HETATM   10  C   UNL     1      -3.597   5.394 -31.580  1.00  0.00     0.001 A 
HETATM   11  C   UNL     1      -3.101   4.099 -31.498  1.00  0.00     0.009 A 
HETATM   12  C   UNL     1      -3.960   2.993 -31.607  1.00  0.00    -0.035 A 
HETATM   13  C   UNL     1      -3.351   1.617 -31.541  1.00  0.00     0.050 C 
ENDBRANCH   3   6
ENDBRANCH   1   2
BRANCH   1  14
HETATM   14  N   UNL     1      -8.753   0.227 -33.399  1.00  0.00    -0.338 N 
HETATM   15  C   UNL     1      -9.688   1.076 -32.863  1.00  0.00     0.273 C 
HETATM   16  O   UNL     1      -9.528   1.676 -31.805  1.00  0.00    -0.266 OA
HETATM   17  H   UNL     1      -9.010  -0.138 -34.312  1.00  0.00     0.164 HD
BRANCH  15  18
HETATM   18  C   UNL     1     -10.909   1.187 -33.673  1.00  0.00     0.145 A 
HETATM   19  N   UNL     1     -11.033   2.111 -34.648  1.00  0.00    -0.170 NA
HETATM   20  N   UNL     1     -12.266   1.899 -35.143  1.00  0.00    -0.289 N 
HETATM   21  H   UNL     1     -12.589   2.486 -35.906  1.00  0.00     0.188 HD
HETATM   22  C   UNL     1     -12.937   0.889 -34.522  1.00  0.00     0.112 A 
HETATM   23  C   UNL     1     -12.085   0.403 -33.561  1.00  0.00     0.058 A 
ENDBRANCH  15  18
ENDBRANCH   1  14
BRANCH   1  24
HETATM   24  C   UNL     1      -6.612  -1.094 -33.535  1.00  0.00    -0.026 A 
HETATM   25  C   UNL     1      -7.306  -2.089 -34.246  1.00  0.00     0.010 A 
HETATM   26  C   UNL     1      -6.640  -3.189 -34.793  1.00  0.00     0.001 A 
HETATM   27  C   UNL     1      -5.260  -3.305 -34.662  1.00  0.00     0.000 A 
HETATM   28  C   UNL     1      -4.546  -2.317 -33.992  1.00  0.00     0.001 A 
HETATM   29  C   UNL     1      -5.213  -1.217 -33.445  1.00  0.00     0.010 A 
ENDBRANCH   1  24
TORSDOF 5
ENDMDL
MODEL 6
REMARK VINA RESULT:      -8.0      1.022      2.111
REMARK  5 active torsions:
REMARK  status: ('A' for Active; 'I' for Inactive)
REMARK    1  A    between atoms: C_3  and  N_4 
REMARK       I    between atoms: N_4  and  C_5 
REMARK    2  A    between atoms: C_5  and  C_6 
REMARK    3  A    between atoms: C_6  and  N_7 
REMARK    4  A    between atoms: C_6  and  C_16 
REMARK       I    between atoms: N_7  and  C_8 
REMARK    5  A    between atoms: C_8  and  C_9 
ROOT
HETATM    1  C   UNL     1      -6.369   1.520 -33.503  1.00  0.00     0.210 C 
ENDROOT
BRANCH   1   2
HETATM    2  C   UNL     1      -6.027   0.059 -33.074  1.00  0.00     0.249 C 
HETATM    3  N   UNL     1      -4.908  -0.497 -33.671  1.00  0.00    -0.324 N 
HETATM    4  H   UNL     1      -4.271   0.174 -34.098  1.00  0.00     0.169 HD
HETATM    5  O   UNL     1      -6.767  -0.533 -32.283  1.00  0.00    -0.270 OA
BRANCH   3   6
HETATM    6  C   UNL     1      -4.354  -1.756 -33.332  1.00  0.00     0.046 A 
HETATM    7  C   UNL     1      -4.626  -2.930 -34.066  1.00  0.00    -0.035 A 
HETATM    8  C   UNL     1      -5.439  -2.958 -35.332  1.00  0.00     0.050 C 
HETATM    9  C   UNL     1      -4.072  -4.151 -33.642  1.00  0.00     0.009 A 
HETATM   10  C   UNL     1      -3.213  -4.208 -32.548  1.00  0.00     0.001 A 
HETATM   11  C   UNL     1      -2.892  -3.043 -31.864  1.00  0.00     0.009 A 
HETATM   12  C   UNL     1      -3.453  -1.811 -32.241  1.00  0.00    -0.035 A 
HETATM   13  C   UNL     1      -3.087  -0.592 -31.437  1.00  0.00     0.050 C 
ENDBRANCH   3   6
ENDBRANCH   1   2
BRANCH   1  14
HETATM   14  N   UNL     1      -7.796   1.786 -33.680  1.00  0.00    -0.338 N 
HETATM   15  C   UNL     1      -8.661   1.063 -34.461  1.00  0.00     0.273 C 
HETATM   16  O   UNL     1      -8.291   0.267 -35.319  1.00  0.00    -0.266 OA
HETATM   17  H   UNL     1      -8.261   2.350 -32.973  1.00  0.00     0.164 HD
BRANCH  15  18
HETATM   18  C   UNL     1     -10.076   1.344 -34.183  1.00  0.00     0.145 A 
HETATM   19  N   UNL     1     -10.668   2.484 -34.594  1.00  0.00    -0.170 NA
HETATM   20  N   UNL     1     -11.934   2.371 -34.153  1.00  0.00    -0.289 N 
HETATM   21  H   UNL     1     -12.584   3.126 -34.351  1.00  0.00     0.188 HD
HETATM   22  C   UNL     1     -12.173   1.216 -33.472  1.00  0.00     0.112 A 
HETATM   23  C   UNL     1     -10.988   0.523 -33.472  1.00  0.00     0.058 A 
ENDBRANCH  15  18
ENDBRANCH   1  14
BRANCH   1  24
HETATM   24  C   UNL     1      -5.605   2.608 -32.746  1.00  0.00    -0.026 A 
HETATM   25  C   UNL     1      -5.340   2.472 -31.372  1.00  0.00     0.010 A 
HETATM   26  C   UNL     1      -4.588   3.425 -30.680  1.00  0.00     0.001 A 
HETATM   27  C   UNL     1      -4.064   4.523 -31.353  1.00  0.00     0.000 A 
HETATM   28  C   UNL     1      -4.284   4.665 -32.719  1.00  0.00     0.001 A 
HETATM   29  C   UNL     1      -5.037   3.711 -33.411  1.00  0.00     0.010 A 
ENDBRANCH   1  24
TORSDOF 5
ENDMDL
MODEL 7
REMARK VINA RESULT:      -8.0      2.421      7.215
REMARK  5 active torsions:
REMARK  status: ('A' for Active; 'I' for Inactive)
REMARK    1  A    between atoms: C_3  and  N_4 
REMARK       I    between atoms: N_4  and  C_5 
REMARK    2  A    between atoms: C_5  and  C_6 
REMARK    3  A    between atoms: C_6  and  N_7 
REMARK    4  A    between atoms: C_6  and  C_16 
REMARK       I    between atoms: N_7  and  C_8 
REMARK    5  A    between atoms: C_8  and  C_9 
ROOT
HETATM    1  C   UNL     1      -6.729   2.002 -33.948  1.00  0.00     0.210 C 
ENDROOT
BRANCH   1   2
HETATM    2  C   UNL     1      -8.216   2.226 -33.532  1.00  0.00     0.249 C 
HETATM    3  N   UNL     1      -9.157   2.019 -34.527  1.00  0.00    -0.324 N 
HETATM    4  H   UNL     1      -8.826   1.480 -35.325  1.00  0.00     0.169 HD
HETATM    5  O   UNL     1      -8.477   2.606 -32.387  1.00  0.00    -0.270 OA
BRANCH   3   6
HETATM    6  C   UNL     1     -10.560   2.046 -34.329  1.00  0.00     0.046 A 
HETATM    7  C   UNL     1     -11.254   1.016 -33.661  1.00  0.00    -0.035 A 
HETATM    8  C   UNL     1     -10.583  -0.158 -33.002  1.00  0.00     0.050 C 
HETATM    9  C   UNL     1     -12.654   1.096 -33.541  1.00  0.00     0.009 A 
HETATM   10  C   UNL     1     -13.353   2.200 -34.017  1.00  0.00     0.001 A 
HETATM   11  C   UNL     1     -12.663   3.245 -34.617  1.00  0.00     0.009 A 
HETATM   12  C   UNL     1     -11.269   3.185 -34.782  1.00  0.00    -0.035 A 
HETATM   13  C   UNL     1     -10.588   4.339 -35.469  1.00  0.00     0.050 C 
ENDBRANCH   3   6
ENDBRANCH   1   2
BRANCH   1  14
HETATM   14  N   UNL     1      -5.764   2.846 -33.244  1.00  0.00    -0.338 N 
HETATM   15  C   UNL     1      -5.578   4.191 -33.436  1.00  0.00     0.273 C 
HETATM   16  O   UNL     1      -6.009   4.800 -34.410  1.00  0.00    -0.266 OA
HETATM   17  H   UNL     1      -5.402   2.507 -32.355  1.00  0.00     0.164 HD
BRANCH  15  18
HETATM   18  C   UNL     1      -4.798   4.832 -32.368  1.00  0.00     0.145 A 
HETATM   19  N   UNL     1      -4.684   4.280 -31.142  1.00  0.00    -0.170 NA
HETATM   20  N   UNL     1      -3.913   5.150 -30.464  1.00  0.00    -0.289 N 
HETATM   21  H   UNL     1      -3.683   4.940 -29.498  1.00  0.00     0.188 HD
HETATM   22  C   UNL     1      -3.539   6.235 -31.198  1.00  0.00     0.112 A 
HETATM   23  C   UNL     1      -4.096   6.062 -32.441  1.00  0.00     0.058 A 
ENDBRANCH  15  18
ENDBRANCH   1  14
BRANCH   1  24
HETATM   24  C   UNL     1      -6.313   0.536 -34.088  1.00  0.00    -0.026 A 
HETATM   25  C   UNL     1      -5.227   0.028 -33.353  1.00  0.00     0.010 A 
HETATM   26  C   UNL     1      -4.875  -1.322 -33.419  1.00  0.00     0.001 A 
HETATM   27  C   UNL     1      -5.616  -2.199 -34.203  1.00  0.00     0.000 A 
HETATM   28  C   UNL     1      -6.715  -1.729 -34.914  1.00  0.00     0.001 A 
HETATM   29  C   UNL     1      -7.068  -0.377 -34.847  1.00  0.00     0.010 A 
ENDBRANCH   1  24
TORSDOF 5
ENDMDL
MODEL 8
REMARK VINA RESULT:      -7.9      1.780      5.755
REMARK  5 active torsions:
REMARK  status: ('A' for Active; 'I' for Inactive)
REMARK    1  A    between atoms: C_3  and  N_4 
REMARK       I    between atoms: N_4  and  C_5 
REMARK    2  A    between atoms: C_5  and  C_6 
REMARK    3  A    between atoms: C_6  and  N_7 
REMARK    4  A    between atoms: C_6  and  C_16 
REMARK       I    between atoms: N_7  and  C_8 
REMARK    5  A    between atoms: C_8  and  C_9 
ROOT
HETATM    1  C   UNL     1      -7.312   0.179 -33.039  1.00  0.00     0.210 C 
ENDROOT
BRANCH   1   2
HETATM    2  C   UNL     1      -6.593   1.561 -33.105  1.00  0.00     0.249 C 
HETATM    3  N   UNL     1      -6.370   2.184 -31.888  1.00  0.00    -0.324 N 
HETATM    4  H   UNL     1      -6.434   1.572 -31.076  1.00  0.00     0.169 HD
HETATM    5  O   UNL     1      -6.302   2.045 -34.203  1.00  0.00    -0.270 OA
BRANCH   3   6
HETATM    6  C   UNL     1      -5.627   3.377 -31.715  1.00  0.00     0.046 A 
HETATM    7  C   UNL     1      -4.222   3.388 -31.590  1.00  0.00    -0.035 A 
HETATM    8  C   UNL     1      -3.359   2.163 -31.727  1.00  0.00     0.050 C 
HETATM    9  C   UNL     1      -3.560   4.611 -31.379  1.00  0.00     0.009 A 
HETATM   10  C   UNL     1      -4.261   5.812 -31.352  1.00  0.00     0.001 A 
HETATM   11  C   UNL     1      -5.637   5.809 -31.541  1.00  0.00     0.009 A 
HETATM   12  C   UNL     1      -6.335   4.604 -31.722  1.00  0.00    -0.035 A 
HETATM   13  C   UNL     1      -7.830   4.671 -31.890  1.00  0.00     0.050 C 
ENDBRANCH   3   6
ENDBRANCH   1   2
BRANCH   1  14
HETATM   14  N   UNL     1      -8.727   0.208 -33.407  1.00  0.00    -0.338 N 
HETATM   15  C   UNL     1      -9.699   0.975 -32.816  1.00  0.00     0.273 C 
HETATM   16  O   UNL     1      -9.554   1.530 -31.732  1.00  0.00    -0.266 OA
HETATM   17  H   UNL     1      -8.979  -0.126 -34.334  1.00  0.00     0.164 HD
BRANCH  15  18
HETATM   18  C   UNL     1     -10.938   1.058 -33.601  1.00  0.00     0.145 A 
HETATM   19  N   UNL     1     -11.968   0.213 -33.393  1.00  0.00    -0.170 NA
HETATM   20  N   UNL     1     -12.893   0.599 -34.291  1.00  0.00    -0.289 N 
HETATM   21  H   UNL     1     -13.777   0.099 -34.320  1.00  0.00     0.188 HD
HETATM   22  C   UNL     1     -12.495   1.644 -35.068  1.00  0.00     0.112 A 
HETATM   23  C   UNL     1     -11.229   1.969 -34.648  1.00  0.00     0.058 A 
ENDBRANCH  15  18
ENDBRANCH   1  14
BRANCH   1  24
HETATM   24  C   UNL     1      -6.521  -0.988 -33.634  1.00  0.00    -0.026 A 
HETATM   25  C   UNL     1      -5.136  -1.095 -33.421  1.00  0.00     0.010 A 
HETATM   26  C   UNL     1      -4.409  -2.188 -33.902  1.00  0.00     0.001 A 
HETATM   27  C   UNL     1      -5.058  -3.210 -34.587  1.00  0.00     0.000 A 
HETATM   28  C   UNL     1      -6.434  -3.144 -34.782  1.00  0.00     0.001 A 
HETATM   29  C   UNL     1      -7.160  -2.050 -34.300  1.00  0.00     0.010 A 
ENDBRANCH   1  24
TORSDOF 5
ENDMDL
MODEL 9
REMARK VINA RESULT:      -7.9      3.217      5.855
REMARK  5 active torsions:
REMARK  status: ('A' for Active; 'I' for Inactive)
REMARK    1  A    between atoms: C_3  and  N_4 
REMARK       I    between atoms: N_4  and  C_5 
REMARK    2  A    between atoms: C_5  and  C_6 
REMARK    3  A    between atoms: C_6  and  N_7 
REMARK    4  A    between atoms: C_6  and  C_16 
REMARK       I    between atoms: N_7  and  C_8 
REMARK    5  A    between atoms: C_8  and  C_9 
ROOT
HETATM    1  C   UNL     1      -5.710   3.128 -31.907  1.00  0.00     0.210 C 
ENDROOT
BRANCH   1   2
HETATM    2  C   UNL     1      -5.798   1.961 -32.939  1.00  0.00     0.249 C 
HETATM    3  N   UNL     1      -5.605   0.688 -32.427  1.00  0.00    -0.324 N 
HETATM    4  H   UNL     1      -5.707   0.613 -31.416  1.00  0.00     0.169 HD
HETATM    5  O   UNL     1      -5.986   2.216 -34.131  1.00  0.00    -0.270 OA
BRANCH   3   6
HETATM    6  C   UNL     1      -5.765  -0.511 -33.163  1.00  0.00     0.046 A 
HETATM    7  C   UNL     1      -7.029  -1.000 -33.555  1.00  0.00    -0.035 A 
HETATM    8  C   UNL     1      -8.321  -0.263 -33.328  1.00  0.00     0.050 C 
HETATM    9  C   UNL     1      -7.109  -2.222 -34.248  1.00  0.00     0.009 A 
HETATM   10  C   UNL     1      -5.961  -2.921 -34.605  1.00  0.00     0.001 A 
HETATM   11  C   UNL     1      -4.713  -2.407 -34.278  1.00  0.00     0.009 A 
HETATM   12  C   UNL     1      -4.597  -1.206 -33.557  1.00  0.00    -0.035 A 
HETATM   13  C   UNL     1      -3.214  -0.722 -33.208  1.00  0.00     0.050 C 
ENDBRANCH   3   6
ENDBRANCH   1   2
BRANCH   1  14
HETATM   14  N   UNL     1      -4.749   4.176 -32.251  1.00  0.00    -0.338 N 
HETATM   15  C   UNL     1      -3.386   4.036 -32.303  1.00  0.00     0.273 C 
HETATM   16  O   UNL     1      -2.786   3.087 -31.807  1.00  0.00    -0.266 OA
HETATM   17  H   UNL     1      -5.096   4.981 -32.767  1.00  0.00     0.164 HD
BRANCH  15  18
HETATM   18  C   UNL     1      -2.710   5.139 -32.999  1.00  0.00     0.145 A 
HETATM   19  N   UNL     1      -3.213   5.682 -34.126  1.00  0.00    -0.170 NA
HETATM   20  N   UNL     1      -2.325   6.638 -34.452  1.00  0.00    -0.289 N 
HETATM   21  H   UNL     1      -2.498   7.196 -35.283  1.00  0.00     0.188 HD
HETATM   22  C   UNL     1      -1.274   6.723 -33.590  1.00  0.00     0.112 A 
HETATM   23  C   UNL     1      -1.491   5.763 -32.632  1.00  0.00     0.058 A 
ENDBRANCH  15  18
ENDBRANCH   1  14
BRANCH   1  24
HETATM   24  C   UNL     1      -7.058   3.639 -31.396  1.00  0.00    -0.026 A 
HETATM   25  C   UNL     1      -8.071   2.737 -31.027  1.00  0.00     0.010 A 
HETATM   26  C   UNL     1      -9.284   3.186 -30.497  1.00  0.00     0.001 A 
HETATM   27  C   UNL     1      -9.501   4.546 -30.304  1.00  0.00     0.000 A 
HETATM   28  C   UNL     1      -8.502   5.457 -30.630  1.00  0.00     0.001 A 
HETATM   29  C   UNL     1      -7.288   5.008 -31.160  1.00  0.00     0.010 A 
ENDBRANCH   1  24
TORSDOF 5
ENDMDL
MODEL 10
REMARK VINA RESULT:      -7.8      2.956      5.835
REMARK  5 active torsions:
REMARK  status: ('A' for Active; 'I' for Inactive)
REMARK    1  A    between atoms: C_3  and  N_4 
REMARK       I    between atoms: N_4  and  C_5 
REMARK    2  A    between atoms: C_5  and  C_6 
REMARK    3  A    between atoms: C_6  and  N_7 
REMARK    4  A    between atoms: C_6  and  C_16 
REMARK       I    between atoms: N_7  and  C_8 
REMARK    5  A    between atoms: C_8  and  C_9 
ROOT
HETATM    1  C   UNL     1      -6.718   3.333 -32.183  1.00  0.00     0.210 C 
ENDROOT
BRANCH   1   2
HETATM    2  C   UNL     1      -6.713   1.792 -32.423  1.00  0.00     0.249 C 
HETATM    3  N   UNL     1      -5.955   1.352 -33.496  1.00  0.00    -0.324 N 
HETATM    4  H   UNL     1      -5.267   2.021 -33.838  1.00  0.00     0.169 HD
HETATM    5  O   UNL     1      -7.394   1.061 -31.700  1.00  0.00    -0.270 OA
BRANCH   3   6
HETATM    6  C   UNL     1      -5.716  -0.008 -33.812  1.00  0.00     0.046 A 
HETATM    7  C   UNL     1      -6.602  -0.774 -34.599  1.00  0.00    -0.035 A 
HETATM    8  C   UNL     1      -7.827  -0.214 -35.268  1.00  0.00     0.050 C 
HETATM    9  C   UNL     1      -6.315  -2.131 -34.834  1.00  0.00     0.009 A 
HETATM   10  C   UNL     1      -5.145  -2.711 -34.353  1.00  0.00     0.001 A 
HETATM   11  C   UNL     1      -4.241  -1.942 -33.633  1.00  0.00     0.009 A 
HETATM   12  C   UNL     1      -4.511  -0.591 -33.353  1.00  0.00    -0.035 A 
HETATM   13  C   UNL     1      -3.502   0.177 -32.540  1.00  0.00     0.050 C 
ENDBRANCH   3   6
ENDBRANCH   1   2
BRANCH   1  14
HETATM   14  N   UNL     1      -5.414   3.979 -32.334  1.00  0.00    -0.338 N 
HETATM   15  C   UNL     1      -4.296   3.725 -31.581  1.00  0.00     0.273 C 
HETATM   16  O   UNL     1      -4.323   3.119 -30.514  1.00  0.00    -0.266 OA
HETATM   17  H   UNL     1      -5.213   4.431 -33.223  1.00  0.00     0.164 HD
BRANCH  15  18
HETATM   18  C   UNL     1      -3.060   4.260 -32.169  1.00  0.00     0.145 A 
HETATM   19  N   UNL     1      -1.910   4.328 -31.467  1.00  0.00    -0.170 NA
HETATM   20  N   UNL     1      -1.032   4.866 -32.332  1.00  0.00    -0.289 N 
HETATM   21  H   UNL     1      -0.076   5.014 -32.021  1.00  0.00     0.188 HD
HETATM   22  C   UNL     1      -1.571   5.153 -33.549  1.00  0.00     0.112 A 
HETATM   23  C   UNL     1      -2.888   4.772 -33.481  1.00  0.00     0.058 A 
ENDBRANCH  15  18
ENDBRANCH   1  14
BRANCH   1  24
HETATM   24  C   UNL     1      -7.881   4.083 -32.835  1.00  0.00    -0.026 A 
HETATM   25  C   UNL     1      -8.033   5.468 -32.647  1.00  0.00     0.010 A 
HETATM   26  C   UNL     1      -9.051   6.180 -33.288  1.00  0.00     0.001 A 
HETATM   27  C   UNL     1      -9.925   5.525 -34.149  1.00  0.00     0.000 A 
HETATM   28  C   UNL     1      -9.775   4.161 -34.378  1.00  0.00     0.001 A 
HETATM   29  C   UNL     1      -8.756   3.449 -33.737  1.00  0.00     0.010 A 
ENDBRANCH   1  24
TORSDOF 5
ENDMDL
