MODEL 1
REMARK VINA RESULT:      -8.6      0.000      0.000
REMARK  7 active torsions:
REMARK  status: ('A' for Active; 'I' for Inactive)
REMARK       I    between atoms: N_2  and  C_3 
REMARK    1  A    between atoms: C_3  and  C_4 
REMARK    2  A    between atoms: C_4  and  C_5 
REMARK    3  A    between atoms: C_5  and  O_6 
REMARK    4  A    between atoms: O_6  and  C_7 
REMARK    5  A    between atoms: C_10  and  N_11 
REMARK       I    between atoms: N_11  and  C_12 
REMARK    6  A    between atoms: C_12  and  C_13 
REMARK    7  A    between atoms: C_15  and  C_16 
ROOT
HETATM    1  N   UNL     1      -4.718   2.752 -33.031  1.00  0.00    -0.323 N 
HETATM    2  C   UNL     1      -4.864   1.440 -32.613  1.00  0.00     0.256 C 
HETATM    3  O   UNL     1      -4.344   0.923 -31.631  1.00  0.00    -0.267 OA
HETATM    4  H   UNL     1      -5.127   3.001 -33.921  1.00  0.00     0.169 HD
ENDROOT
BRANCH   1   5
HETATM    5  C   UNL     1      -3.991   3.777 -32.388  1.00  0.00     0.035 A 
HETATM    6  C   UNL     1      -4.491   4.552 -31.341  1.00  0.00     0.032 A 
HETATM    7  C   UNL     1      -3.704   5.552 -30.750  1.00  0.00     0.039 A 
HETATM    8  C   UNL     1      -2.411   5.791 -31.204  1.00  0.00     0.068 A 
HETATM    9  C   UNL     1      -1.910   5.024 -32.257  1.00  0.00     0.039 A 
HETATM   10  C   UNL     1      -2.691   4.023 -32.842  1.00  0.00     0.032 A 
BRANCH   8  11
HETATM   11  O   UNL     1      -1.549   6.736 -30.722  1.00  0.00    -0.351 OA
BRANCH  11  12
HETATM   12  C   UNL     1      -0.221   6.740 -31.262  1.00  0.00     0.185 C 
BRANCH  12  13
HETATM   13  C   UNL     1       0.713   6.115 -30.237  1.00  0.00     0.129 C 
BRANCH  13  14
HETATM   14  C   UNL     1       0.483   6.691 -28.856  1.00  0.00     0.219 C 
HETATM   15  N   UNL     1      -0.241   5.881 -28.013  1.00  0.00    -0.365 N 
HETATM   16  C   UNL     1      -0.474   6.252 -26.642  1.00  0.00     0.149 C 
HETATM   17  H   UNL     1      -0.370   4.910 -28.284  1.00  0.00     0.161 HD
HETATM   18  O   UNL     1       0.886   7.807 -28.542  1.00  0.00    -0.274 OA
ENDBRANCH  13  14
ENDBRANCH  12  13
ENDBRANCH  11  12
ENDBRANCH   8  11
ENDBRANCH   1   5
BRANCH   2  19
HETATM   19  C   UNL     1      -5.719   0.583 -33.485  1.00  0.00     0.033 A 
HETATM   20  C   UNL     1      -5.381  -0.773 -33.609  1.00  0.00     0.029 A 
HETATM   21  C   UNL     1      -6.150  -1.633 -34.405  1.00  0.00    -0.023 A 
HETATM   22  C   UNL     1      -7.263  -1.113 -35.078  1.00  0.00     0.012 A 
HETATM   23  C   UNL     1      -7.614   0.233 -34.944  1.00  0.00     0.002 A 
HETATM   24  C   UNL     1      -6.849   1.081 -34.143  1.00  0.00     0.017 A 
BRANCH  21  25
HETATM   25  C   UNL     1      -5.809  -3.041 -34.538  1.00  0.00    -0.002 A 
HETATM   26  C   UNL     1      -6.658  -4.008 -35.043  1.00  0.00     0.153 A 
HETATM   27  O   UNL     1      -6.054  -5.225 -35.054  1.00  0.00    -0.334 OA
HETATM   28  C   UNL     1      -4.804  -5.048 -34.560  1.00  0.00     0.142 A 
HETATM   29  C   UNL     1      -4.599  -3.728 -34.233  1.00  0.00     0.038 A 
ENDBRANCH  21  25
ENDBRANCH   2  19
TORSDOF 7
ENDMDL
MODEL 2
REMARK VINA RESULT:      -7.9      2.070     10.265
REMARK  7 active torsions:
REMARK  status: ('A' for Active; 'I' for Inactive)
REMARK       I    between atoms: N_2  and  C_3 
REMARK    1  A    between atoms: C_3  and  C_4 
REMARK    2  A    between atoms: C_4  and  C_5 
REMARK    3  A    between atoms: C_5  and  O_6 
REMARK    4  A    between atoms: O_6  and  C_7 
REMARK    5  A    between atoms: C_10  and  N_11 
REMARK       I    between atoms: N_11  and  C_12 
REMARK    6  A    between atoms: C_12  and  C_13 
REMARK    7  A    between atoms: C_15  and  C_16 
ROOT
HETATM    1  N   UNL     1      -3.385   3.590 -31.784  1.00  0.00    -0.323 N 
HETATM    2  C   UNL     1      -2.607   4.363 -32.628  1.00  0.00     0.256 C 
HETATM    3  O   UNL     1      -2.194   4.045 -33.738  1.00  0.00    -0.267 OA
HETATM    4  H   UNL     1      -3.556   3.950 -30.856  1.00  0.00     0.169 HD
ENDROOT
BRANCH   1   5
HETATM    5  C   UNL     1      -3.910   2.306 -32.044  1.00  0.00     0.035 A 
HETATM    6  C   UNL     1      -3.363   1.122 -31.549  1.00  0.00     0.032 A 
HETATM    7  C   UNL     1      -3.946  -0.118 -31.848  1.00  0.00     0.039 A 
HETATM    8  C   UNL     1      -5.081  -0.187 -32.652  1.00  0.00     0.068 A 
HETATM    9  C   UNL     1      -5.626   0.993 -33.156  1.00  0.00     0.039 A 
HETATM   10  C   UNL     1      -5.049   2.231 -32.852  1.00  0.00     0.032 A 
BRANCH   8  11
HETATM   11  O   UNL     1      -5.737  -1.327 -33.023  1.00  0.00    -0.351 OA
BRANCH  11  12
HETATM   12  C   UNL     1      -5.945  -1.529 -34.427  1.00  0.00     0.185 C 
BRANCH  12  13
HETATM   13  C   UNL     1      -6.666  -2.856 -34.615  1.00  0.00     0.129 C 
BRANCH  13  14
HETATM   14  C   UNL     1      -5.691  -4.015 -34.648  1.00  0.00     0.219 C 
HETATM   15  N   UNL     1      -4.459  -3.739 -34.104  1.00  0.00    -0.365 N 
HETATM   16  C   UNL     1      -3.452  -4.760 -33.986  1.00  0.00     0.149 C 
HETATM   17  H   UNL     1      -4.367  -2.896 -33.543  1.00  0.00     0.161 HD
HETATM   18  O   UNL     1      -5.982  -5.094 -35.155  1.00  0.00    -0.274 OA
ENDBRANCH  13  14
ENDBRANCH  12  13
ENDBRANCH  11  12
ENDBRANCH   8  11
ENDBRANCH   1   5
BRANCH   2  19
HETATM   19  C   UNL     1      -2.216   5.699 -32.092  1.00  0.00     0.033 A 
HETATM   20  C   UNL     1      -1.406   5.739 -30.947  1.00  0.00     0.029 A 
HETATM   21  C   UNL     1      -0.996   6.963 -30.401  1.00  0.00    -0.023 A 
HETATM   22  C   UNL     1      -1.413   8.149 -31.018  1.00  0.00     0.012 A 
HETATM   23  C   UNL     1      -2.206   8.116 -32.169  1.00  0.00     0.002 A 
HETATM   24  C   UNL     1      -2.601   6.893 -32.712  1.00  0.00     0.017 A 
BRANCH  21  25
HETATM   25  C   UNL     1      -0.154   7.013 -29.216  1.00  0.00    -0.002 A 
HETATM   26  C   UNL     1       0.331   5.903 -28.552  1.00  0.00     0.153 A 
HETATM   27  O   UNL     1       1.098   6.268 -27.491  1.00  0.00    -0.334 OA
HETATM   28  C   UNL     1       1.117   7.624 -27.470  1.00  0.00     0.142 A 
HETATM   29  C   UNL     1       0.371   8.132 -28.508  1.00  0.00     0.038 A 
ENDBRANCH  21  25
ENDBRANCH   2  19
TORSDOF 7
ENDMDL
MODEL 3
REMARK VINA RESULT:      -7.8      6.363     10.082
REMARK  7 active torsions:
REMARK  status: ('A' for Active; 'I' for Inactive)
REMARK       I    between atoms: N_2  and  C_3 
REMARK    1  A    between atoms: C_3  and  C_4 
REMARK    2  A    between atoms: C_4  and  C_5 
REMARK    3  A    between atoms: C_5  and  O_6 
REMARK    4  A    between atoms: O_6  and  C_7 
REMARK    5  A    between atoms: C_10  and  N_11 
REMARK       I    between atoms: N_11  and  C_12 
REMARK    6  A    between atoms: C_12  and  C_13 
REMARK    7  A    between atoms: C_15  and  C_16 
ROOT
HETATM    1  N   UNL     1      -9.902   0.772 -33.705  1.00  0.00    -0.323 N 
HETATM    2  C   UNL     1      -9.059   0.366 -32.685  1.00  0.00     0.256 C 
HETATM    3  O   UNL     1      -9.334   0.303 -31.492  1.00  0.00    -0.267 OA
HETATM    4  H   UNL     1      -9.497   0.872 -34.625  1.00  0.00     0.169 HD
ENDROOT
BRANCH   1   5
HETATM    5  C   UNL     1     -11.260   1.140 -33.596  1.00  0.00     0.035 A 
HETATM    6  C   UNL     1     -11.704   2.452 -33.433  1.00  0.00     0.032 A 
HETATM    7  C   UNL     1     -13.074   2.740 -33.337  1.00  0.00     0.039 A 
HETATM    8  C   UNL     1     -14.014   1.715 -33.396  1.00  0.00     0.068 A 
HETATM    9  C   UNL     1     -13.574   0.400 -33.549  1.00  0.00     0.039 A 
HETATM   10  C   UNL     1     -12.209   0.114 -33.653  1.00  0.00     0.032 A 
BRANCH   8  11
HETATM   11  O   UNL     1     -15.370   1.860 -33.306  1.00  0.00    -0.351 OA
BRANCH  11  12
HETATM   12  C   UNL     1     -15.911   2.125 -32.005  1.00  0.00     0.185 C 
BRANCH  12  13
HETATM   13  C   UNL     1     -17.110   3.048 -32.167  1.00  0.00     0.129 C 
BRANCH  13  14
HETATM   14  C   UNL     1     -16.730   4.495 -31.933  1.00  0.00     0.219 C 
HETATM   15  N   UNL     1     -15.841   5.006 -32.850  1.00  0.00    -0.365 N 
HETATM   16  C   UNL     1     -15.446   6.389 -32.811  1.00  0.00     0.149 C 
HETATM   17  H   UNL     1     -15.686   4.478 -33.704  1.00  0.00     0.161 HD
HETATM   18  O   UNL     1     -17.161   5.133 -30.978  1.00  0.00    -0.274 OA
ENDBRANCH  13  14
ENDBRANCH  12  13
ENDBRANCH  11  12
ENDBRANCH   8  11
ENDBRANCH   1   5
BRANCH   2  19
HETATM   19  C   UNL     1      -7.672   0.011 -33.104  1.00  0.00     0.033 A 
HETATM   20  C   UNL     1      -7.426  -1.309 -33.510  1.00  0.00     0.029 A 
HETATM   21  C   UNL     1      -6.147  -1.704 -33.926  1.00  0.00    -0.023 A 
HETATM   22  C   UNL     1      -5.116  -0.756 -33.926  1.00  0.00     0.012 A 
HETATM   23  C   UNL     1      -5.360   0.565 -33.539  1.00  0.00     0.002 A 
HETATM   24  C   UNL     1      -6.638   0.952 -33.135  1.00  0.00     0.017 A 
BRANCH  21  25
HETATM   25  C   UNL     1      -5.882  -3.070 -34.352  1.00  0.00    -0.002 A 
HETATM   26  C   UNL     1      -6.817  -3.903 -34.936  1.00  0.00     0.153 A 
HETATM   27  O   UNL     1      -6.271  -5.111 -35.235  1.00  0.00    -0.334 OA
HETATM   28  C   UNL     1      -4.971  -5.060 -34.849  1.00  0.00     0.142 A 
HETATM   29  C   UNL     1      -4.679  -3.830 -34.307  1.00  0.00     0.038 A 
ENDBRANCH  21  25
ENDBRANCH   2  19
TORSDOF 7
ENDMDL
MODEL 4
REMARK VINA RESULT:      -7.7     16.602     18.131
REMARK  7 active torsions:
REMARK  status: ('A' for Active; 'I' for Inactive)
REMARK       I    between atoms: N_2  and  C_3 
REMARK    1  A    between atoms: C_3  and  C_4 
REMARK    2  A    between atoms: C_4  and  C_5 
REMARK    3  A    between atoms: C_5  and  O_6 
REMARK    4  A    between atoms: O_6  and  C_7 
REMARK    5  A    between atoms: C_10  and  N_11 
REMARK       I    between atoms: N_11  and  C_12 
REMARK    6  A    between atoms: C_12  and  C_13 
REMARK    7  A    between atoms: C_15  and  C_16 
ROOT
HETATM    1  N   UNL     1      -5.864 -13.789 -36.116  1.00  0.00    -0.323 N 
HETATM    2  C   UNL     1      -5.050 -13.005 -36.914  1.00  0.00     0.256 C 
HETATM    3  O   UNL     1      -3.974 -12.510 -36.599  1.00  0.00    -0.267 OA
HETATM    4  H   UNL     1      -6.773 -14.035 -36.483  1.00  0.00     0.169 HD
ENDROOT
BRANCH   1   5
HETATM    5  C   UNL     1      -5.602 -14.229 -34.800  1.00  0.00     0.035 A 
HETATM    6  C   UNL     1      -4.900 -15.393 -34.490  1.00  0.00     0.032 A 
HETATM    7  C   UNL     1      -4.675 -15.762 -33.155  1.00  0.00     0.039 A 
HETATM    8  C   UNL     1      -5.158 -14.972 -32.116  1.00  0.00     0.068 A 
HETATM    9  C   UNL     1      -5.869 -13.811 -32.421  1.00  0.00     0.039 A 
HETATM   10  C   UNL     1      -6.087 -13.440 -33.752  1.00  0.00     0.032 A 
BRANCH   8  11
HETATM   11  O   UNL     1      -5.016 -15.223 -30.780  1.00  0.00    -0.351 OA
BRANCH  11  12
HETATM   12  C   UNL     1      -4.269 -16.390 -30.413  1.00  0.00     0.185 C 
BRANCH  12  13
HETATM   13  C   UNL     1      -5.254 -17.511 -30.111  1.00  0.00     0.129 C 
BRANCH  13  14
HETATM   14  C   UNL     1      -6.124 -17.175 -28.919  1.00  0.00     0.219 C 
HETATM   15  N   UNL     1      -7.476 -17.267 -29.155  1.00  0.00    -0.365 N 
HETATM   16  C   UNL     1      -8.431 -17.059 -28.100  1.00  0.00     0.149 C 
HETATM   17  H   UNL     1      -7.777 -17.747 -29.999  1.00  0.00     0.161 HD
HETATM   18  O   UNL     1      -5.646 -16.818 -27.846  1.00  0.00    -0.274 OA
ENDBRANCH  13  14
ENDBRANCH  12  13
ENDBRANCH  11  12
ENDBRANCH   8  11
ENDBRANCH   1   5
BRANCH   2  19
HETATM   19  C   UNL     1      -5.579 -12.720 -38.280  1.00  0.00     0.033 A 
HETATM   20  C   UNL     1      -6.949 -12.916 -38.510  1.00  0.00     0.029 A 
HETATM   21  C   UNL     1      -7.509 -12.656 -39.768  1.00  0.00    -0.023 A 
HETATM   22  C   UNL     1      -6.674 -12.199 -40.796  1.00  0.00     0.012 A 
HETATM   23  C   UNL     1      -5.311 -11.985 -40.567  1.00  0.00     0.002 A 
HETATM   24  C   UNL     1      -4.764 -12.237 -39.310  1.00  0.00     0.017 A 
BRANCH  21  25
HETATM   25  C   UNL     1      -8.929 -12.854 -40.016  1.00  0.00    -0.002 A 
HETATM   26  C   UNL     1      -9.856 -11.835 -40.112  1.00  0.00     0.153 A 
HETATM   27  O   UNL     1     -11.097 -12.330 -40.360  1.00  0.00    -0.334 OA
HETATM   28  C   UNL     1     -10.974 -13.679 -40.433  1.00  0.00     0.142 A 
HETATM   29  C   UNL     1      -9.666 -14.053 -40.235  1.00  0.00     0.038 A 
ENDBRANCH  21  25
ENDBRANCH   2  19
TORSDOF 7
ENDMDL
MODEL 5
REMARK VINA RESULT:      -7.7      5.150      9.014
REMARK  7 active torsions:
REMARK  status: ('A' for Active; 'I' for Inactive)
REMARK       I    between atoms: N_2  and  C_3 
REMARK    1  A    between atoms: C_3  and  C_4 
REMARK    2  A    between atoms: C_4  and  C_5 
REMARK    3  A    between atoms: C_5  and  O_6 
REMARK    4  A    between atoms: O_6  and  C_7 
REMARK    5  A    between atoms: C_10  and  N_11 
REMARK       I    between atoms: N_11  and  C_12 
REMARK    6  A    between atoms: C_12  and  C_13 
REMARK    7  A    between atoms: C_15  and  C_16 
ROOT
HETATM    1  N   UNL     1      -8.161   0.852 -33.403  1.00  0.00    -0.323 N 
HETATM    2  C   UNL     1      -7.369   0.950 -32.273  1.00  0.00     0.256 C 
HETATM    3  O   UNL     1      -7.710   1.372 -31.175  1.00  0.00    -0.267 OA
HETATM    4  H   UNL     1      -7.707   0.583 -34.265  1.00  0.00     0.169 HD
ENDROOT
BRANCH   1   5
HETATM    5  C   UNL     1      -9.534   1.163 -33.513  1.00  0.00     0.035 A 
HETATM    6  C   UNL     1     -10.564   0.247 -33.296  1.00  0.00     0.032 A 
HETATM    7  C   UNL     1     -11.906   0.633 -33.420  1.00  0.00     0.039 A 
HETATM    8  C   UNL     1     -12.234   1.940 -33.770  1.00  0.00     0.068 A 
HETATM    9  C   UNL     1     -11.207   2.858 -33.997  1.00  0.00     0.039 A 
HETATM   10  C   UNL     1      -9.868   2.475 -33.867  1.00  0.00     0.032 A 
BRANCH   8  11
HETATM   11  O   UNL     1     -13.495   2.440 -33.932  1.00  0.00    -0.351 OA
BRANCH  11  12
HETATM   12  C   UNL     1     -14.584   1.527 -33.748  1.00  0.00     0.185 C 
BRANCH  12  13
HETATM   13  C   UNL     1     -15.352   1.945 -32.502  1.00  0.00     0.129 C 
BRANCH  13  14
HETATM   14  C   UNL     1     -14.834   3.254 -31.947  1.00  0.00     0.219 C 
HETATM   15  N   UNL     1     -13.784   3.125 -31.068  1.00  0.00    -0.365 N 
HETATM   16  C   UNL     1     -13.128   4.281 -30.517  1.00  0.00     0.149 C 
HETATM   17  H   UNL     1     -13.307   2.228 -31.029  1.00  0.00     0.161 HD
HETATM   18  O   UNL     1     -15.343   4.331 -32.240  1.00  0.00    -0.274 OA
ENDBRANCH  13  14
ENDBRANCH  12  13
ENDBRANCH  11  12
ENDBRANCH   8  11
ENDBRANCH   1   5
BRANCH   2  19
HETATM   19  C   UNL     1      -5.950   0.523 -32.449  1.00  0.00     0.033 A 
HETATM   20  C   UNL     1      -5.702  -0.819 -32.776  1.00  0.00     0.029 A 
HETATM   21  C   UNL     1      -4.393  -1.281 -32.966  1.00  0.00    -0.023 A 
HETATM   22  C   UNL     1      -3.332  -0.377 -32.819  1.00  0.00     0.012 A 
HETATM   23  C   UNL     1      -3.574   0.964 -32.511  1.00  0.00     0.002 A 
HETATM   24  C   UNL     1      -4.881   1.418 -32.333  1.00  0.00     0.017 A 
BRANCH  21  25
HETATM   25  C   UNL     1      -4.126  -2.670 -33.308  1.00  0.00    -0.002 A 
HETATM   26  C   UNL     1      -4.599  -3.302 -34.442  1.00  0.00     0.153 A 
HETATM   27  O   UNL     1      -4.173  -4.591 -34.492  1.00  0.00    -0.334 OA
HETATM   28  C   UNL     1      -3.413  -4.796 -33.388  1.00  0.00     0.142 A 
HETATM   29  C   UNL     1      -3.346  -3.650 -32.631  1.00  0.00     0.038 A 
ENDBRANCH  21  25
ENDBRANCH   2  19
TORSDOF 7
ENDMDL
MODEL 6
REMARK VINA RESULT:      -7.6      2.501     10.447
REMARK  7 active torsions:
REMARK  status: ('A' for Active; 'I' for Inactive)
REMARK       I    between atoms: N_2  and  C_3 
REMARK    1  A    between atoms: C_3  and  C_4 
REMARK    2  A    between atoms: C_4  and  C_5 
REMARK    3  A    between atoms: C_5  and  O_6 
REMARK    4  A    between atoms: O_6  and  C_7 
REMARK    5  A    between atoms: C_10  and  N_11 
REMARK       I    between atoms: N_11  and  C_12 
REMARK    6  A    between atoms: C_12  and  C_13 
REMARK    7  A    between atoms: C_15  and  C_16 
ROOT
HETATM    1  N   UNL     1      -2.907   3.019 -31.621  1.00  0.00    -0.323 N 
HETATM    2  C   UNL     1      -2.423   4.050 -32.407  1.00  0.00     0.256 C 
HETATM    3  O   UNL     1      -2.545   4.164 -33.621  1.00  0.00    -0.267 OA
HETATM    4  H   UNL     1      -2.634   3.012 -30.648  1.00  0.00     0.169 HD
ENDROOT
BRANCH   1   5
HETATM    5  C   UNL     1      -3.685   1.918 -32.041  1.00  0.00     0.035 A 
HETATM    6  C   UNL     1      -3.230   0.600 -32.059  1.00  0.00     0.032 A 
HETATM    7  C   UNL     1      -4.066  -0.443 -32.486  1.00  0.00     0.039 A 
HETATM    8  C   UNL     1      -5.366  -0.176 -32.906  1.00  0.00     0.068 A 
HETATM    9  C   UNL     1      -5.823   1.142 -32.898  1.00  0.00     0.039 A 
HETATM   10  C   UNL     1      -4.992   2.181 -32.465  1.00  0.00     0.032 A 
BRANCH   8  11
HETATM   11  O   UNL     1      -6.274  -1.095 -33.351  1.00  0.00    -0.351 OA
BRANCH  11  12
HETATM   12  C   UNL     1      -6.092  -1.597 -34.681  1.00  0.00     0.185 C 
BRANCH  12  13
HETATM   13  C   UNL     1      -6.734  -2.974 -34.763  1.00  0.00     0.129 C 
BRANCH  13  14
HETATM   14  C   UNL     1      -5.695  -4.073 -34.680  1.00  0.00     0.219 C 
HETATM   15  N   UNL     1      -4.514  -3.697 -34.085  1.00  0.00    -0.365 N 
HETATM   16  C   UNL     1      -3.459  -4.650 -33.858  1.00  0.00     0.149 C 
HETATM   17  H   UNL     1      -4.502  -2.823 -33.566  1.00  0.00     0.161 HD
HETATM   18  O   UNL     1      -5.895  -5.192 -35.143  1.00  0.00    -0.274 OA
ENDBRANCH  13  14
ENDBRANCH  12  13
ENDBRANCH  11  12
ENDBRANCH   8  11
ENDBRANCH   1   5
BRANCH   2  19
HETATM   19  C   UNL     1      -1.649   5.098 -31.680  1.00  0.00     0.033 A 
HETATM   20  C   UNL     1      -2.366   6.073 -30.971  1.00  0.00     0.029 A 
HETATM   21  C   UNL     1      -1.696   7.078 -30.258  1.00  0.00    -0.023 A 
HETATM   22  C   UNL     1      -0.296   7.093 -30.271  1.00  0.00     0.012 A 
HETATM   23  C   UNL     1       0.424   6.114 -30.962  1.00  0.00     0.002 A 
HETATM   24  C   UNL     1      -0.250   5.112 -31.660  1.00  0.00     0.017 A 
BRANCH  21  25
HETATM   25  C   UNL     1      -2.431   8.092 -29.518  1.00  0.00    -0.002 A 
HETATM   26  C   UNL     1      -2.291   8.327 -28.164  1.00  0.00     0.153 A 
HETATM   27  O   UNL     1      -3.098   9.344 -27.762  1.00  0.00    -0.334 OA
HETATM   28  C   UNL     1      -3.762   9.777 -28.863  1.00  0.00     0.142 A 
HETATM   29  C   UNL     1      -3.386   9.048 -29.967  1.00  0.00     0.038 A 
ENDBRANCH  21  25
ENDBRANCH   2  19
TORSDOF 7
ENDMDL
MODEL 7
REMARK VINA RESULT:      -7.6     16.446     17.642
REMARK  7 active torsions:
REMARK  status: ('A' for Active; 'I' for Inactive)
REMARK       I    between atoms: N_2  and  C_3 
REMARK    1  A    between atoms: C_3  and  C_4 
REMARK    2  A    between atoms: C_4  and  C_5 
REMARK    3  A    between atoms: C_5  and  O_6 
REMARK    4  A    between atoms: O_6  and  C_7 
REMARK    5  A    between atoms: C_10  and  N_11 
REMARK       I    between atoms: N_11  and  C_12 
REMARK    6  A    between atoms: C_12  and  C_13 
REMARK    7  A    between atoms: C_15  and  C_16 
ROOT
HETATM    1  N   UNL     1      -5.906 -13.647 -36.179  1.00  0.00    -0.323 N 
HETATM    2  C   UNL     1      -5.075 -12.930 -37.022  1.00  0.00     0.256 C 
HETATM    3  O   UNL     1      -3.960 -12.497 -36.755  1.00  0.00    -0.267 OA
HETATM    4  H   UNL     1      -6.841 -13.843 -36.509  1.00  0.00     0.169 HD
ENDROOT
BRANCH   1   5
HETATM    5  C   UNL     1      -5.625 -14.075 -34.864  1.00  0.00     0.035 A 
HETATM    6  C   UNL     1      -5.108 -15.331 -34.544  1.00  0.00     0.032 A 
HETATM    7  C   UNL     1      -4.850 -15.683 -33.211  1.00  0.00     0.039 A 
HETATM    8  C   UNL     1      -5.113 -14.784 -32.182  1.00  0.00     0.068 A 
HETATM    9  C   UNL     1      -5.638 -13.530 -32.496  1.00  0.00     0.039 A 
HETATM   10  C   UNL     1      -5.889 -13.176 -33.826  1.00  0.00     0.032 A 
BRANCH   8  11
HETATM   11  O   UNL     1      -4.915 -15.005 -30.848  1.00  0.00    -0.351 OA
BRANCH  11  12
HETATM   12  C   UNL     1      -5.399 -16.245 -30.316  1.00  0.00     0.185 C 
BRANCH  12  13
HETATM   13  C   UNL     1      -4.202 -17.136 -30.019  1.00  0.00     0.129 C 
BRANCH  13  14
HETATM   14  C   UNL     1      -3.029 -16.331 -29.503  1.00  0.00     0.219 C 
HETATM   15  N   UNL     1      -2.134 -15.940 -30.472  1.00  0.00    -0.365 N 
HETATM   16  C   UNL     1      -1.010 -15.100 -30.153  1.00  0.00     0.149 C 
HETATM   17  H   UNL     1      -2.425 -16.019 -31.443  1.00  0.00     0.161 HD
HETATM   18  O   UNL     1      -2.884 -16.086 -28.309  1.00  0.00    -0.274 OA
ENDBRANCH  13  14
ENDBRANCH  12  13
ENDBRANCH  11  12
ENDBRANCH   8  11
ENDBRANCH   1   5
BRANCH   2  19
HETATM   19  C   UNL     1      -5.634 -12.640 -38.375  1.00  0.00     0.033 A 
HETATM   20  C   UNL     1      -7.011 -12.821 -38.571  1.00  0.00     0.029 A 
HETATM   21  C   UNL     1      -7.599 -12.556 -39.816  1.00  0.00    -0.023 A 
HETATM   22  C   UNL     1      -6.784 -12.108 -40.863  1.00  0.00     0.012 A 
HETATM   23  C   UNL     1      -5.415 -11.909 -40.669  1.00  0.00     0.002 A 
HETATM   24  C   UNL     1      -4.839 -12.166 -39.424  1.00  0.00     0.017 A 
BRANCH  21  25
HETATM   25  C   UNL     1      -9.026 -12.739 -40.028  1.00  0.00    -0.002 A 
HETATM   26  C   UNL     1      -9.917 -11.715 -40.286  1.00  0.00     0.153 A 
HETATM   27  O   UNL     1     -11.177 -12.197 -40.452  1.00  0.00    -0.334 OA
HETATM   28  C   UNL     1     -11.103 -13.544 -40.307  1.00  0.00     0.142 A 
HETATM   29  C   UNL     1      -9.808 -13.930 -40.053  1.00  0.00     0.038 A 
ENDBRANCH  21  25
ENDBRANCH   2  19
TORSDOF 7
ENDMDL
MODEL 8
REMARK VINA RESULT:      -7.6      3.517      6.833
REMARK  7 active torsions:
REMARK  status: ('A' for Active; 'I' for Inactive)
REMARK       I    between atoms: N_2  and  C_3 
REMARK    1  A    between atoms: C_3  and  C_4 
REMARK    2  A    between atoms: C_4  and  C_5 
REMARK    3  A    between atoms: C_5  and  O_6 
REMARK    4  A    between atoms: O_6  and  C_7 
REMARK    5  A    between atoms: C_10  and  N_11 
REMARK       I    between atoms: N_11  and  C_12 
REMARK    6  A    between atoms: C_12  and  C_13 
REMARK    7  A    between atoms: C_15  and  C_16 
ROOT
HETATM    1  N   UNL     1      -0.625   6.455 -29.915  1.00  0.00    -0.323 N 
HETATM    2  C   UNL     1      -0.216   5.464 -30.791  1.00  0.00     0.256 C 
HETATM    3  O   UNL     1       0.813   4.803 -30.717  1.00  0.00    -0.267 OA
HETATM    4  H   UNL     1      -1.447   6.985 -30.168  1.00  0.00     0.169 HD
ENDROOT
BRANCH   1   5
HETATM    5  C   UNL     1       0.024   6.870 -28.731  1.00  0.00     0.035 A 
HETATM    6  C   UNL     1      -0.170   6.276 -27.484  1.00  0.00     0.032 A 
HETATM    7  C   UNL     1       0.516   6.742 -26.353  1.00  0.00     0.039 A 
HETATM    8  C   UNL     1       1.397   7.814 -26.456  1.00  0.00     0.068 A 
HETATM    9  C   UNL     1       1.587   8.418 -27.700  1.00  0.00     0.039 A 
HETATM   10  C   UNL     1       0.909   7.948 -28.830  1.00  0.00     0.032 A 
BRANCH   8  11
HETATM   11  O   UNL     1       2.117   8.368 -25.434  1.00  0.00    -0.351 OA
BRANCH  11  12
HETATM   12  C   UNL     1       1.619   9.591 -24.877  1.00  0.00     0.185 C 
BRANCH  12  13
HETATM   13  C   UNL     1       1.952   9.609 -23.392  1.00  0.00     0.129 C 
BRANCH  13  14
HETATM   14  C   UNL     1       3.445   9.507 -23.160  1.00  0.00     0.219 C 
HETATM   15  N   UNL     1       3.912   8.223 -23.003  1.00  0.00    -0.365 N 
HETATM   16  C   UNL     1       5.318   7.955 -22.856  1.00  0.00     0.149 C 
HETATM   17  H   UNL     1       3.294   7.459 -23.267  1.00  0.00     0.161 HD
HETATM   18  O   UNL     1       4.160  10.502 -23.084  1.00  0.00    -0.274 OA
ENDBRANCH  13  14
ENDBRANCH  12  13
ENDBRANCH  11  12
ENDBRANCH   8  11
ENDBRANCH   1   5
BRANCH   2  19
HETATM   19  C   UNL     1      -1.122   5.224 -31.951  1.00  0.00     0.033 A 
HETATM   20  C   UNL     1      -2.135   4.263 -31.807  1.00  0.00     0.029 A 
HETATM   21  C   UNL     1      -3.026   3.998 -32.856  1.00  0.00    -0.023 A 
HETATM   22  C   UNL     1      -2.884   4.708 -34.055  1.00  0.00     0.012 A 
HETATM   23  C   UNL     1      -1.888   5.679 -34.198  1.00  0.00     0.002 A 
HETATM   24  C   UNL     1      -1.012   5.943 -33.146  1.00  0.00     0.017 A 
BRANCH  21  25
HETATM   25  C   UNL     1      -4.081   3.006 -32.716  1.00  0.00    -0.002 A 
HETATM   26  C   UNL     1      -5.404   3.218 -33.051  1.00  0.00     0.153 A 
HETATM   27  O   UNL     1      -6.147   2.104 -32.820  1.00  0.00    -0.334 OA
HETATM   28  C   UNL     1      -5.300   1.160 -32.339  1.00  0.00     0.142 A 
HETATM   29  C   UNL     1      -4.020   1.658 -32.260  1.00  0.00     0.038 A 
ENDBRANCH  21  25
ENDBRANCH   2  19
TORSDOF 7
ENDMDL
MODEL 9
REMARK VINA RESULT:      -7.3      4.749      7.724
REMARK  7 active torsions:
REMARK  status: ('A' for Active; 'I' for Inactive)
REMARK       I    between atoms: N_2  and  C_3 
REMARK    1  A    between atoms: C_3  and  C_4 
REMARK    2  A    between atoms: C_4  and  C_5 
REMARK    3  A    between atoms: C_5  and  O_6 
REMARK    4  A    between atoms: O_6  and  C_7 
REMARK    5  A    between atoms: C_10  and  N_11 
REMARK       I    between atoms: N_11  and  C_12 
REMARK    6  A    between atoms: C_12  and  C_13 
REMARK    7  A    between atoms: C_15  and  C_16 
ROOT
HETATM    1  N   UNL     1      -6.842   1.327 -32.643  1.00  0.00    -0.323 N 
HETATM    2  C   UNL     1      -5.464   1.421 -32.553  1.00  0.00     0.256 C 
HETATM    3  O   UNL     1      -4.803   2.452 -32.504  1.00  0.00    -0.267 OA
HETATM    4  H   UNL     1      -7.235   0.407 -32.782  1.00  0.00     0.169 HD
ENDROOT
BRANCH   1   5
HETATM    5  C   UNL     1      -7.773   2.389 -32.640  1.00  0.00     0.035 A 
HETATM    6  C   UNL     1      -8.056   3.184 -33.751  1.00  0.00     0.032 A 
HETATM    7  C   UNL     1      -8.999   4.219 -33.672  1.00  0.00     0.039 A 
HETATM    8  C   UNL     1      -9.664   4.476 -32.476  1.00  0.00     0.068 A 
HETATM    9  C   UNL     1      -9.377   3.690 -31.360  1.00  0.00     0.039 A 
HETATM   10  C   UNL     1      -8.442   2.652 -31.441  1.00  0.00     0.032 A 
BRANCH   8  11
HETATM   11  O   UNL     1     -10.593   5.455 -32.264  1.00  0.00    -0.351 OA
BRANCH  11  12
HETATM   12  C   UNL     1     -11.720   5.484 -33.149  1.00  0.00     0.185 C 
BRANCH  12  13
HETATM   13  C   UNL     1     -12.720   4.437 -32.681  1.00  0.00     0.129 C 
BRANCH  13  14
HETATM   14  C   UNL     1     -12.728   3.231 -33.596  1.00  0.00     0.219 C 
HETATM   15  N   UNL     1     -12.345   2.055 -32.994  1.00  0.00    -0.365 N 
HETATM   16  C   UNL     1     -12.378   0.808 -33.711  1.00  0.00     0.149 C 
HETATM   17  H   UNL     1     -12.305   2.034 -31.979  1.00  0.00     0.161 HD
HETATM   18  O   UNL     1     -13.020   3.320 -34.785  1.00  0.00    -0.274 OA
ENDBRANCH  13  14
ENDBRANCH  12  13
ENDBRANCH  11  12
ENDBRANCH   8  11
ENDBRANCH   1   5
BRANCH   2  19
HETATM   19  C   UNL     1      -4.734   0.120 -32.553  1.00  0.00     0.033 A 
HETATM   20  C   UNL     1      -5.270  -0.936 -33.306  1.00  0.00     0.029 A 
HETATM   21  C   UNL     1      -4.626  -2.180 -33.356  1.00  0.00    -0.023 A 
HETATM   22  C   UNL     1      -3.437  -2.351 -32.636  1.00  0.00     0.012 A 
HETATM   23  C   UNL     1      -2.889  -1.298 -31.899  1.00  0.00     0.002 A 
HETATM   24  C   UNL     1      -3.531  -0.060 -31.862  1.00  0.00     0.017 A 
BRANCH  21  25
HETATM   25  C   UNL     1      -5.173  -3.279 -34.136  1.00  0.00    -0.002 A 
HETATM   26  C   UNL     1      -4.580  -4.521 -34.261  1.00  0.00     0.153 A 
HETATM   27  O   UNL     1      -5.332  -5.341 -35.041  1.00  0.00    -0.334 OA
HETATM   28  C   UNL     1      -6.424  -4.631 -35.419  1.00  0.00     0.142 A 
HETATM   29  C   UNL     1      -6.380  -3.363 -34.887  1.00  0.00     0.038 A 
ENDBRANCH  21  25
ENDBRANCH   2  19
TORSDOF 7
ENDMDL
MODEL 10
REMARK VINA RESULT:      -7.1      5.043      7.987
REMARK  7 active torsions:
REMARK  status: ('A' for Active; 'I' for Inactive)
REMARK       I    between atoms: N_2  and  C_3 
REMARK    1  A    between atoms: C_3  and  C_4 
REMARK    2  A    between atoms: C_4  and  C_5 
REMARK    3  A    between atoms: C_5  and  O_6 
REMARK    4  A    between atoms: O_6  and  C_7 
REMARK    5  A    between atoms: C_10  and  N_11 
REMARK       I    between atoms: N_11  and  C_12 
REMARK    6  A    between atoms: C_12  and  C_13 
REMARK    7  A    between atoms: C_15  and  C_16 
ROOT
HETATM    1  N   UNL     1      -7.916   1.190 -33.086  1.00  0.00    -0.323 N 
HETATM    2  C   UNL     1      -6.601   1.585 -33.252  1.00  0.00     0.256 C 
HETATM    3  O   UNL     1      -6.201   2.723 -33.469  1.00  0.00    -0.267 OA
HETATM    4  H   UNL     1      -8.096   0.198 -33.019  1.00  0.00     0.169 HD
ENDROOT
BRANCH   1   5
HETATM    5  C   UNL     1      -9.062   2.016 -33.075  1.00  0.00     0.035 A 
HETATM    6  C   UNL     1      -9.427   2.832 -32.004  1.00  0.00     0.032 A 
HETATM    7  C   UNL     1     -10.580   3.629 -32.070  1.00  0.00     0.039 A 
HETATM    8  C   UNL     1     -11.383   3.613 -33.206  1.00  0.00     0.068 A 
HETATM    9  C   UNL     1     -11.026   2.791 -34.276  1.00  0.00     0.039 A 
HETATM   10  C   UNL     1      -9.873   2.002 -34.214  1.00  0.00     0.032 A 
BRANCH   8  11
HETATM   11  O   UNL     1     -12.530   4.332 -33.393  1.00  0.00    -0.351 OA
BRANCH  11  12
HETATM   12  C   UNL     1     -12.798   4.795 -34.723  1.00  0.00     0.185 C 
BRANCH  12  13
HETATM   13  C   UNL     1     -12.648   6.310 -34.739  1.00  0.00     0.129 C 
BRANCH  13  14
HETATM   14  C   UNL     1     -11.423   6.735 -35.519  1.00  0.00     0.219 C 
HETATM   15  N   UNL     1     -11.576   7.904 -36.229  1.00  0.00    -0.365 N 
HETATM   16  C   UNL     1     -10.478   8.482 -36.956  1.00  0.00     0.149 C 
HETATM   17  H   UNL     1     -12.379   8.488 -36.012  1.00  0.00     0.161 HD
HETATM   18  O   UNL     1     -10.397   6.062 -35.536  1.00  0.00    -0.274 OA
ENDBRANCH  13  14
ENDBRANCH  12  13
ENDBRANCH  11  12
ENDBRANCH   8  11
ENDBRANCH   1   5
BRANCH   2  19
HETATM   19  C   UNL     1      -5.591   0.489 -33.190  1.00  0.00     0.033 A 
HETATM   20  C   UNL     1      -5.933  -0.753 -33.749  1.00  0.00     0.029 A 
HETATM   21  C   UNL     1      -5.025  -1.820 -33.733  1.00  0.00    -0.023 A 
HETATM   22  C   UNL     1      -3.769  -1.627 -33.145  1.00  0.00     0.012 A 
HETATM   23  C   UNL     1      -3.417  -0.388 -32.602  1.00  0.00     0.002 A 
HETATM   24  C   UNL     1      -4.322   0.673 -32.631  1.00  0.00     0.017 A 
BRANCH  21  25
HETATM   25  C   UNL     1      -5.370  -3.110 -34.312  1.00  0.00    -0.002 A 
HETATM   26  C   UNL     1      -4.551  -4.222 -34.288  1.00  0.00     0.153 A 
HETATM   27  O   UNL     1      -5.151  -5.279 -34.896  1.00  0.00    -0.334 OA
HETATM   28  C   UNL     1      -6.369  -4.853 -35.311  1.00  0.00     0.142 A 
HETATM   29  C   UNL     1      -6.558  -3.533 -34.973  1.00  0.00     0.038 A 
ENDBRANCH  21  25
ENDBRANCH   2  19
TORSDOF 7
ENDMDL
