MODEL 1
REMARK VINA RESULT:      -8.2      0.000      0.000
REMARK  6 active torsions:
REMARK  status: ('A' for Active; 'I' for Inactive)
REMARK    1  A    between atoms: C_6  and  C_7 
REMARK       I    between atoms: C_7  and  N_8 
REMARK    2  A    between atoms: N_8  and  C_9 
REMARK    3  A    between atoms: C_9  and  C_10 
REMARK    4  A    between atoms: C_10  and  O_11 
REMARK    5  A    between atoms: C_10  and  C_12 
REMARK    6  A    between atoms: C_15  and  O_16 
ROOT
HETATM    1  C   UNL     1     -10.318   0.674 -33.317  1.00  0.00     0.258 C 
HETATM    2  N   UNL     1      -9.062   1.218 -33.411  1.00  0.00    -0.350 N 
HETATM    3  O   UNL     1     -10.519  -0.395 -32.744  1.00  0.00    -0.267 OA
HETATM    4  H   UNL     1      -8.975   2.083 -33.943  1.00  0.00     0.163 HD
ENDROOT
BRANCH   2   5
HETATM    5  C   UNL     1      -7.878   0.654 -32.766  1.00  0.00     0.114 C 
HETATM    6  C   UNL     1      -7.601   1.411 -31.468  1.00  0.00     0.035 C 
BRANCH   5   7
HETATM    7  C   UNL     1      -6.611   0.571 -33.679  1.00  0.00     0.173 C 
BRANCH   7   8
HETATM    8  O   UNL     1      -5.539   1.391 -33.201  1.00  0.00    -0.389 OA
HETATM    9  H   UNL     1      -4.721   1.122 -33.669  1.00  0.00     0.210 HD
ENDBRANCH   7   8
BRANCH   7  10
HETATM   10  C   UNL     1      -6.087  -0.826 -33.949  1.00  0.00    -0.028 A 
HETATM   11  C   UNL     1      -4.789  -1.182 -33.558  1.00  0.00     0.012 A 
HETATM   12  C   UNL     1      -4.306  -2.475 -33.780  1.00  0.00     0.037 A 
HETATM   13  C   UNL     1      -5.113  -3.442 -34.380  1.00  0.00     0.068 A 
HETATM   14  C   UNL     1      -6.399  -3.095 -34.791  1.00  0.00     0.037 A 
HETATM   15  C   UNL     1      -6.880  -1.798 -34.578  1.00  0.00     0.012 A 
BRANCH  13  16
HETATM   16  O   UNL     1      -4.533  -4.673 -34.518  1.00  0.00    -0.356 OA
HETATM   17  C   UNL     1      -3.456  -4.961 -33.633  1.00  0.00     0.210 C 
ENDBRANCH  13  16
ENDBRANCH   7  10
ENDBRANCH   5   7
ENDBRANCH   2   5
BRANCH   1  18
HETATM   18  C   UNL     1     -11.380   1.442 -33.940  1.00  0.00     0.105 A 
HETATM   19  C   UNL     1     -12.729   1.054 -34.152  1.00  0.00     0.071 A 
HETATM   20  C   UNL     1     -13.370  -0.242 -33.805  1.00  0.00     0.073 C 
HETATM   21  N   UNL     1     -13.453   2.017 -34.736  1.00  0.00    -0.170 NA
HETATM   22  N   UNL     1     -12.590   3.044 -34.902  1.00  0.00    -0.225 N 
HETATM   23  C   UNL     1     -11.307   2.730 -34.444  1.00  0.00     0.168 A 
HETATM   24  C   UNL     1     -12.860   4.296 -35.444  1.00  0.00     0.122 A 
HETATM   25  N   UNL     1     -10.269   3.628 -34.521  1.00  0.00    -0.240 NA
HETATM   26  C   UNL     1     -10.561   4.787 -35.033  1.00  0.00     0.120 A 
HETATM   27  C   UNL     1     -11.893   5.218 -35.537  1.00  0.00     0.038 A 
ENDBRANCH   1  18
TORSDOF 6
ENDMDL
MODEL 2
REMARK VINA RESULT:      -7.8      4.412      7.251
REMARK  6 active torsions:
REMARK  status: ('A' for Active; 'I' for Inactive)
REMARK    1  A    between atoms: C_6  and  C_7 
REMARK       I    between atoms: C_7  and  N_8 
REMARK    2  A    between atoms: N_8  and  C_9 
REMARK    3  A    between atoms: C_9  and  C_10 
REMARK    4  A    between atoms: C_10  and  O_11 
REMARK    5  A    between atoms: C_10  and  C_12 
REMARK    6  A    between atoms: C_15  and  O_16 
ROOT
HETATM    1  C   UNL     1      -4.503   2.848 -31.577  1.00  0.00     0.258 C 
HETATM    2  N   UNL     1      -4.387   1.535 -31.960  1.00  0.00    -0.350 N 
HETATM    3  O   UNL     1      -4.803   3.163 -30.427  1.00  0.00    -0.267 OA
HETATM    4  H   UNL     1      -4.182   1.360 -32.942  1.00  0.00     0.163 HD
ENDROOT
BRANCH   2   5
HETATM    5  C   UNL     1      -4.500   0.405 -31.040  1.00  0.00     0.114 C 
HETATM    6  C   UNL     1      -3.827  -0.819 -31.660  1.00  0.00     0.035 C 
BRANCH   5   7
HETATM    7  C   UNL     1      -5.955   0.094 -30.560  1.00  0.00     0.173 C 
BRANCH   7   8
HETATM    8  O   UNL     1      -6.295   0.792 -29.356  1.00  0.00    -0.389 OA
HETATM    9  H   UNL     1      -6.247   0.155 -28.613  1.00  0.00     0.210 HD
ENDBRANCH   7   8
BRANCH   7  10
HETATM   10  C   UNL     1      -7.048   0.315 -31.588  1.00  0.00    -0.028 A 
HETATM   11  C   UNL     1      -8.020   1.305 -31.386  1.00  0.00     0.012 A 
HETATM   12  C   UNL     1      -9.016   1.532 -32.340  1.00  0.00     0.037 A 
HETATM   13  C   UNL     1      -9.052   0.791 -33.520  1.00  0.00     0.068 A 
HETATM   14  C   UNL     1      -8.103  -0.210 -33.725  1.00  0.00     0.037 A 
HETATM   15  C   UNL     1      -7.110  -0.446 -32.766  1.00  0.00     0.012 A 
BRANCH  13  16
HETATM   16  O   UNL     1     -10.058   1.127 -34.383  1.00  0.00    -0.356 OA
HETATM   17  C   UNL     1     -11.361   1.227 -33.817  1.00  0.00     0.210 C 
ENDBRANCH  13  16
ENDBRANCH   7  10
ENDBRANCH   5   7
ENDBRANCH   2   5
BRANCH   1  18
HETATM   18  C   UNL     1      -4.253   3.826 -32.619  1.00  0.00     0.105 A 
HETATM   19  C   UNL     1      -5.155   4.295 -33.612  1.00  0.00     0.071 A 
HETATM   20  C   UNL     1      -6.564   3.877 -33.832  1.00  0.00     0.073 C 
HETATM   21  N   UNL     1      -4.604   5.220 -34.407  1.00  0.00    -0.170 NA
HETATM   22  N   UNL     1      -3.347   5.373 -33.938  1.00  0.00    -0.225 N 
HETATM   23  C   UNL     1      -3.084   4.529 -32.856  1.00  0.00     0.168 A 
HETATM   24  C   UNL     1      -2.369   6.245 -34.407  1.00  0.00     0.122 A 
HETATM   25  N   UNL     1      -1.862   4.513 -32.227  1.00  0.00    -0.240 NA
HETATM   26  C   UNL     1      -0.974   5.342 -32.694  1.00  0.00     0.120 A 
HETATM   27  C   UNL     1      -1.162   6.285 -33.830  1.00  0.00     0.038 A 
ENDBRANCH   1  18
TORSDOF 6
ENDMDL
MODEL 3
REMARK VINA RESULT:      -7.7      2.742      8.514
REMARK  6 active torsions:
REMARK  status: ('A' for Active; 'I' for Inactive)
REMARK    1  A    between atoms: C_6  and  C_7 
REMARK       I    between atoms: C_7  and  N_8 
REMARK    2  A    between atoms: N_8  and  C_9 
REMARK    3  A    between atoms: C_9  and  C_10 
REMARK    4  A    between atoms: C_10  and  O_11 
REMARK    5  A    between atoms: C_10  and  C_12 
REMARK    6  A    between atoms: C_15  and  O_16 
ROOT
HETATM    1  C   UNL     1      -5.967   0.235 -33.124  1.00  0.00     0.258 C 
HETATM    2  N   UNL     1      -7.279  -0.057 -32.852  1.00  0.00    -0.350 N 
HETATM    3  O   UNL     1      -5.613   1.359 -33.476  1.00  0.00    -0.267 OA
HETATM    4  H   UNL     1      -7.494  -1.024 -32.613  1.00  0.00     0.163 HD
ENDROOT
BRANCH   2   5
HETATM    5  C   UNL     1      -8.352   0.935 -32.849  1.00  0.00     0.114 C 
HETATM    6  C   UNL     1      -8.552   1.458 -31.426  1.00  0.00     0.035 C 
BRANCH   5   7
HETATM    7  C   UNL     1      -9.694   0.453 -33.490  1.00  0.00     0.173 C 
BRANCH   7   8
HETATM    8  O   UNL     1     -10.499  -0.298 -32.574  1.00  0.00    -0.389 OA
HETATM    9  H   UNL     1     -11.195  -0.757 -33.089  1.00  0.00     0.210 HD
ENDBRANCH   7   8
BRANCH   7  10
HETATM   10  C   UNL     1     -10.543   1.536 -34.128  1.00  0.00    -0.028 A 
HETATM   11  C   UNL     1      -9.978   2.777 -34.454  1.00  0.00     0.012 A 
HETATM   12  C   UNL     1     -10.747   3.772 -35.064  1.00  0.00     0.037 A 
HETATM   13  C   UNL     1     -12.087   3.544 -35.377  1.00  0.00     0.068 A 
HETATM   14  C   UNL     1     -12.665   2.321 -35.040  1.00  0.00     0.037 A 
HETATM   15  C   UNL     1     -11.899   1.327 -34.420  1.00  0.00     0.012 A 
BRANCH  13  16
HETATM   16  O   UNL     1     -12.721   4.586 -35.994  1.00  0.00    -0.356 OA
HETATM   17  C   UNL     1     -12.868   5.775 -35.226  1.00  0.00     0.210 C 
ENDBRANCH  13  16
ENDBRANCH   7  10
ENDBRANCH   5   7
ENDBRANCH   2   5
BRANCH   1  18
HETATM   18  C   UNL     1      -5.037  -0.869 -32.972  1.00  0.00     0.105 A 
HETATM   19  C   UNL     1      -3.911  -0.950 -32.110  1.00  0.00     0.071 A 
HETATM   20  C   UNL     1      -3.405   0.088 -31.173  1.00  0.00     0.073 C 
HETATM   21  N   UNL     1      -3.279  -2.126 -32.203  1.00  0.00    -0.170 NA
HETATM   22  N   UNL     1      -3.987  -2.827 -33.115  1.00  0.00    -0.225 N 
HETATM   23  C   UNL     1      -5.062  -2.091 -33.623  1.00  0.00     0.168 A 
HETATM   24  C   UNL     1      -3.754  -4.128 -33.549  1.00  0.00     0.122 A 
HETATM   25  N   UNL     1      -5.913  -2.608 -34.570  1.00  0.00    -0.240 NA
HETATM   26  C   UNL     1      -5.663  -3.827 -34.950  1.00  0.00     0.120 A 
HETATM   27  C   UNL     1      -4.555  -4.692 -34.462  1.00  0.00     0.038 A 
ENDBRANCH   1  18
TORSDOF 6
ENDMDL
MODEL 4
REMARK VINA RESULT:      -7.7      4.604      7.663
REMARK  6 active torsions:
REMARK  status: ('A' for Active; 'I' for Inactive)
REMARK    1  A    between atoms: C_6  and  C_7 
REMARK       I    between atoms: C_7  and  N_8 
REMARK    2  A    between atoms: N_8  and  C_9 
REMARK    3  A    between atoms: C_9  and  C_10 
REMARK    4  A    between atoms: C_10  and  O_11 
REMARK    5  A    between atoms: C_10  and  C_12 
REMARK    6  A    between atoms: C_15  and  O_16 
ROOT
HETATM    1  C   UNL     1      -4.716  -0.096 -32.712  1.00  0.00     0.258 C 
HETATM    2  N   UNL     1      -5.525   0.361 -31.703  1.00  0.00    -0.350 N 
HETATM    3  O   UNL     1      -3.547   0.271 -32.821  1.00  0.00    -0.267 OA
HETATM    4  H   UNL     1      -6.494   0.043 -31.712  1.00  0.00     0.163 HD
ENDROOT
BRANCH   2   5
HETATM    5  C   UNL     1      -5.068   1.228 -30.619  1.00  0.00     0.114 C 
HETATM    6  C   UNL     1      -5.536   0.655 -29.282  1.00  0.00     0.035 C 
BRANCH   5   7
HETATM    7  C   UNL     1      -5.453   2.735 -30.779  1.00  0.00     0.173 C 
BRANCH   7   8
HETATM    8  O   UNL     1      -5.279   3.475 -29.565  1.00  0.00    -0.389 OA
HETATM    9  H   UNL     1      -4.459   3.159 -29.132  1.00  0.00     0.210 HD
ENDBRANCH   7   8
BRANCH   7  10
HETATM   10  C   UNL     1      -4.765   3.471 -31.913  1.00  0.00    -0.028 A 
HETATM   11  C   UNL     1      -3.370   3.610 -31.923  1.00  0.00     0.012 A 
HETATM   12  C   UNL     1      -2.726   4.266 -32.976  1.00  0.00     0.037 A 
HETATM   13  C   UNL     1      -3.458   4.779 -34.047  1.00  0.00     0.068 A 
HETATM   14  C   UNL     1      -4.847   4.665 -34.039  1.00  0.00     0.037 A 
HETATM   15  C   UNL     1      -5.494   4.018 -32.980  1.00  0.00     0.012 A 
BRANCH  13  16
HETATM   16  O   UNL     1      -2.709   5.374 -35.025  1.00  0.00    -0.356 OA
HETATM   17  C   UNL     1      -1.305   5.427 -34.795  1.00  0.00     0.210 C 
ENDBRANCH  13  16
ENDBRANCH   7  10
ENDBRANCH   5   7
ENDBRANCH   2   5
BRANCH   1  18
HETATM   18  C   UNL     1      -5.333  -1.033 -33.632  1.00  0.00     0.105 A 
HETATM   19  C   UNL     1      -6.391  -0.788 -34.548  1.00  0.00     0.071 A 
HETATM   20  C   UNL     1      -7.132   0.482 -34.765  1.00  0.00     0.073 C 
HETATM   21  N   UNL     1      -6.705  -1.872 -35.267  1.00  0.00    -0.170 NA
HETATM   22  N   UNL     1      -5.853  -2.829 -34.839  1.00  0.00    -0.225 N 
HETATM   23  C   UNL     1      -5.007  -2.364 -33.828  1.00  0.00     0.168 A 
HETATM   24  C   UNL     1      -5.754  -4.139 -35.297  1.00  0.00     0.122 A 
HETATM   25  N   UNL     1      -4.064  -3.174 -33.241  1.00  0.00    -0.240 NA
HETATM   26  C   UNL     1      -4.002  -4.391 -33.696  1.00  0.00     0.120 A 
HETATM   27  C   UNL     1      -4.848  -4.974 -34.772  1.00  0.00     0.038 A 
ENDBRANCH   1  18
TORSDOF 6
ENDMDL
MODEL 5
REMARK VINA RESULT:      -7.6      4.638      6.612
REMARK  6 active torsions:
REMARK  status: ('A' for Active; 'I' for Inactive)
REMARK    1  A    between atoms: C_6  and  C_7 
REMARK       I    between atoms: C_7  and  N_8 
REMARK    2  A    between atoms: N_8  and  C_9 
REMARK    3  A    between atoms: C_9  and  C_10 
REMARK    4  A    between atoms: C_10  and  O_11 
REMARK    5  A    between atoms: C_10  and  C_12 
REMARK    6  A    between atoms: C_15  and  O_16 
ROOT
HETATM    1  C   UNL     1      -5.827   4.225 -33.026  1.00  0.00     0.258 C 
HETATM    2  N   UNL     1      -5.840   3.236 -32.075  1.00  0.00    -0.350 N 
HETATM    3  O   UNL     1      -6.540   4.171 -34.026  1.00  0.00    -0.267 OA
HETATM    4  H   UNL     1      -5.184   3.335 -31.301  1.00  0.00     0.163 HD
ENDROOT
BRANCH   2   5
HETATM    5  C   UNL     1      -6.755   2.098 -32.096  1.00  0.00     0.114 C 
HETATM    6  C   UNL     1      -8.061   2.486 -31.402  1.00  0.00     0.035 C 
BRANCH   5   7
HETATM    7  C   UNL     1      -6.161   0.769 -31.525  1.00  0.00     0.173 C 
BRANCH   7   8
HETATM    8  O   UNL     1      -6.902   0.275 -30.403  1.00  0.00    -0.389 OA
HETATM    9  H   UNL     1      -7.776   0.717 -30.400  1.00  0.00     0.210 HD
ENDBRANCH   7   8
BRANCH   7  10
HETATM   10  C   UNL     1      -5.976  -0.352 -32.530  1.00  0.00    -0.028 A 
HETATM   11  C   UNL     1      -7.023  -0.710 -33.391  1.00  0.00     0.012 A 
HETATM   12  C   UNL     1      -6.854  -1.725 -34.337  1.00  0.00     0.037 A 
HETATM   13  C   UNL     1      -5.633  -2.390 -34.455  1.00  0.00     0.068 A 
HETATM   14  C   UNL     1      -4.591  -2.057 -33.592  1.00  0.00     0.037 A 
HETATM   15  C   UNL     1      -4.762  -1.048 -32.637  1.00  0.00     0.012 A 
BRANCH  13  16
HETATM   16  O   UNL     1      -5.588  -3.343 -35.435  1.00  0.00    -0.356 OA
HETATM   17  C   UNL     1      -6.437  -4.471 -35.253  1.00  0.00     0.210 C 
ENDBRANCH  13  16
ENDBRANCH   7  10
ENDBRANCH   5   7
ENDBRANCH   2   5
BRANCH   1  18
HETATM   18  C   UNL     1      -4.916   5.326 -32.770  1.00  0.00     0.105 A 
HETATM   19  C   UNL     1      -5.065   6.382 -31.832  1.00  0.00     0.071 A 
HETATM   20  C   UNL     1      -6.201   6.623 -30.904  1.00  0.00     0.073 C 
HETATM   21  N   UNL     1      -4.022   7.222 -31.838  1.00  0.00    -0.170 NA
HETATM   22  N   UNL     1      -3.180   6.719 -32.767  1.00  0.00    -0.225 N 
HETATM   23  C   UNL     1      -3.694   5.570 -33.374  1.00  0.00     0.168 A 
HETATM   24  C   UNL     1      -1.933   7.215 -33.135  1.00  0.00     0.122 A 
HETATM   25  N   UNL     1      -3.006   4.897 -34.355  1.00  0.00    -0.240 NA
HETATM   26  C   UNL     1      -1.844   5.390 -34.671  1.00  0.00     0.120 A 
HETATM   27  C   UNL     1      -1.209   6.598 -34.077  1.00  0.00     0.038 A 
ENDBRANCH   1  18
TORSDOF 6
ENDMDL
MODEL 6
REMARK VINA RESULT:      -7.6      3.738      7.672
REMARK  6 active torsions:
REMARK  status: ('A' for Active; 'I' for Inactive)
REMARK    1  A    between atoms: C_6  and  C_7 
REMARK       I    between atoms: C_7  and  N_8 
REMARK    2  A    between atoms: N_8  and  C_9 
REMARK    3  A    between atoms: C_9  and  C_10 
REMARK    4  A    between atoms: C_10  and  O_11 
REMARK    5  A    between atoms: C_10  and  C_12 
REMARK    6  A    between atoms: C_15  and  O_16 
ROOT
HETATM    1  C   UNL     1      -6.299   0.137 -31.350  1.00  0.00     0.258 C 
HETATM    2  N   UNL     1      -7.114   0.990 -32.051  1.00  0.00    -0.350 N 
HETATM    3  O   UNL     1      -6.339   0.067 -30.123  1.00  0.00    -0.267 OA
HETATM    4  H   UNL     1      -6.984   1.021 -33.062  1.00  0.00     0.163 HD
ENDROOT
BRANCH   2   5
HETATM    5  C   UNL     1      -8.161   1.805 -31.439  1.00  0.00     0.114 C 
HETATM    6  C   UNL     1      -9.233   2.117 -32.484  1.00  0.00     0.035 C 
BRANCH   5   7
HETATM    7  C   UNL     1      -7.650   3.095 -30.719  1.00  0.00     0.173 C 
BRANCH   7   8
HETATM    8  O   UNL     1      -7.446   2.894 -29.316  1.00  0.00    -0.389 OA
HETATM    9  H   UNL     1      -8.325   2.815 -28.890  1.00  0.00     0.210 HD
ENDBRANCH   7   8
BRANCH   7  10
HETATM   10  C   UNL     1      -6.411   3.733 -31.317  1.00  0.00    -0.028 A 
HETATM   11  C   UNL     1      -5.170   3.602 -30.677  1.00  0.00     0.012 A 
HETATM   12  C   UNL     1      -4.018   4.165 -31.233  1.00  0.00     0.037 A 
HETATM   13  C   UNL     1      -4.077   4.854 -32.444  1.00  0.00     0.068 A 
HETATM   14  C   UNL     1      -5.308   5.009 -33.079  1.00  0.00     0.037 A 
HETATM   15  C   UNL     1      -6.464   4.454 -32.519  1.00  0.00     0.012 A 
BRANCH  13  16
HETATM   16  O   UNL     1      -2.878   5.335 -32.893  1.00  0.00    -0.356 OA
HETATM   17  C   UNL     1      -2.914   6.068 -34.113  1.00  0.00     0.210 C 
ENDBRANCH  13  16
ENDBRANCH   7  10
ENDBRANCH   5   7
ENDBRANCH   2   5
BRANCH   1  18
HETATM   18  C   UNL     1      -5.394  -0.664 -32.153  1.00  0.00     0.105 A 
HETATM   19  C   UNL     1      -3.980  -0.755 -32.046  1.00  0.00     0.071 A 
HETATM   20  C   UNL     1      -3.090  -0.033 -31.099  1.00  0.00     0.073 C 
HETATM   21  N   UNL     1      -3.455  -1.609 -32.933  1.00  0.00    -0.170 NA
HETATM   22  N   UNL     1      -4.515  -2.090 -33.618  1.00  0.00    -0.225 N 
HETATM   23  C   UNL     1      -5.719  -1.528 -33.185  1.00  0.00     0.168 A 
HETATM   24  C   UNL     1      -4.503  -3.037 -34.637  1.00  0.00     0.122 A 
HETATM   25  N   UNL     1      -6.925  -1.870 -33.749  1.00  0.00    -0.240 NA
HETATM   26  C   UNL     1      -6.873  -2.757 -34.699  1.00  0.00     0.120 A 
HETATM   27  C   UNL     1      -5.647  -3.420 -35.220  1.00  0.00     0.038 A 
ENDBRANCH   1  18
TORSDOF 6
ENDMDL
MODEL 7
REMARK VINA RESULT:      -7.5      4.621      6.942
REMARK  6 active torsions:
REMARK  status: ('A' for Active; 'I' for Inactive)
REMARK    1  A    between atoms: C_6  and  C_7 
REMARK       I    between atoms: C_7  and  N_8 
REMARK    2  A    between atoms: N_8  and  C_9 
REMARK    3  A    between atoms: C_9  and  C_10 
REMARK    4  A    between atoms: C_10  and  O_11 
REMARK    5  A    between atoms: C_10  and  C_12 
REMARK    6  A    between atoms: C_15  and  O_16 
ROOT
HETATM    1  C   UNL     1      -5.339   3.803 -33.224  1.00  0.00     0.258 C 
HETATM    2  N   UNL     1      -6.273   3.539 -32.254  1.00  0.00    -0.350 N 
HETATM    3  O   UNL     1      -5.630   3.810 -34.419  1.00  0.00    -0.267 OA
HETATM    4  H   UNL     1      -5.939   3.506 -31.292  1.00  0.00     0.163 HD
ENDROOT
BRANCH   2   5
HETATM    5  C   UNL     1      -7.696   3.348 -32.523  1.00  0.00     0.114 C 
HETATM    6  C   UNL     1      -8.500   4.399 -31.759  1.00  0.00     0.035 C 
BRANCH   5   7
HETATM    7  C   UNL     1      -8.225   1.900 -32.261  1.00  0.00     0.173 C 
BRANCH   7   8
HETATM    8  O   UNL     1      -9.648   1.805 -32.394  1.00  0.00    -0.389 OA
HETATM    9  H   UNL     1      -9.936   0.969 -31.970  1.00  0.00     0.210 HD
ENDBRANCH   7   8
BRANCH   7  10
HETATM   10  C   UNL     1      -7.574   0.804 -33.083  1.00  0.00    -0.028 A 
HETATM   11  C   UNL     1      -6.615  -0.039 -32.504  1.00  0.00     0.012 A 
HETATM   12  C   UNL     1      -6.027  -1.066 -33.247  1.00  0.00     0.037 A 
HETATM   13  C   UNL     1      -6.396  -1.285 -34.574  1.00  0.00     0.068 A 
HETATM   14  C   UNL     1      -7.334  -0.441 -35.167  1.00  0.00     0.037 A 
HETATM   15  C   UNL     1      -7.916   0.595 -34.427  1.00  0.00     0.012 A 
BRANCH  13  16
HETATM   16  O   UNL     1      -5.768  -2.337 -35.182  1.00  0.00    -0.356 OA
HETATM   17  C   UNL     1      -4.925  -3.128 -34.352  1.00  0.00     0.210 C 
ENDBRANCH  13  16
ENDBRANCH   7  10
ENDBRANCH   5   7
ENDBRANCH   2   5
BRANCH   1  18
HETATM   18  C   UNL     1      -3.996   4.066 -32.742  1.00  0.00     0.105 A 
HETATM   19  C   UNL     1      -3.227   3.292 -31.832  1.00  0.00     0.071 A 
HETATM   20  C   UNL     1      -3.626   2.039 -31.140  1.00  0.00     0.073 C 
HETATM   21  N   UNL     1      -2.012   3.811 -31.620  1.00  0.00    -0.170 NA
HETATM   22  N   UNL     1      -1.969   4.918 -32.392  1.00  0.00    -0.225 N 
HETATM   23  C   UNL     1      -3.167   5.122 -33.084  1.00  0.00     0.168 A 
HETATM   24  C   UNL     1      -0.905   5.801 -32.549  1.00  0.00     0.122 A 
HETATM   25  N   UNL     1      -3.347   6.194 -33.924  1.00  0.00    -0.240 NA
HETATM   26  C   UNL     1      -2.330   6.996 -34.044  1.00  0.00     0.120 A 
HETATM   27  C   UNL     1      -1.015   6.859 -33.362  1.00  0.00     0.038 A 
ENDBRANCH   1  18
TORSDOF 6
ENDMDL
MODEL 8
REMARK VINA RESULT:      -7.5      3.170      7.712
REMARK  6 active torsions:
REMARK  status: ('A' for Active; 'I' for Inactive)
REMARK    1  A    between atoms: C_6  and  C_7 
REMARK       I    between atoms: C_7  and  N_8 
REMARK    2  A    between atoms: N_8  and  C_9 
REMARK    3  A    between atoms: C_9  and  C_10 
REMARK    4  A    between atoms: C_10  and  O_11 
REMARK    5  A    between atoms: C_10  and  C_12 
REMARK    6  A    between atoms: C_15  and  O_16 
ROOT
HETATM    1  C   UNL     1      -5.195   0.238 -32.683  1.00  0.00     0.258 C 
HETATM    2  N   UNL     1      -6.311   0.586 -31.964  1.00  0.00    -0.350 N 
HETATM    3  O   UNL     1      -4.178   0.930 -32.675  1.00  0.00    -0.267 OA
HETATM    4  H   UNL     1      -7.127  -0.017 -32.063  1.00  0.00     0.163 HD
ENDROOT
BRANCH   2   5
HETATM    5  C   UNL     1      -6.372   1.728 -31.054  1.00  0.00     0.114 C 
HETATM    6  C   UNL     1      -5.764   1.334 -29.708  1.00  0.00     0.035 C 
BRANCH   5   7
HETATM    7  C   UNL     1      -7.792   2.362 -30.893  1.00  0.00     0.173 C 
BRANCH   7   8
HETATM    8  O   UNL     1      -7.735   3.768 -30.626  1.00  0.00    -0.389 OA
HETATM    9  H   UNL     1      -7.893   3.901 -29.668  1.00  0.00     0.210 HD
ENDBRANCH   7   8
BRANCH   7  10
HETATM   10  C   UNL     1      -8.756   2.111 -32.036  1.00  0.00    -0.028 A 
HETATM   11  C   UNL     1      -9.503   0.926 -32.084  1.00  0.00     0.012 A 
HETATM   12  C   UNL     1     -10.412   0.696 -33.121  1.00  0.00     0.037 A 
HETATM   13  C   UNL     1     -10.608   1.651 -34.119  1.00  0.00     0.068 A 
HETATM   14  C   UNL     1      -9.857   2.826 -34.093  1.00  0.00     0.037 A 
HETATM   15  C   UNL     1      -8.939   3.052 -33.061  1.00  0.00     0.012 A 
BRANCH  13  16
HETATM   16  O   UNL     1     -11.542   1.319 -35.060  1.00  0.00    -0.356 OA
HETATM   17  C   UNL     1     -12.362   2.382 -35.533  1.00  0.00     0.210 C 
ENDBRANCH  13  16
ENDBRANCH   7  10
ENDBRANCH   5   7
ENDBRANCH   2   5
BRANCH   1  18
HETATM   18  C   UNL     1      -5.303  -0.990 -33.448  1.00  0.00     0.105 A 
HETATM   19  C   UNL     1      -6.139  -1.253 -34.565  1.00  0.00     0.071 A 
HETATM   20  C   UNL     1      -7.120  -0.336 -35.203  1.00  0.00     0.073 C 
HETATM   21  N   UNL     1      -5.972  -2.489 -35.050  1.00  0.00    -0.170 NA
HETATM   22  N   UNL     1      -5.021  -3.041 -34.266  1.00  0.00    -0.225 N 
HETATM   23  C   UNL     1      -4.595  -2.166 -33.263  1.00  0.00     0.168 A 
HETATM   24  C   UNL     1      -4.469  -4.313 -34.375  1.00  0.00     0.122 A 
HETATM   25  N   UNL     1      -3.636  -2.525 -32.345  1.00  0.00    -0.240 NA
HETATM   26  C   UNL     1      -3.144  -3.721 -32.480  1.00  0.00     0.120 A 
HETATM   27  C   UNL     1      -3.523  -4.718 -33.518  1.00  0.00     0.038 A 
ENDBRANCH   1  18
TORSDOF 6
ENDMDL
MODEL 9
REMARK VINA RESULT:      -7.5      2.364      3.482
REMARK  6 active torsions:
REMARK  status: ('A' for Active; 'I' for Inactive)
REMARK    1  A    between atoms: C_6  and  C_7 
REMARK       I    between atoms: C_7  and  N_8 
REMARK    2  A    between atoms: N_8  and  C_9 
REMARK    3  A    between atoms: C_9  and  C_10 
REMARK    4  A    between atoms: C_10  and  O_11 
REMARK    5  A    between atoms: C_10  and  C_12 
REMARK    6  A    between atoms: C_15  and  O_16 
ROOT
HETATM    1  C   UNL     1      -7.998   2.859 -30.850  1.00  0.00     0.258 C 
HETATM    2  N   UNL     1      -7.119   2.323 -31.758  1.00  0.00    -0.350 N 
HETATM    3  O   UNL     1      -7.728   2.930 -29.653  1.00  0.00    -0.267 OA
HETATM    4  H   UNL     1      -7.440   2.258 -32.723  1.00  0.00     0.163 HD
ENDROOT
BRANCH   2   5
HETATM    5  C   UNL     1      -5.764   1.890 -31.424  1.00  0.00     0.114 C 
HETATM    6  C   UNL     1      -4.810   2.311 -32.541  1.00  0.00     0.035 C 
BRANCH   5   7
HETATM    7  C   UNL     1      -5.628   0.371 -31.077  1.00  0.00     0.173 C 
BRANCH   7   8
HETATM    8  O   UNL     1      -6.595  -0.058 -30.111  1.00  0.00    -0.389 OA
HETATM    9  H   UNL     1      -7.076  -0.826 -30.485  1.00  0.00     0.210 HD
ENDBRANCH   7   8
BRANCH   7  10
HETATM   10  C   UNL     1      -5.654  -0.577 -32.261  1.00  0.00    -0.028 A 
HETATM   11  C   UNL     1      -4.503  -1.294 -32.617  1.00  0.00     0.012 A 
HETATM   12  C   UNL     1      -4.524  -2.188 -33.692  1.00  0.00     0.037 A 
HETATM   13  C   UNL     1      -5.695  -2.397 -34.420  1.00  0.00     0.068 A 
HETATM   14  C   UNL     1      -6.840  -1.675 -34.088  1.00  0.00     0.037 A 
HETATM   15  C   UNL     1      -6.818  -0.772 -33.019  1.00  0.00     0.012 A 
BRANCH  13  16
HETATM   16  O   UNL     1      -5.591  -3.315 -35.428  1.00  0.00    -0.356 OA
HETATM   17  C   UNL     1      -6.393  -4.483 -35.298  1.00  0.00     0.210 C 
ENDBRANCH  13  16
ENDBRANCH   7  10
ENDBRANCH   5   7
ENDBRANCH   2   5
BRANCH   1  18
HETATM   18  C   UNL     1      -9.257   3.326 -31.400  1.00  0.00     0.105 A 
HETATM   19  C   UNL     1      -9.883   4.585 -31.200  1.00  0.00     0.071 A 
HETATM   20  C   UNL     1      -9.407   5.716 -30.361  1.00  0.00     0.073 C 
HETATM   21  N   UNL     1     -11.032   4.697 -31.877  1.00  0.00    -0.170 NA
HETATM   22  N   UNL     1     -11.163   3.523 -32.531  1.00  0.00    -0.225 N 
HETATM   23  C   UNL     1     -10.108   2.648 -32.256  1.00  0.00     0.168 A 
HETATM   24  C   UNL     1     -12.184   3.147 -33.399  1.00  0.00     0.122 A 
HETATM   25  N   UNL     1     -10.042   1.392 -32.811  1.00  0.00    -0.240 NA
HETATM   26  C   UNL     1     -11.014   1.078 -33.616  1.00  0.00     0.120 A 
HETATM   27  C   UNL     1     -12.171   1.941 -33.980  1.00  0.00     0.038 A 
ENDBRANCH   1  18
TORSDOF 6
ENDMDL
MODEL 10
REMARK VINA RESULT:      -7.5      4.679      7.992
REMARK  6 active torsions:
REMARK  status: ('A' for Active; 'I' for Inactive)
REMARK    1  A    between atoms: C_6  and  C_7 
REMARK       I    between atoms: C_7  and  N_8 
REMARK    2  A    between atoms: N_8  and  C_9 
REMARK    3  A    between atoms: C_9  and  C_10 
REMARK    4  A    between atoms: C_10  and  O_11 
REMARK    5  A    between atoms: C_10  and  C_12 
REMARK    6  A    between atoms: C_15  and  O_16 
ROOT
HETATM    1  C   UNL     1      -5.956   0.934 -32.802  1.00  0.00     0.258 C 
HETATM    2  N   UNL     1      -5.692   2.027 -33.588  1.00  0.00    -0.350 N 
HETATM    3  O   UNL     1      -6.268   1.048 -31.618  1.00  0.00    -0.267 OA
HETATM    4  H   UNL     1      -5.394   1.843 -34.545  1.00  0.00     0.163 HD
ENDROOT
BRANCH   2   5
HETATM    5  C   UNL     1      -5.853   3.410 -33.143  1.00  0.00     0.114 C 
HETATM    6  C   UNL     1      -7.339   3.770 -33.142  1.00  0.00     0.035 C 
BRANCH   5   7
HETATM    7  C   UNL     1      -4.997   4.455 -33.929  1.00  0.00     0.173 C 
BRANCH   7   8
HETATM    8  O   UNL     1      -5.716   5.666 -34.190  1.00  0.00    -0.389 OA
HETATM    9  H   UNL     1      -6.147   5.948 -33.357  1.00  0.00     0.210 HD
ENDBRANCH   7   8
BRANCH   7  10
HETATM   10  C   UNL     1      -3.653   4.798 -33.315  1.00  0.00    -0.028 A 
HETATM   11  C   UNL     1      -2.871   5.829 -33.853  1.00  0.00     0.012 A 
HETATM   12  C   UNL     1      -1.643   6.168 -33.279  1.00  0.00     0.037 A 
HETATM   13  C   UNL     1      -1.179   5.498 -32.148  1.00  0.00     0.068 A 
HETATM   14  C   UNL     1      -1.937   4.457 -31.614  1.00  0.00     0.037 A 
HETATM   15  C   UNL     1      -3.163   4.110 -32.194  1.00  0.00     0.012 A 
BRANCH  13  16
HETATM   16  O   UNL     1       0.023   5.940 -31.667  1.00  0.00    -0.356 OA
HETATM   17  C   UNL     1       0.568   5.211 -30.573  1.00  0.00     0.210 C 
ENDBRANCH  13  16
ENDBRANCH   7  10
ENDBRANCH   5   7
ENDBRANCH   2   5
BRANCH   1  18
HETATM   18  C   UNL     1      -5.836  -0.353 -33.461  1.00  0.00     0.105 A 
HETATM   19  C   UNL     1      -6.570  -0.833 -34.579  1.00  0.00     0.071 A 
HETATM   20  C   UNL     1      -7.652  -0.138 -35.325  1.00  0.00     0.073 C 
HETATM   21  N   UNL     1      -6.191  -2.062 -34.950  1.00  0.00    -0.170 NA
HETATM   22  N   UNL     1      -5.203  -2.392 -34.090  1.00  0.00    -0.225 N 
HETATM   23  C   UNL     1      -4.964  -1.383 -33.153  1.00  0.00     0.168 A 
HETATM   24  C   UNL     1      -4.455  -3.565 -34.071  1.00  0.00     0.122 A 
HETATM   25  N   UNL     1      -4.004  -1.510 -32.177  1.00  0.00    -0.240 NA
HETATM   26  C   UNL     1      -3.326  -2.621 -32.192  1.00  0.00     0.120 A 
HETATM   27  C   UNL     1      -3.498  -3.745 -33.152  1.00  0.00     0.038 A 
ENDBRANCH   1  18
TORSDOF 6
ENDMDL
