MODEL 1
REMARK VINA RESULT:      -9.3      0.000      0.000
REMARK  6 active torsions:
REMARK  status: ('A' for Active; 'I' for Inactive)
REMARK    1  A    between atoms: C_4  and  O_5 
REMARK    2  A    between atoms: O_5  and  C_6 
REMARK    3  A    between atoms: C_6  and  C_7 
REMARK       I    between atoms: C_7  and  N_8 
REMARK    4  A    between atoms: N_8  and  N_9 
REMARK       I    between atoms: N_9  and  C_10 
REMARK    5  A    between atoms: C_10  and  C_11 
REMARK    6  A    between atoms: C_12  and  C_13 
ROOT
HETATM    1  N   UNL     1      -4.291   3.748 -32.760  1.00  0.00    -0.263 N 
HETATM    2  C   UNL     1      -2.957   3.912 -32.431  1.00  0.00     0.274 C 
HETATM    3  O   UNL     1      -2.429   3.248 -31.540  1.00  0.00    -0.266 OA
HETATM    4  H   UNL     1      -4.623   4.042 -33.679  1.00  0.00     0.190 HD
ENDROOT
BRANCH   1   5
HETATM    5  N   UNL     1      -4.966   2.639 -32.210  1.00  0.00    -0.265 N 
HETATM    6  C   UNL     1      -5.922   2.034 -33.010  1.00  0.00     0.260 C 
HETATM    7  O   UNL     1      -6.267   2.521 -34.087  1.00  0.00    -0.269 OA
HETATM    8  H   UNL     1      -4.434   2.104 -31.524  1.00  0.00     0.190 HD
BRANCH   6   9
HETATM    9  C   UNL     1      -6.502   0.752 -32.421  1.00  0.00     0.280 C 
BRANCH   9  10
HETATM   10  O   UNL     1      -7.046  -0.022 -33.487  1.00  0.00    -0.342 OA
BRANCH  10  11
HETATM   11  C   UNL     1      -6.330  -1.158 -33.742  1.00  0.00     0.069 A 
HETATM   12  C   UNL     1      -6.865  -2.253 -34.424  1.00  0.00     0.043 A 
HETATM   13  C   UNL     1      -6.061  -3.367 -34.705  1.00  0.00    -0.059 A 
HETATM   14  C   UNL     1      -6.611  -4.529 -35.477  1.00  0.00     0.048 C 
HETATM   15  C   UNL     1      -4.713  -3.351 -34.323  1.00  0.00     0.007 A 
HETATM   16  C   UNL     1      -4.178  -2.244 -33.662  1.00  0.00     0.003 A 
HETATM   17  C   UNL     1      -4.985  -1.145 -33.380  1.00  0.00     0.037 A 
ENDBRANCH  10  11
ENDBRANCH   9  10
ENDBRANCH   6   9
ENDBRANCH   1   5
BRANCH   2  18
HETATM   18  C   UNL     1      -2.252   4.905 -33.227  1.00  0.00     0.081 A 
HETATM   19  C   UNL     1      -1.315   5.900 -32.800  1.00  0.00     0.104 A 
HETATM   20  N   UNL     1      -0.937   6.674 -33.834  1.00  0.00    -0.174 NA
HETATM   21  N   UNL     1      -1.582   6.174 -34.891  1.00  0.00    -0.288 N 
HETATM   22  H   UNL     1      -1.437   6.615 -35.794  1.00  0.00     0.188 HD
HETATM   23  C   UNL     1      -2.380   5.114 -34.589  1.00  0.00     0.128 A 
BRANCH  19  24
HETATM   24  C   UNL     1      -0.751   6.136 -31.471  1.00  0.00    -0.004 A 
HETATM   25  C   UNL     1       0.159   5.237 -30.900  1.00  0.00     0.015 A 
HETATM   26  C   UNL     1       0.705   5.486 -29.636  1.00  0.00     0.024 A 
HETATM   27  C   UNL     1       0.351   6.641 -28.944  1.00  0.00     0.034 A 
HETATM   28 CL   UNL     1       1.026   6.947 -27.391  1.00  0.00    -0.084 Cl
HETATM   29  C   UNL     1      -0.543   7.553 -29.502  1.00  0.00     0.024 A 
HETATM   30  C   UNL     1      -1.087   7.302 -30.765  1.00  0.00     0.015 A 
ENDBRANCH  19  24
ENDBRANCH   2  18
TORSDOF 6
ENDMDL
MODEL 2
REMARK VINA RESULT:      -9.1      3.406      9.034
REMARK  6 active torsions:
REMARK  status: ('A' for Active; 'I' for Inactive)
REMARK    1  A    between atoms: C_4  and  O_5 
REMARK    2  A    between atoms: O_5  and  C_6 
REMARK    3  A    between atoms: C_6  and  C_7 
REMARK       I    between atoms: C_7  and  N_8 
REMARK    4  A    between atoms: N_8  and  N_9 
REMARK       I    between atoms: N_9  and  C_10 
REMARK    5  A    between atoms: C_10  and  C_11 
REMARK    6  A    between atoms: C_12  and  C_13 
ROOT
HETATM    1  N   UNL     1      -3.913   3.567 -32.753  1.00  0.00    -0.263 N 
HETATM    2  C   UNL     1      -3.783   2.767 -31.631  1.00  0.00     0.274 C 
HETATM    3  O   UNL     1      -2.679   2.422 -31.213  1.00  0.00    -0.266 OA
HETATM    4  H   UNL     1      -4.769   4.104 -32.892  1.00  0.00     0.190 HD
ENDROOT
BRANCH   1   5
HETATM    5  N   UNL     1      -2.744   4.165 -33.264  1.00  0.00    -0.265 N 
HETATM    6  C   UNL     1      -2.917   5.282 -34.066  1.00  0.00     0.260 C 
HETATM    7  O   UNL     1      -4.034   5.650 -34.430  1.00  0.00    -0.269 OA
HETATM    8  H   UNL     1      -1.909   4.051 -32.689  1.00  0.00     0.190 HD
BRANCH   6   9
HETATM    9  C   UNL     1      -1.614   5.971 -34.459  1.00  0.00     0.280 C 
BRANCH   9  10
HETATM   10  O   UNL     1      -1.687   7.333 -34.041  1.00  0.00    -0.342 OA
BRANCH  10  11
HETATM   11  C   UNL     1      -1.380   7.504 -32.721  1.00  0.00     0.069 A 
HETATM   12  C   UNL     1      -2.163   8.271 -31.855  1.00  0.00     0.043 A 
HETATM   13  C   UNL     1      -1.828   8.361 -30.497  1.00  0.00    -0.059 A 
HETATM   14  C   UNL     1      -2.686   9.144 -29.549  1.00  0.00     0.048 C 
HETATM   15  C   UNL     1      -0.722   7.647 -30.018  1.00  0.00     0.007 A 
HETATM   16  C   UNL     1       0.044   6.863 -30.883  1.00  0.00     0.003 A 
HETATM   17  C   UNL     1      -0.292   6.785 -32.232  1.00  0.00     0.037 A 
ENDBRANCH  10  11
ENDBRANCH   9  10
ENDBRANCH   6   9
ENDBRANCH   1   5
BRANCH   2  18
HETATM   18  C   UNL     1      -5.040   2.398 -30.999  1.00  0.00     0.081 A 
HETATM   19  C   UNL     1      -5.922   1.315 -31.314  1.00  0.00     0.104 A 
HETATM   20  N   UNL     1      -7.021   1.353 -30.539  1.00  0.00    -0.174 NA
HETATM   21  N   UNL     1      -6.837   2.402 -29.733  1.00  0.00    -0.288 N 
HETATM   22  H   UNL     1      -7.559   2.616 -29.052  1.00  0.00     0.188 HD
HETATM   23  C   UNL     1      -5.669   3.062 -29.960  1.00  0.00     0.128 A 
BRANCH  19  24
HETATM   24  C   UNL     1      -5.763   0.243 -32.297  1.00  0.00    -0.004 A 
HETATM   25  C   UNL     1      -4.657  -0.617 -32.259  1.00  0.00     0.015 A 
HETATM   26  C   UNL     1      -4.528  -1.650 -33.192  1.00  0.00     0.024 A 
HETATM   27  C   UNL     1      -5.509  -1.833 -34.163  1.00  0.00     0.034 A 
HETATM   28 CL   UNL     1      -5.351  -3.107 -35.309  1.00  0.00    -0.084 Cl
HETATM   29  C   UNL     1      -6.622  -0.996 -34.208  1.00  0.00     0.024 A 
HETATM   30  C   UNL     1      -6.750   0.036 -33.273  1.00  0.00     0.015 A 
ENDBRANCH  19  24
ENDBRANCH   2  18
TORSDOF 6
ENDMDL
MODEL 3
REMARK VINA RESULT:      -9.0      1.580      2.314
REMARK  6 active torsions:
REMARK  status: ('A' for Active; 'I' for Inactive)
REMARK    1  A    between atoms: C_4  and  O_5 
REMARK    2  A    between atoms: O_5  and  C_6 
REMARK    3  A    between atoms: C_6  and  C_7 
REMARK       I    between atoms: C_7  and  N_8 
REMARK    4  A    between atoms: N_8  and  N_9 
REMARK       I    between atoms: N_9  and  C_10 
REMARK    5  A    between atoms: C_10  and  C_11 
REMARK    6  A    between atoms: C_12  and  C_13 
ROOT
HETATM    1  N   UNL     1      -3.877   4.406 -30.863  1.00  0.00    -0.263 N 
HETATM    2  C   UNL     1      -2.885   3.752 -31.571  1.00  0.00     0.274 C 
HETATM    3  O   UNL     1      -2.688   2.545 -31.434  1.00  0.00    -0.266 OA
HETATM    4  H   UNL     1      -4.243   5.292 -31.211  1.00  0.00     0.190 HD
ENDROOT
BRANCH   1   5
HETATM    5  N   UNL     1      -4.805   3.613 -30.158  1.00  0.00    -0.265 N 
HETATM    6  C   UNL     1      -6.036   3.414 -30.762  1.00  0.00     0.260 C 
HETATM    7  O   UNL     1      -6.357   4.010 -31.790  1.00  0.00    -0.269 OA
HETATM    8  H   UNL     1      -4.397   2.909 -29.543  1.00  0.00     0.190 HD
BRANCH   6   9
HETATM    9  C   UNL     1      -6.935   2.425 -30.026  1.00  0.00     0.280 C 
BRANCH   9  10
HETATM   10  O   UNL     1      -6.357   1.126 -30.142  1.00  0.00    -0.342 OA
BRANCH  10  11
HETATM   11  C   UNL     1      -6.666   0.507 -31.321  1.00  0.00     0.069 A 
HETATM   12  C   UNL     1      -5.759  -0.297 -32.013  1.00  0.00     0.043 A 
HETATM   13  C   UNL     1      -6.155  -0.952 -33.188  1.00  0.00    -0.059 A 
HETATM   14  C   UNL     1      -5.204  -1.855 -33.917  1.00  0.00     0.048 C 
HETATM   15  C   UNL     1      -7.475  -0.814 -33.636  1.00  0.00     0.007 A 
HETATM   16  C   UNL     1      -8.384  -0.027 -32.927  1.00  0.00     0.003 A 
HETATM   17  C   UNL     1      -7.981   0.626 -31.764  1.00  0.00     0.037 A 
ENDBRANCH  10  11
ENDBRANCH   9  10
ENDBRANCH   6   9
ENDBRANCH   1   5
BRANCH   2  18
HETATM   18  C   UNL     1      -2.128   4.597 -32.481  1.00  0.00     0.081 A 
HETATM   19  C   UNL     1      -1.139   5.587 -32.178  1.00  0.00     0.104 A 
HETATM   20  N   UNL     1      -0.721   6.204 -33.298  1.00  0.00    -0.174 NA
HETATM   21  N   UNL     1      -1.392   5.609 -34.288  1.00  0.00    -0.288 N 
HETATM   22  H   UNL     1      -1.223   5.924 -35.238  1.00  0.00     0.188 HD
HETATM   23  C   UNL     1      -2.245   4.640 -33.860  1.00  0.00     0.128 A 
BRANCH  19  24
HETATM   24  C   UNL     1      -0.562   5.959 -30.885  1.00  0.00    -0.004 A 
HETATM   25  C   UNL     1       0.184   5.042 -30.134  1.00  0.00     0.015 A 
HETATM   26  C   UNL     1       0.746   5.417 -28.909  1.00  0.00     0.024 A 
HETATM   27  C   UNL     1       0.572   6.715 -28.436  1.00  0.00     0.034 A 
HETATM   28 CL   UNL     1       1.266   7.177 -26.931  1.00  0.00    -0.084 Cl
HETATM   29  C   UNL     1      -0.157   7.644 -29.176  1.00  0.00     0.024 A 
HETATM   30  C   UNL     1      -0.717   7.267 -30.400  1.00  0.00     0.015 A 
ENDBRANCH  19  24
ENDBRANCH   2  18
TORSDOF 6
ENDMDL
MODEL 4
REMARK VINA RESULT:      -8.9      1.745      2.170
REMARK  6 active torsions:
REMARK  status: ('A' for Active; 'I' for Inactive)
REMARK    1  A    between atoms: C_4  and  O_5 
REMARK    2  A    between atoms: O_5  and  C_6 
REMARK    3  A    between atoms: C_6  and  C_7 
REMARK       I    between atoms: C_7  and  N_8 
REMARK    4  A    between atoms: N_8  and  N_9 
REMARK       I    between atoms: N_9  and  C_10 
REMARK    5  A    between atoms: C_10  and  C_11 
REMARK    6  A    between atoms: C_12  and  C_13 
ROOT
HETATM    1  N   UNL     1      -3.227   4.011 -31.636  1.00  0.00    -0.263 N 
HETATM    2  C   UNL     1      -1.991   4.633 -31.594  1.00  0.00     0.274 C 
HETATM    3  O   UNL     1      -1.056   4.160 -30.951  1.00  0.00    -0.266 OA
HETATM    4  H   UNL     1      -3.866   4.214 -32.404  1.00  0.00     0.190 HD
ENDROOT
BRANCH   1   5
HETATM    5  N   UNL     1      -3.315   2.703 -31.116  1.00  0.00    -0.265 N 
HETATM    6  C   UNL     1      -4.312   1.894 -31.636  1.00  0.00     0.260 C 
HETATM    7  O   UNL     1      -5.166   2.334 -32.405  1.00  0.00    -0.269 OA
HETATM    8  H   UNL     1      -2.436   2.310 -30.779  1.00  0.00     0.190 HD
BRANCH   6   9
HETATM    9  C   UNL     1      -4.257   0.450 -31.147  1.00  0.00     0.280 C 
BRANCH   9  10
HETATM   10  O   UNL     1      -3.152  -0.192 -31.780  1.00  0.00    -0.342 OA
BRANCH  10  11
HETATM   11  C   UNL     1      -3.479  -1.400 -32.329  1.00  0.00     0.069 A 
HETATM   12  C   UNL     1      -4.293  -1.524 -33.457  1.00  0.00     0.043 A 
HETATM   13  C   UNL     1      -4.546  -2.789 -34.006  1.00  0.00    -0.059 A 
HETATM   14  C   UNL     1      -5.381  -2.931 -35.244  1.00  0.00     0.048 C 
HETATM   15  C   UNL     1      -3.945  -3.916 -33.431  1.00  0.00     0.007 A 
HETATM   16  C   UNL     1      -3.114  -3.785 -32.317  1.00  0.00     0.003 A 
HETATM   17  C   UNL     1      -2.874  -2.525 -31.773  1.00  0.00     0.037 A 
ENDBRANCH  10  11
ENDBRANCH   9  10
ENDBRANCH   6   9
ENDBRANCH   1   5
BRANCH   2  18
HETATM   18  C   UNL     1      -1.901   5.858 -32.373  1.00  0.00     0.081 A 
HETATM   19  C   UNL     1      -1.525   7.172 -31.946  1.00  0.00     0.104 A 
HETATM   20  N   UNL     1      -1.633   8.052 -32.957  1.00  0.00    -0.174 NA
HETATM   21  N   UNL     1      -2.031   7.325 -34.004  1.00  0.00    -0.288 N 
HETATM   22  H   UNL     1      -2.175   7.800 -34.890  1.00  0.00     0.188 HD
HETATM   23  C   UNL     1      -2.205   6.007 -33.715  1.00  0.00     0.128 A 
BRANCH  19  24
HETATM   24  C   UNL     1      -1.053   7.623 -30.636  1.00  0.00    -0.004 A 
HETATM   25  C   UNL     1       0.201   7.237 -30.145  1.00  0.00     0.015 A 
HETATM   26  C   UNL     1       0.647   7.693 -28.900  1.00  0.00     0.024 A 
HETATM   27  C   UNL     1      -0.156   8.544 -28.146  1.00  0.00     0.034 A 
HETATM   28 CL   UNL     1       0.395   9.106 -26.616  1.00  0.00    -0.084 Cl
HETATM   29  C   UNL     1      -1.401   8.948 -28.624  1.00  0.00     0.024 A 
HETATM   30  C   UNL     1      -1.845   8.492 -29.869  1.00  0.00     0.015 A 
ENDBRANCH  19  24
ENDBRANCH   2  18
TORSDOF 6
ENDMDL
MODEL 5
REMARK VINA RESULT:      -8.7      5.549      8.655
REMARK  6 active torsions:
REMARK  status: ('A' for Active; 'I' for Inactive)
REMARK    1  A    between atoms: C_4  and  O_5 
REMARK    2  A    between atoms: O_5  and  C_6 
REMARK    3  A    between atoms: C_6  and  C_7 
REMARK       I    between atoms: C_7  and  N_8 
REMARK    4  A    between atoms: N_8  and  N_9 
REMARK       I    between atoms: N_9  and  C_10 
REMARK    5  A    between atoms: C_10  and  C_11 
REMARK    6  A    between atoms: C_12  and  C_13 
ROOT
HETATM    1  N   UNL     1      -7.503   1.910 -32.666  1.00  0.00    -0.263 N 
HETATM    2  C   UNL     1      -6.285   2.079 -33.300  1.00  0.00     0.274 C 
HETATM    3  O   UNL     1      -6.199   2.667 -34.377  1.00  0.00    -0.266 OA
HETATM    4  H   UNL     1      -7.527   1.730 -31.662  1.00  0.00     0.190 HD
ENDROOT
BRANCH   1   5
HETATM    5  N   UNL     1      -8.604   2.633 -33.168  1.00  0.00    -0.265 N 
HETATM    6  C   UNL     1      -9.477   1.942 -33.993  1.00  0.00     0.260 C 
HETATM    7  O   UNL     1      -9.231   0.800 -34.383  1.00  0.00    -0.269 OA
HETATM    8  H   UNL     1      -8.930   3.397 -32.575  1.00  0.00     0.190 HD
BRANCH   6   9
HETATM    9  C   UNL     1     -10.725   2.731 -34.375  1.00  0.00     0.280 C 
BRANCH   9  10
HETATM   10  O   UNL     1     -11.534   2.878 -33.211  1.00  0.00    -0.342 OA
BRANCH  10  11
HETATM   11  C   UNL     1     -12.740   2.243 -33.314  1.00  0.00     0.069 A 
HETATM   12  C   UNL     1     -13.882   2.671 -32.633  1.00  0.00     0.043 A 
HETATM   13  C   UNL     1     -15.104   2.011 -32.826  1.00  0.00    -0.059 A 
HETATM   14  C   UNL     1     -16.347   2.489 -32.136  1.00  0.00     0.048 C 
HETATM   15  C   UNL     1     -15.169   0.944 -33.732  1.00  0.00     0.007 A 
HETATM   16  C   UNL     1     -14.029   0.535 -34.427  1.00  0.00     0.003 A 
HETATM   17  C   UNL     1     -12.818   1.191 -34.224  1.00  0.00     0.037 A 
ENDBRANCH  10  11
ENDBRANCH   9  10
ENDBRANCH   6   9
ENDBRANCH   1   5
BRANCH   2  18
HETATM   18  C   UNL     1      -5.146   1.525 -32.587  1.00  0.00     0.081 A 
HETATM   19  C   UNL     1      -4.673   0.173 -32.556  1.00  0.00     0.104 A 
HETATM   20  N   UNL     1      -3.626   0.053 -31.719  1.00  0.00    -0.174 NA
HETATM   21  N   UNL     1      -3.413   1.286 -31.255  1.00  0.00    -0.288 N 
HETATM   22  H   UNL     1      -2.652   1.427 -30.598  1.00  0.00     0.188 HD
HETATM   23  C   UNL     1      -4.288   2.208 -31.741  1.00  0.00     0.128 A 
BRANCH  19  24
HETATM   24  C   UNL     1      -5.153  -0.996 -33.293  1.00  0.00    -0.004 A 
HETATM   25  C   UNL     1      -6.523  -1.212 -33.496  1.00  0.00     0.015 A 
HETATM   26  C   UNL     1      -6.966  -2.324 -34.219  1.00  0.00     0.024 A 
HETATM   27  C   UNL     1      -6.041  -3.219 -34.750  1.00  0.00     0.034 A 
HETATM   28 CL   UNL     1      -6.589  -4.585 -35.642  1.00  0.00    -0.084 Cl
HETATM   29  C   UNL     1      -4.675  -3.013 -34.569  1.00  0.00     0.024 A 
HETATM   30  C   UNL     1      -4.234  -1.901 -33.846  1.00  0.00     0.015 A 
ENDBRANCH  19  24
ENDBRANCH   2  18
TORSDOF 6
ENDMDL
MODEL 6
REMARK VINA RESULT:      -8.6      3.187      9.190
REMARK  6 active torsions:
REMARK  status: ('A' for Active; 'I' for Inactive)
REMARK    1  A    between atoms: C_4  and  O_5 
REMARK    2  A    between atoms: O_5  and  C_6 
REMARK    3  A    between atoms: C_6  and  C_7 
REMARK       I    between atoms: C_7  and  N_8 
REMARK    4  A    between atoms: N_8  and  N_9 
REMARK       I    between atoms: N_9  and  C_10 
REMARK    5  A    between atoms: C_10  and  C_11 
REMARK    6  A    between atoms: C_12  and  C_13 
ROOT
HETATM    1  N   UNL     1      -5.956   3.779 -31.866  1.00  0.00    -0.263 N 
HETATM    2  C   UNL     1      -6.807   3.133 -32.746  1.00  0.00     0.274 C 
HETATM    3  O   UNL     1      -6.712   3.290 -33.962  1.00  0.00    -0.266 OA
HETATM    4  H   UNL     1      -5.823   3.403 -30.927  1.00  0.00     0.190 HD
ENDROOT
BRANCH   1   5
HETATM    5  N   UNL     1      -4.833   4.435 -32.410  1.00  0.00    -0.265 N 
HETATM    6  C   UNL     1      -3.612   3.793 -32.274  1.00  0.00     0.260 C 
HETATM    7  O   UNL     1      -3.489   2.775 -31.593  1.00  0.00    -0.269 OA
HETATM    8  H   UNL     1      -5.026   5.039 -33.208  1.00  0.00     0.190 HD
BRANCH   6   9
HETATM    9  C   UNL     1      -2.467   4.475 -33.015  1.00  0.00     0.280 C 
BRANCH   9  10
HETATM   10  O   UNL     1      -1.286   4.346 -32.227  1.00  0.00    -0.342 OA
BRANCH  10  11
HETATM   11  C   UNL     1      -1.094   5.397 -31.375  1.00  0.00     0.069 A 
HETATM   12  C   UNL     1      -0.355   5.290 -30.195  1.00  0.00     0.043 A 
HETATM   13  C   UNL     1      -0.145   6.419 -29.392  1.00  0.00    -0.059 A 
HETATM   14  C   UNL     1       0.685   6.327 -28.146  1.00  0.00     0.048 C 
HETATM   15  C   UNL     1      -0.657   7.656 -29.805  1.00  0.00     0.007 A 
HETATM   16  C   UNL     1      -1.375   7.762 -30.998  1.00  0.00     0.003 A 
HETATM   17  C   UNL     1      -1.585   6.633 -31.786  1.00  0.00     0.037 A 
ENDBRANCH  10  11
ENDBRANCH   9  10
ENDBRANCH   6   9
ENDBRANCH   1   5
BRANCH   2  18
HETATM   18  C   UNL     1      -7.786   2.262 -32.115  1.00  0.00     0.081 A 
HETATM   19  C   UNL     1      -7.894   0.836 -32.178  1.00  0.00     0.104 A 
HETATM   20  N   UNL     1      -8.982   0.410 -31.511  1.00  0.00    -0.174 NA
HETATM   21  N   UNL     1      -9.534   1.518 -31.011  1.00  0.00    -0.288 N 
HETATM   22  H   UNL     1     -10.382   1.425 -30.459  1.00  0.00     0.188 HD
HETATM   23  C   UNL     1      -8.861   2.655 -31.337  1.00  0.00     0.128 A 
BRANCH  19  24
HETATM   24  C   UNL     1      -7.009  -0.137 -32.820  1.00  0.00    -0.004 A 
HETATM   25  C   UNL     1      -5.733  -0.404 -32.307  1.00  0.00     0.015 A 
HETATM   26  C   UNL     1      -4.905  -1.351 -32.919  1.00  0.00     0.024 A 
HETATM   27  C   UNL     1      -5.354  -2.040 -34.043  1.00  0.00     0.034 A 
HETATM   28 CL   UNL     1      -4.336  -3.206 -34.794  1.00  0.00    -0.084 Cl
HETATM   29  C   UNL     1      -6.625  -1.796 -34.559  1.00  0.00     0.024 A 
HETATM   30  C   UNL     1      -7.451  -0.850 -33.945  1.00  0.00     0.015 A 
ENDBRANCH  19  24
ENDBRANCH   2  18
TORSDOF 6
ENDMDL
MODEL 7
REMARK VINA RESULT:      -8.4      3.756      8.950
REMARK  6 active torsions:
REMARK  status: ('A' for Active; 'I' for Inactive)
REMARK    1  A    between atoms: C_4  and  O_5 
REMARK    2  A    between atoms: O_5  and  C_6 
REMARK    3  A    between atoms: C_6  and  C_7 
REMARK       I    between atoms: C_7  and  N_8 
REMARK    4  A    between atoms: N_8  and  N_9 
REMARK       I    between atoms: N_9  and  C_10 
REMARK    5  A    between atoms: C_10  and  C_11 
REMARK    6  A    between atoms: C_12  and  C_13 
ROOT
HETATM    1  N   UNL     1      -7.143   2.623 -31.088  1.00  0.00    -0.263 N 
HETATM    2  C   UNL     1      -7.947   3.467 -31.833  1.00  0.00     0.274 C 
HETATM    3  O   UNL     1      -7.593   4.612 -32.110  1.00  0.00    -0.266 OA
HETATM    4  H   UNL     1      -7.282   1.615 -31.145  1.00  0.00     0.190 HD
ENDROOT
BRANCH   1   5
HETATM    5  N   UNL     1      -5.812   3.028 -30.856  1.00  0.00    -0.265 N 
HETATM    6  C   UNL     1      -4.839   2.453 -31.656  1.00  0.00     0.260 C 
HETATM    7  O   UNL     1      -5.099   1.533 -32.431  1.00  0.00    -0.269 OA
HETATM    8  H   UNL     1      -5.704   3.974 -30.488  1.00  0.00     0.190 HD
BRANCH   6   9
HETATM    9  C   UNL     1      -3.446   3.044 -31.462  1.00  0.00     0.280 C 
BRANCH   9  10
HETATM   10  O   UNL     1      -2.863   3.243 -32.747  1.00  0.00    -0.342 OA
BRANCH  10  11
HETATM   11  C   UNL     1      -2.266   4.465 -32.881  1.00  0.00     0.069 A 
HETATM   12  C   UNL     1      -1.325   4.951 -31.970  1.00  0.00     0.043 A 
HETATM   13  C   UNL     1      -0.705   6.189 -32.193  1.00  0.00    -0.059 A 
HETATM   14  C   UNL     1       0.340   6.701 -31.247  1.00  0.00     0.048 C 
HETATM   15  C   UNL     1      -1.017   6.910 -33.353  1.00  0.00     0.007 A 
HETATM   16  C   UNL     1      -1.941   6.408 -34.272  1.00  0.00     0.003 A 
HETATM   17  C   UNL     1      -2.558   5.181 -34.039  1.00  0.00     0.037 A 
ENDBRANCH  10  11
ENDBRANCH   9  10
ENDBRANCH   6   9
ENDBRANCH   1   5
BRANCH   2  18
HETATM   18  C   UNL     1      -9.209   2.884 -32.261  1.00  0.00     0.081 A 
HETATM   19  C   UNL     1      -9.437   1.710 -33.048  1.00  0.00     0.104 A 
HETATM   20  N   UNL     1     -10.751   1.543 -33.286  1.00  0.00    -0.174 NA
HETATM   21  N   UNL     1     -11.347   2.553 -32.647  1.00  0.00    -0.288 N 
HETATM   22  H   UNL     1     -12.359   2.618 -32.693  1.00  0.00     0.188 HD
HETATM   23  C   UNL     1     -10.476   3.385 -32.014  1.00  0.00     0.128 A 
BRANCH  19  24
HETATM   24  C   UNL     1      -8.475   0.737 -33.566  1.00  0.00    -0.004 A 
HETATM   25  C   UNL     1      -8.121  -0.398 -32.823  1.00  0.00     0.015 A 
HETATM   26  C   UNL     1      -7.216  -1.330 -33.339  1.00  0.00     0.024 A 
HETATM   27  C   UNL     1      -6.667  -1.136 -34.604  1.00  0.00     0.034 A 
HETATM   28 CL   UNL     1      -5.555  -2.286 -35.238  1.00  0.00    -0.084 Cl
HETATM   29  C   UNL     1      -7.017  -0.021 -35.361  1.00  0.00     0.024 A 
HETATM   30  C   UNL     1      -7.923   0.910 -34.844  1.00  0.00     0.015 A 
ENDBRANCH  19  24
ENDBRANCH   2  18
TORSDOF 6
ENDMDL
MODEL 8
REMARK VINA RESULT:      -8.1      5.073      7.805
REMARK  6 active torsions:
REMARK  status: ('A' for Active; 'I' for Inactive)
REMARK    1  A    between atoms: C_4  and  O_5 
REMARK    2  A    between atoms: O_5  and  C_6 
REMARK    3  A    between atoms: C_6  and  C_7 
REMARK       I    between atoms: C_7  and  N_8 
REMARK    4  A    between atoms: N_8  and  N_9 
REMARK       I    between atoms: N_9  and  C_10 
REMARK    5  A    between atoms: C_10  and  C_11 
REMARK    6  A    between atoms: C_12  and  C_13 
ROOT
HETATM    1  N   UNL     1      -8.312  -0.063 -34.157  1.00  0.00    -0.263 N 
HETATM    2  C   UNL     1      -7.087  -0.101 -34.800  1.00  0.00     0.274 C 
HETATM    3  O   UNL     1      -6.898   0.502 -35.855  1.00  0.00    -0.266 OA
HETATM    4  H   UNL     1      -8.364  -0.274 -33.160  1.00  0.00     0.190 HD
ENDROOT
BRANCH   1   5
HETATM    5  N   UNL     1      -9.261   0.871 -34.619  1.00  0.00    -0.265 N 
HETATM    6  C   UNL     1      -9.606   1.890 -33.745  1.00  0.00     0.260 C 
HETATM    7  O   UNL     1      -9.215   1.902 -32.578  1.00  0.00    -0.269 OA
HETATM    8  H   UNL     1      -9.276   1.013 -35.629  1.00  0.00     0.190 HD
BRANCH   6   9
HETATM    9  C   UNL     1     -10.516   2.951 -34.358  1.00  0.00     0.280 C 
BRANCH   9  10
HETATM   10  O   UNL     1     -11.555   2.287 -35.074  1.00  0.00    -0.342 OA
BRANCH  10  11
HETATM   11  C   UNL     1     -12.677   2.084 -34.321  1.00  0.00     0.069 A 
HETATM   12  C   UNL     1     -13.148   3.018 -33.396  1.00  0.00     0.043 A 
HETATM   13  C   UNL     1     -14.338   2.777 -32.696  1.00  0.00    -0.059 A 
HETATM   14  C   UNL     1     -14.878   3.793 -31.734  1.00  0.00     0.048 C 
HETATM   15  C   UNL     1     -15.061   1.607 -32.962  1.00  0.00     0.007 A 
HETATM   16  C   UNL     1     -14.598   0.687 -33.904  1.00  0.00     0.003 A 
HETATM   17  C   UNL     1     -13.411   0.931 -34.590  1.00  0.00     0.037 A 
ENDBRANCH  10  11
ENDBRANCH   9  10
ENDBRANCH   6   9
ENDBRANCH   1   5
BRANCH   2  18
HETATM   18  C   UNL     1      -6.068  -0.885 -34.121  1.00  0.00     0.081 A 
HETATM   19  C   UNL     1      -5.319  -0.562 -32.944  1.00  0.00     0.104 A 
HETATM   20  N   UNL     1      -4.419  -1.525 -32.672  1.00  0.00    -0.174 NA
HETATM   21  N   UNL     1      -4.606  -2.447 -33.619  1.00  0.00    -0.288 N 
HETATM   22  H   UNL     1      -4.022  -3.278 -33.601  1.00  0.00     0.188 HD
HETATM   23  C   UNL     1      -5.580  -2.120 -34.511  1.00  0.00     0.128 A 
BRANCH  19  24
HETATM   24  C   UNL     1      -5.430   0.600 -32.061  1.00  0.00    -0.004 A 
HETATM   25  C   UNL     1      -6.250   0.571 -30.925  1.00  0.00     0.015 A 
HETATM   26  C   UNL     1      -6.331   1.682 -30.079  1.00  0.00     0.024 A 
HETATM   27  C   UNL     1      -5.584   2.823 -30.362  1.00  0.00     0.034 A 
HETATM   28 CL   UNL     1      -5.682   4.188 -29.319  1.00  0.00    -0.084 Cl
HETATM   29  C   UNL     1      -4.753   2.864 -31.479  1.00  0.00     0.024 A 
HETATM   30  C   UNL     1      -4.674   1.752 -32.323  1.00  0.00     0.015 A 
ENDBRANCH  19  24
ENDBRANCH   2  18
TORSDOF 6
ENDMDL
MODEL 9
REMARK VINA RESULT:      -8.0      3.973      8.522
REMARK  6 active torsions:
REMARK  status: ('A' for Active; 'I' for Inactive)
REMARK    1  A    between atoms: C_4  and  O_5 
REMARK    2  A    between atoms: O_5  and  C_6 
REMARK    3  A    between atoms: C_6  and  C_7 
REMARK       I    between atoms: C_7  and  N_8 
REMARK    4  A    between atoms: N_8  and  N_9 
REMARK       I    between atoms: N_9  and  C_10 
REMARK    5  A    between atoms: C_10  and  C_11 
REMARK    6  A    between atoms: C_12  and  C_13 
ROOT
HETATM    1  N   UNL     1      -4.384   2.439 -30.803  1.00  0.00    -0.263 N 
HETATM    2  C   UNL     1      -3.593   1.869 -31.785  1.00  0.00     0.274 C 
HETATM    3  O   UNL     1      -2.921   2.560 -32.549  1.00  0.00    -0.266 OA
HETATM    4  H   UNL     1      -4.661   1.883 -29.995  1.00  0.00     0.190 HD
ENDROOT
BRANCH   1   5
HETATM    5  N   UNL     1      -4.217   3.816 -30.551  1.00  0.00    -0.265 N 
HETATM    6  C   UNL     1      -5.246   4.651 -30.954  1.00  0.00     0.260 C 
HETATM    7  O   UNL     1      -6.192   4.236 -31.624  1.00  0.00    -0.269 OA
HETATM    8  H   UNL     1      -3.638   4.042 -29.742  1.00  0.00     0.190 HD
BRANCH   6   9
HETATM    9  C   UNL     1      -5.075   6.102 -30.516  1.00  0.00     0.280 C 
BRANCH   9  10
HETATM   10  O   UNL     1      -4.818   6.891 -31.675  1.00  0.00    -0.342 OA
BRANCH  10  11
HETATM   11  C   UNL     1      -3.508   6.858 -32.064  1.00  0.00     0.069 A 
HETATM   12  C   UNL     1      -3.075   6.189 -33.211  1.00  0.00     0.043 A 
HETATM   13  C   UNL     1      -1.726   6.241 -33.588  1.00  0.00    -0.059 A 
HETATM   14  C   UNL     1      -1.257   5.565 -34.842  1.00  0.00     0.048 C 
HETATM   15  C   UNL     1      -0.830   6.996 -32.820  1.00  0.00     0.007 A 
HETATM   16  C   UNL     1      -1.272   7.682 -31.687  1.00  0.00     0.003 A 
HETATM   17  C   UNL     1      -2.614   7.619 -31.315  1.00  0.00     0.037 A 
ENDBRANCH  10  11
ENDBRANCH   9  10
ENDBRANCH   6   9
ENDBRANCH   1   5
BRANCH   2  18
HETATM   18  C   UNL     1      -3.618   0.415 -31.818  1.00  0.00     0.081 A 
HETATM   19  C   UNL     1      -4.693  -0.459 -32.178  1.00  0.00     0.104 A 
HETATM   20  N   UNL     1      -4.338  -1.746 -32.012  1.00  0.00    -0.174 NA
HETATM   21  N   UNL     1      -3.071  -1.701 -31.592  1.00  0.00    -0.288 N 
HETATM   22  H   UNL     1      -2.597  -2.579 -31.404  1.00  0.00     0.188 HD
HETATM   23  C   UNL     1      -2.587  -0.437 -31.460  1.00  0.00     0.128 A 
BRANCH  19  24
HETATM   24  C   UNL     1      -6.025  -0.133 -32.689  1.00  0.00    -0.004 A 
HETATM   25  C   UNL     1      -7.083   0.158 -31.817  1.00  0.00     0.015 A 
HETATM   26  C   UNL     1      -8.346   0.488 -32.320  1.00  0.00     0.024 A 
HETATM   27  C   UNL     1      -8.553   0.537 -33.696  1.00  0.00     0.034 A 
HETATM   28 CL   UNL     1     -10.107   0.946 -34.312  1.00  0.00    -0.084 Cl
HETATM   29  C   UNL     1      -7.509   0.264 -34.577  1.00  0.00     0.024 A 
HETATM   30  C   UNL     1      -6.247  -0.065 -34.073  1.00  0.00     0.015 A 
ENDBRANCH  19  24
ENDBRANCH   2  18
TORSDOF 6
ENDMDL
MODEL 10
REMARK VINA RESULT:      -8.0      3.762      9.614
REMARK  6 active torsions:
REMARK  status: ('A' for Active; 'I' for Inactive)
REMARK    1  A    between atoms: C_4  and  O_5 
REMARK    2  A    between atoms: O_5  and  C_6 
REMARK    3  A    between atoms: C_6  and  C_7 
REMARK       I    between atoms: C_7  and  N_8 
REMARK    4  A    between atoms: N_8  and  N_9 
REMARK       I    between atoms: N_9  and  C_10 
REMARK    5  A    between atoms: C_10  and  C_11 
REMARK    6  A    between atoms: C_12  and  C_13 
ROOT
HETATM    1  N   UNL     1      -3.248   2.749 -32.541  1.00  0.00    -0.263 N 
HETATM    2  C   UNL     1      -3.861   1.989 -31.559  1.00  0.00     0.274 C 
HETATM    3  O   UNL     1      -4.374   2.511 -30.571  1.00  0.00    -0.266 OA
HETATM    4  H   UNL     1      -3.129   2.360 -33.476  1.00  0.00     0.190 HD
ENDROOT
BRANCH   1   5
HETATM    5  N   UNL     1      -3.435   4.145 -32.494  1.00  0.00    -0.265 N 
HETATM    6  C   UNL     1      -2.316   4.913 -32.215  1.00  0.00     0.260 C 
HETATM    7  O   UNL     1      -1.247   4.401 -31.884  1.00  0.00    -0.269 OA
HETATM    8  H   UNL     1      -4.189   4.502 -33.082  1.00  0.00     0.190 HD
BRANCH   6   9
HETATM    9  C   UNL     1      -2.550   6.416 -32.332  1.00  0.00     0.280 C 
BRANCH   9  10
HETATM   10  O   UNL     1      -1.307   7.079 -32.115  1.00  0.00    -0.342 OA
BRANCH  10  11
HETATM   11  C   UNL     1      -1.190   7.598 -30.857  1.00  0.00     0.069 A 
HETATM   12  C   UNL     1      -0.156   7.247 -29.986  1.00  0.00     0.043 A 
HETATM   13  C   UNL     1      -0.058   7.858 -28.728  1.00  0.00    -0.059 A 
HETATM   14  C   UNL     1       1.073   7.523 -27.802  1.00  0.00     0.048 C 
HETATM   15  C   UNL     1      -0.988   8.844 -28.373  1.00  0.00     0.007 A 
HETATM   16  C   UNL     1      -2.006   9.208 -29.257  1.00  0.00     0.003 A 
HETATM   17  C   UNL     1      -2.100   8.590 -30.502  1.00  0.00     0.037 A 
ENDBRANCH  10  11
ENDBRANCH   9  10
ENDBRANCH   6   9
ENDBRANCH   1   5
BRANCH   2  18
HETATM   18  C   UNL     1      -3.854   0.556 -31.807  1.00  0.00     0.081 A 
HETATM   19  C   UNL     1      -4.892  -0.269 -32.347  1.00  0.00     0.104 A 
HETATM   20  N   UNL     1      -4.520  -1.561 -32.354  1.00  0.00    -0.174 NA
HETATM   21  N   UNL     1      -3.277  -1.564 -31.868  1.00  0.00    -0.288 N 
HETATM   22  H   UNL     1      -2.795  -2.454 -31.787  1.00  0.00     0.188 HD
HETATM   23  C   UNL     1      -2.825  -0.326 -31.526  1.00  0.00     0.128 A 
BRANCH  19  24
HETATM   24  C   UNL     1      -6.205   0.113 -32.871  1.00  0.00    -0.004 A 
HETATM   25  C   UNL     1      -6.402   0.332 -34.240  1.00  0.00     0.015 A 
HETATM   26  C   UNL     1      -7.667   0.676 -34.729  1.00  0.00     0.024 A 
HETATM   27  C   UNL     1      -8.741   0.794 -33.851  1.00  0.00     0.034 A 
HETATM   28 CL   UNL     1     -10.296   1.215 -34.454  1.00  0.00    -0.084 Cl
HETATM   29  C   UNL     1      -8.565   0.567 -32.487  1.00  0.00     0.024 A 
HETATM   30  C   UNL     1      -7.301   0.222 -32.001  1.00  0.00     0.015 A 
ENDBRANCH  19  24
ENDBRANCH   2  18
TORSDOF 6
ENDMDL
