MODEL 1
REMARK VINA RESULT:      -8.2      0.000      0.000
REMARK  8 active torsions:
REMARK  status: ('A' for Active; 'I' for Inactive)
REMARK    1  A    between atoms: C_2  and  C_3 
REMARK    2  A    between atoms: C_3  and  N_4 
REMARK    3  A    between atoms: C_7  and  C_8 
REMARK       I    between atoms: C_8  and  N_9 
REMARK    4  A    between atoms: N_9  and  C_10 
REMARK    5  A    between atoms: C_13  and  O_14 
REMARK    6  A    between atoms: O_14  and  C_15 
REMARK    7  A    between atoms: C_15  and  C_16 
REMARK       I    between atoms: C_16  and  N_17 
REMARK    8  A    between atoms: C_23  and  C_24 
ROOT
HETATM    1  C   UNL     1      -6.976   0.709 -31.711  1.00  0.00     0.259 C 
HETATM    2  N   UNL     1      -6.851   2.074 -31.761  1.00  0.00    -0.323 N 
HETATM    3  O   UNL     1      -7.837   0.264 -30.948  1.00  0.00    -0.267 OA
HETATM    4  H   UNL     1      -7.464   2.486 -31.066  1.00  0.00     0.169 HD
ENDROOT
BRANCH   2   5
HETATM    5  C   UNL     1      -6.158   2.983 -32.574  1.00  0.00     0.035 A 
HETATM    6  C   UNL     1      -6.741   3.863 -33.485  1.00  0.00     0.032 A 
HETATM    7  C   UNL     1      -5.941   4.760 -34.208  1.00  0.00     0.039 A 
HETATM    8  C   UNL     1      -4.564   4.805 -33.995  1.00  0.00     0.069 A 
HETATM    9  C   UNL     1      -3.968   3.922 -33.104  1.00  0.00     0.039 A 
HETATM   10  C   UNL     1      -4.765   3.023 -32.393  1.00  0.00     0.032 A 
BRANCH   8  11
HETATM   11  O   UNL     1      -3.828   5.705 -34.715  1.00  0.00    -0.342 OA
BRANCH  11  12
HETATM   12  C   UNL     1      -2.424   5.449 -34.611  1.00  0.00     0.278 C 
BRANCH  12  13
HETATM   13  C   UNL     1      -1.664   6.519 -33.826  1.00  0.00     0.241 C 
HETATM   14  N   UNL     1      -0.974   6.037 -32.734  1.00  0.00    -0.364 N 
HETATM   15  C   UNL     1      -0.240   6.913 -31.859  1.00  0.00     0.149 C 
HETATM   16  H   UNL     1      -1.199   5.096 -32.425  1.00  0.00     0.161 HD
HETATM   17  O   UNL     1      -1.639   7.696 -34.177  1.00  0.00    -0.271 OA
ENDBRANCH  12  13
ENDBRANCH  11  12
ENDBRANCH   8  11
ENDBRANCH   2   5
BRANCH   1  18
HETATM   18  C   UNL     1      -6.061  -0.179 -32.390  1.00  0.00     0.076 C 
HETATM   19  C   UNL     1      -4.872  -0.721 -31.853  1.00  0.00     0.158 C 
HETATM   20  N   UNL     1      -4.330  -1.662 -32.626  1.00  0.00    -0.183 NA
HETATM   21  N   UNL     1      -5.230  -1.811 -33.621  1.00  0.00    -0.268 N 
HETATM   22  C   UNL     1      -6.215  -0.845 -33.600  1.00  0.00     0.052 C 
BRANCH  21  23
HETATM   23  C   UNL     1      -5.109  -2.934 -34.553  1.00  0.00     0.106 C 
HETATM   24  C   UNL     1      -6.424  -3.701 -34.750  1.00  0.00     0.034 C 
BRANCH  23  25
HETATM   25  C   UNL     1      -3.926  -3.862 -34.220  1.00  0.00     0.022 C 
HETATM   26  C   UNL     1      -4.303  -5.300 -33.893  1.00  0.00     0.007 C 
ENDBRANCH  23  25
ENDBRANCH  21  23
BRANCH  22  27
HETATM   27  C   UNL     1      -7.224  -0.626 -34.730  1.00  0.00     0.038 A 
HETATM   28  C   UNL     1      -8.309   0.417 -34.729  1.00  0.00     0.011 A 
HETATM   29  C   UNL     1      -7.072   0.659 -35.522  1.00  0.00     0.011 A 
ENDBRANCH  22  27
ENDBRANCH   1  18
TORSDOF 8
ENDMDL
MODEL 2
REMARK VINA RESULT:      -7.9      1.575      2.740
REMARK  8 active torsions:
REMARK  status: ('A' for Active; 'I' for Inactive)
REMARK    1  A    between atoms: C_2  and  C_3 
REMARK    2  A    between atoms: C_3  and  N_4 
REMARK    3  A    between atoms: C_7  and  C_8 
REMARK       I    between atoms: C_8  and  N_9 
REMARK    4  A    between atoms: N_9  and  C_10 
REMARK    5  A    between atoms: C_13  and  O_14 
REMARK    6  A    between atoms: O_14  and  C_15 
REMARK    7  A    between atoms: C_15  and  C_16 
REMARK       I    between atoms: C_16  and  N_17 
REMARK    8  A    between atoms: C_23  and  C_24 
ROOT
HETATM    1  C   UNL     1      -5.535   1.227 -30.089  1.00  0.00     0.259 C 
HETATM    2  N   UNL     1      -4.743   2.335 -30.259  1.00  0.00    -0.323 N 
HETATM    3  O   UNL     1      -5.588   0.761 -28.948  1.00  0.00    -0.267 OA
HETATM    4  H   UNL     1      -4.257   2.528 -29.390  1.00  0.00     0.169 HD
ENDROOT
BRANCH   2   5
HETATM    5  C   UNL     1      -4.529   3.259 -31.292  1.00  0.00     0.035 A 
HETATM    6  C   UNL     1      -5.328   4.367 -31.567  1.00  0.00     0.032 A 
HETATM    7  C   UNL     1      -4.980   5.246 -32.603  1.00  0.00     0.039 A 
HETATM    8  C   UNL     1      -3.816   5.041 -33.341  1.00  0.00     0.069 A 
HETATM    9  C   UNL     1      -3.020   3.930 -33.090  1.00  0.00     0.039 A 
HETATM   10  C   UNL     1      -3.373   3.051 -32.066  1.00  0.00     0.032 A 
BRANCH   8  11
HETATM   11  O   UNL     1      -3.514   5.932 -34.332  1.00  0.00    -0.342 OA
BRANCH  11  12
HETATM   12  C   UNL     1      -2.106   6.168 -34.425  1.00  0.00     0.278 C 
BRANCH  12  13
HETATM   13  C   UNL     1      -1.557   7.050 -33.301  1.00  0.00     0.241 C 
HETATM   14  N   UNL     1      -0.657   6.416 -32.472  1.00  0.00    -0.364 N 
HETATM   15  C   UNL     1      -0.077   7.085 -31.337  1.00  0.00     0.149 C 
HETATM   16  H   UNL     1      -0.606   5.404 -32.536  1.00  0.00     0.161 HD
HETATM   17  O   UNL     1      -1.865   8.234 -33.188  1.00  0.00    -0.271 OA
ENDBRANCH  12  13
ENDBRANCH  11  12
ENDBRANCH   8  11
ENDBRANCH   2   5
BRANCH   1  18
HETATM   18  C   UNL     1      -6.158   0.542 -31.197  1.00  0.00     0.076 C 
HETATM   19  C   UNL     1      -7.542   0.506 -31.482  1.00  0.00     0.158 C 
HETATM   20  N   UNL     1      -7.817  -0.029 -32.672  1.00  0.00    -0.183 NA
HETATM   21  N   UNL     1      -6.599  -0.243 -33.212  1.00  0.00    -0.268 N 
HETATM   22  C   UNL     1      -5.572  -0.047 -32.310  1.00  0.00     0.052 C 
BRANCH  21  23
HETATM   23  C   UNL     1      -6.479  -0.603 -34.627  1.00  0.00     0.106 C 
HETATM   24  C   UNL     1      -7.215   0.365 -35.562  1.00  0.00     0.034 C 
BRANCH  23  25
HETATM   25  C   UNL     1      -6.836  -2.076 -34.900  1.00  0.00     0.022 C 
HETATM   26  C   UNL     1      -5.650  -3.024 -34.987  1.00  0.00     0.007 C 
ENDBRANCH  23  25
ENDBRANCH  21  23
BRANCH  22  27
HETATM   27  C   UNL     1      -4.116  -0.440 -32.572  1.00  0.00     0.038 A 
HETATM   28  C   UNL     1      -3.084  -0.690 -31.506  1.00  0.00     0.011 A 
HETATM   29  C   UNL     1      -3.724  -1.852 -32.182  1.00  0.00     0.011 A 
ENDBRANCH  22  27
ENDBRANCH   1  18
TORSDOF 8
ENDMDL
MODEL 3
REMARK VINA RESULT:      -7.4      1.442      2.615
REMARK  8 active torsions:
REMARK  status: ('A' for Active; 'I' for Inactive)
REMARK    1  A    between atoms: C_2  and  C_3 
REMARK    2  A    between atoms: C_3  and  N_4 
REMARK    3  A    between atoms: C_7  and  C_8 
REMARK       I    between atoms: C_8  and  N_9 
REMARK    4  A    between atoms: N_9  and  C_10 
REMARK    5  A    between atoms: C_13  and  O_14 
REMARK    6  A    between atoms: O_14  and  C_15 
REMARK    7  A    between atoms: C_15  and  C_16 
REMARK       I    between atoms: C_16  and  N_17 
REMARK    8  A    between atoms: C_23  and  C_24 
ROOT
HETATM    1  C   UNL     1      -8.039   2.363 -32.977  1.00  0.00     0.259 C 
HETATM    2  N   UNL     1      -7.191   3.381 -32.621  1.00  0.00    -0.323 N 
HETATM    3  O   UNL     1      -9.222   2.495 -32.652  1.00  0.00    -0.267 OA
HETATM    4  H   UNL     1      -7.701   4.051 -32.056  1.00  0.00     0.169 HD
ENDROOT
BRANCH   2   5
HETATM    5  C   UNL     1      -5.863   3.723 -32.917  1.00  0.00     0.035 A 
HETATM    6  C   UNL     1      -4.736   3.251 -32.247  1.00  0.00     0.032 A 
HETATM    7  C   UNL     1      -3.454   3.632 -32.671  1.00  0.00     0.039 A 
HETATM    8  C   UNL     1      -3.296   4.453 -33.785  1.00  0.00     0.069 A 
HETATM    9  C   UNL     1      -4.411   4.946 -34.452  1.00  0.00     0.039 A 
HETATM   10  C   UNL     1      -5.685   4.574 -34.022  1.00  0.00     0.032 A 
BRANCH   8  11
HETATM   11  O   UNL     1      -2.026   4.787 -34.167  1.00  0.00    -0.342 OA
BRANCH  11  12
HETATM   12  C   UNL     1      -1.915   6.176 -34.492  1.00  0.00     0.278 C 
BRANCH  12  13
HETATM   13  C   UNL     1      -1.391   7.035 -33.340  1.00  0.00     0.241 C 
HETATM   14  N   UNL     1      -0.621   6.348 -32.426  1.00  0.00    -0.364 N 
HETATM   15  C   UNL     1      -0.083   6.993 -31.257  1.00  0.00     0.149 C 
HETATM   16  H   UNL     1      -0.650   5.334 -32.469  1.00  0.00     0.161 HD
HETATM   17  O   UNL     1      -1.607   8.242 -33.272  1.00  0.00    -0.271 OA
ENDBRANCH  12  13
ENDBRANCH  11  12
ENDBRANCH   8  11
ENDBRANCH   2   5
BRANCH   1  18
HETATM   18  C   UNL     1      -7.567   1.131 -33.565  1.00  0.00     0.076 C 
HETATM   19  C   UNL     1      -7.492   0.843 -34.947  1.00  0.00     0.158 C 
HETATM   20  N   UNL     1      -6.835  -0.287 -35.210  1.00  0.00    -0.183 NA
HETATM   21  N   UNL     1      -6.384  -0.680 -34.000  1.00  0.00    -0.268 N 
HETATM   22  C   UNL     1      -6.917   0.061 -32.964  1.00  0.00     0.052 C 
BRANCH  21  23
HETATM   23  C   UNL     1      -5.404  -1.765 -33.902  1.00  0.00     0.106 C 
HETATM   24  C   UNL     1      -3.962  -1.265 -33.746  1.00  0.00     0.034 C 
BRANCH  23  25
HETATM   25  C   UNL     1      -5.552  -2.806 -35.027  1.00  0.00     0.022 C 
HETATM   26  C   UNL     1      -6.656  -3.831 -34.819  1.00  0.00     0.007 C 
ENDBRANCH  23  25
ENDBRANCH  21  23
BRANCH  22  27
HETATM   27  C   UNL     1      -6.771  -0.307 -31.486  1.00  0.00     0.038 A 
HETATM   28  C   UNL     1      -5.568  -0.002 -30.635  1.00  0.00     0.011 A 
HETATM   29  C   UNL     1      -6.782   0.850 -30.505  1.00  0.00     0.011 A 
ENDBRANCH  22  27
ENDBRANCH   1  18
TORSDOF 8
ENDMDL
MODEL 4
REMARK VINA RESULT:      -7.3      3.289      9.508
REMARK  8 active torsions:
REMARK  status: ('A' for Active; 'I' for Inactive)
REMARK    1  A    between atoms: C_2  and  C_3 
REMARK    2  A    between atoms: C_3  and  N_4 
REMARK    3  A    between atoms: C_7  and  C_8 
REMARK       I    between atoms: C_8  and  N_9 
REMARK    4  A    between atoms: N_9  and  C_10 
REMARK    5  A    between atoms: C_13  and  O_14 
REMARK    6  A    between atoms: O_14  and  C_15 
REMARK    7  A    between atoms: C_15  and  C_16 
REMARK       I    between atoms: C_16  and  N_17 
REMARK    8  A    between atoms: C_23  and  C_24 
ROOT
HETATM    1  C   UNL     1      -1.999   7.238 -32.927  1.00  0.00     0.259 C 
HETATM    2  N   UNL     1      -2.544   5.989 -33.096  1.00  0.00    -0.323 N 
HETATM    3  O   UNL     1      -1.576   7.794 -33.943  1.00  0.00    -0.267 OA
HETATM    4  H   UNL     1      -2.418   5.704 -34.061  1.00  0.00     0.169 HD
ENDROOT
BRANCH   2   5
HETATM    5  C   UNL     1      -3.271   5.101 -32.290  1.00  0.00     0.035 A 
HETATM    6  C   UNL     1      -4.433   5.410 -31.587  1.00  0.00     0.032 A 
HETATM    7  C   UNL     1      -5.097   4.417 -30.851  1.00  0.00     0.039 A 
HETATM    8  C   UNL     1      -4.621   3.107 -30.847  1.00  0.00     0.069 A 
HETATM    9  C   UNL     1      -3.453   2.789 -31.528  1.00  0.00     0.039 A 
HETATM   10  C   UNL     1      -2.789   3.781 -32.251  1.00  0.00     0.032 A 
BRANCH   8  11
HETATM   11  O   UNL     1      -5.309   2.172 -30.124  1.00  0.00    -0.342 OA
BRANCH  11  12
HETATM   12  C   UNL     1      -5.423   0.933 -30.830  1.00  0.00     0.278 C 
BRANCH  12  13
HETATM   13  C   UNL     1      -6.649   0.858 -31.741  1.00  0.00     0.241 C 
HETATM   14  N   UNL     1      -7.844   0.703 -31.072  1.00  0.00    -0.364 N 
HETATM   15  C   UNL     1      -9.092   0.572 -31.777  1.00  0.00     0.149 C 
HETATM   16  H   UNL     1      -7.793   0.438 -30.093  1.00  0.00     0.161 HD
HETATM   17  O   UNL     1      -6.567   0.976 -32.961  1.00  0.00    -0.271 OA
ENDBRANCH  12  13
ENDBRANCH  11  12
ENDBRANCH   8  11
ENDBRANCH   2   5
BRANCH   1  18
HETATM   18  C   UNL     1      -1.788   7.821 -31.623  1.00  0.00     0.076 C 
HETATM   19  C   UNL     1      -2.636   8.749 -30.978  1.00  0.00     0.158 C 
HETATM   20  N   UNL     1      -2.303   8.966 -29.706  1.00  0.00    -0.183 NA
HETATM   21  N   UNL     1      -1.298   8.090 -29.488  1.00  0.00    -0.268 N 
HETATM   22  C   UNL     1      -0.860   7.482 -30.647  1.00  0.00     0.052 C 
BRANCH  21  23
HETATM   23  C   UNL     1      -0.819   7.852 -28.125  1.00  0.00     0.106 C 
HETATM   24  C   UNL     1      -1.946   7.533 -27.134  1.00  0.00     0.034 C 
BRANCH  23  25
HETATM   25  C   UNL     1       0.119   8.963 -27.618  1.00  0.00     0.022 C 
HETATM   26  C   UNL     1       1.605   8.663 -27.740  1.00  0.00     0.007 C 
ENDBRANCH  23  25
ENDBRANCH  21  23
BRANCH  22  27
HETATM   27  C   UNL     1       0.409   6.630 -30.738  1.00  0.00     0.038 A 
HETATM   28  C   UNL     1       0.757   5.498 -29.810  1.00  0.00     0.011 A 
HETATM   29  C   UNL     1       0.215   5.186 -31.162  1.00  0.00     0.011 A 
ENDBRANCH  22  27
ENDBRANCH   1  18
TORSDOF 8
ENDMDL
MODEL 5
REMARK VINA RESULT:      -7.2      2.511      7.686
REMARK  8 active torsions:
REMARK  status: ('A' for Active; 'I' for Inactive)
REMARK    1  A    between atoms: C_2  and  C_3 
REMARK    2  A    between atoms: C_3  and  N_4 
REMARK    3  A    between atoms: C_7  and  C_8 
REMARK       I    between atoms: C_8  and  N_9 
REMARK    4  A    between atoms: N_9  and  C_10 
REMARK    5  A    between atoms: C_13  and  O_14 
REMARK    6  A    between atoms: O_14  and  C_15 
REMARK    7  A    between atoms: C_15  and  C_16 
REMARK       I    between atoms: C_16  and  N_17 
REMARK    8  A    between atoms: C_23  and  C_24 
ROOT
HETATM    1  C   UNL     1      -7.484   4.351 -33.400  1.00  0.00     0.259 C 
HETATM    2  N   UNL     1      -8.169   3.234 -33.809  1.00  0.00    -0.323 N 
HETATM    3  O   UNL     1      -8.148   5.380 -33.255  1.00  0.00    -0.267 OA
HETATM    4  H   UNL     1      -9.130   3.492 -34.005  1.00  0.00     0.169 HD
ENDROOT
BRANCH   2   5
HETATM    5  C   UNL     1      -7.870   1.869 -33.930  1.00  0.00     0.035 A 
HETATM    6  C   UNL     1      -6.783   1.336 -34.620  1.00  0.00     0.032 A 
HETATM    7  C   UNL     1      -6.565  -0.050 -34.628  1.00  0.00     0.039 A 
HETATM    8  C   UNL     1      -7.411  -0.900 -33.919  1.00  0.00     0.069 A 
HETATM    9  C   UNL     1      -8.509  -0.385 -33.243  1.00  0.00     0.039 A 
HETATM   10  C   UNL     1      -8.729   0.994 -33.244  1.00  0.00     0.032 A 
BRANCH   8  11
HETATM   11  O   UNL     1      -7.150  -2.242 -33.948  1.00  0.00    -0.342 OA
BRANCH  11  12
HETATM   12  C   UNL     1      -6.206  -2.579 -34.969  1.00  0.00     0.278 C 
BRANCH  12  13
HETATM   13  C   UNL     1      -5.450  -3.881 -34.698  1.00  0.00     0.241 C 
HETATM   14  N   UNL     1      -4.251  -3.713 -34.038  1.00  0.00    -0.364 N 
HETATM   15  C   UNL     1      -3.391  -4.829 -33.741  1.00  0.00     0.149 C 
HETATM   16  H   UNL     1      -3.881  -2.769 -33.989  1.00  0.00     0.161 HD
HETATM   17  O   UNL     1      -5.906  -4.980 -35.004  1.00  0.00    -0.271 OA
ENDBRANCH  12  13
ENDBRANCH  11  12
ENDBRANCH   8  11
ENDBRANCH   2   5
BRANCH   1  18
HETATM   18  C   UNL     1      -6.044   4.378 -33.287  1.00  0.00     0.076 C 
HETATM   19  C   UNL     1      -5.138   4.818 -34.278  1.00  0.00     0.158 C 
HETATM   20  N   UNL     1      -3.886   4.920 -33.834  1.00  0.00    -0.183 NA
HETATM   21  N   UNL     1      -3.995   4.650 -32.515  1.00  0.00    -0.268 N 
HETATM   22  C   UNL     1      -5.246   4.181 -32.167  1.00  0.00     0.052 C 
BRANCH  21  23
HETATM   23  C   UNL     1      -2.861   4.899 -31.622  1.00  0.00     0.106 C 
HETATM   24  C   UNL     1      -3.002   6.193 -30.810  1.00  0.00     0.034 C 
BRANCH  23  25
HETATM   25  C   UNL     1      -1.502   4.794 -32.338  1.00  0.00     0.022 C 
HETATM   26  C   UNL     1      -0.330   5.424 -31.600  1.00  0.00     0.007 C 
ENDBRANCH  23  25
ENDBRANCH  21  23
BRANCH  22  27
HETATM   27  C   UNL     1      -5.584   3.578 -30.802  1.00  0.00     0.038 A 
HETATM   28  C   UNL     1      -6.635   2.529 -30.558  1.00  0.00     0.011 A 
HETATM   29  C   UNL     1      -5.203   2.124 -30.600  1.00  0.00     0.011 A 
ENDBRANCH  22  27
ENDBRANCH   1  18
TORSDOF 8
ENDMDL
MODEL 6
REMARK VINA RESULT:      -7.2      3.641      6.926
REMARK  8 active torsions:
REMARK  status: ('A' for Active; 'I' for Inactive)
REMARK    1  A    between atoms: C_2  and  C_3 
REMARK    2  A    between atoms: C_3  and  N_4 
REMARK    3  A    between atoms: C_7  and  C_8 
REMARK       I    between atoms: C_8  and  N_9 
REMARK    4  A    between atoms: N_9  and  C_10 
REMARK    5  A    between atoms: C_13  and  O_14 
REMARK    6  A    between atoms: O_14  and  C_15 
REMARK    7  A    between atoms: C_15  and  C_16 
REMARK       I    between atoms: C_16  and  N_17 
REMARK    8  A    between atoms: C_23  and  C_24 
ROOT
HETATM    1  C   UNL     1      -6.251   2.783 -33.443  1.00  0.00     0.259 C 
HETATM    2  N   UNL     1      -7.209   3.765 -33.456  1.00  0.00    -0.323 N 
HETATM    3  O   UNL     1      -5.091   3.150 -33.236  1.00  0.00    -0.267 OA
HETATM    4  H   UNL     1      -6.755   4.668 -33.370  1.00  0.00     0.169 HD
ENDROOT
BRANCH   2   5
HETATM    5  C   UNL     1      -8.611   3.791 -33.479  1.00  0.00     0.035 A 
HETATM    6  C   UNL     1      -9.445   3.421 -32.425  1.00  0.00     0.032 A 
HETATM    7  C   UNL     1     -10.837   3.537 -32.556  1.00  0.00     0.039 A 
HETATM    8  C   UNL     1     -11.395   4.056 -33.723  1.00  0.00     0.069 A 
HETATM    9  C   UNL     1     -10.576   4.411 -34.787  1.00  0.00     0.039 A 
HETATM   10  C   UNL     1      -9.192   4.285 -34.659  1.00  0.00     0.032 A 
BRANCH   8  11
HETATM   11  O   UNL     1     -12.756   4.160 -33.798  1.00  0.00    -0.342 OA
BRANCH  11  12
HETATM   12  C   UNL     1     -13.411   3.118 -33.069  1.00  0.00     0.278 C 
BRANCH  12  13
HETATM   13  C   UNL     1     -13.503   1.798 -33.838  1.00  0.00     0.241 C 
HETATM   14  N   UNL     1     -13.324   0.675 -33.059  1.00  0.00    -0.364 N 
HETATM   15  C   UNL     1     -13.336  -0.647 -33.628  1.00  0.00     0.149 C 
HETATM   16  H   UNL     1     -12.942   0.815 -32.129  1.00  0.00     0.161 HD
HETATM   17  O   UNL     1     -13.762   1.756 -35.038  1.00  0.00    -0.271 OA
ENDBRANCH  12  13
ENDBRANCH  11  12
ENDBRANCH   8  11
ENDBRANCH   2   5
BRANCH   1  18
HETATM   18  C   UNL     1      -6.541   1.413 -33.797  1.00  0.00     0.076 C 
HETATM   19  C   UNL     1      -7.098   0.968 -35.018  1.00  0.00     0.158 C 
HETATM   20  N   UNL     1      -7.071  -0.358 -35.152  1.00  0.00    -0.183 NA
HETATM   21  N   UNL     1      -6.394  -0.773 -34.060  1.00  0.00    -0.268 N 
HETATM   22  C   UNL     1      -6.178   0.240 -33.147  1.00  0.00     0.052 C 
BRANCH  21  23
HETATM   23  C   UNL     1      -5.944  -2.164 -33.964  1.00  0.00     0.106 C 
HETATM   24  C   UNL     1      -4.470  -2.351 -34.349  1.00  0.00     0.034 C 
BRANCH  23  25
HETATM   25  C   UNL     1      -6.877  -3.146 -34.697  1.00  0.00     0.022 C 
HETATM   26  C   UNL     1      -6.200  -4.389 -35.254  1.00  0.00     0.007 C 
ENDBRANCH  23  25
ENDBRANCH  21  23
BRANCH  22  27
HETATM   27  C   UNL     1      -5.649   0.015 -31.728  1.00  0.00     0.038 A 
HETATM   28  C   UNL     1      -5.796   0.987 -30.589  1.00  0.00     0.011 A 
HETATM   29  C   UNL     1      -6.696  -0.197 -30.651  1.00  0.00     0.011 A 
ENDBRANCH  22  27
ENDBRANCH   1  18
TORSDOF 8
ENDMDL
MODEL 7
REMARK VINA RESULT:      -7.2      2.656      8.958
REMARK  8 active torsions:
REMARK  status: ('A' for Active; 'I' for Inactive)
REMARK    1  A    between atoms: C_2  and  C_3 
REMARK    2  A    between atoms: C_3  and  N_4 
REMARK    3  A    between atoms: C_7  and  C_8 
REMARK       I    between atoms: C_8  and  N_9 
REMARK    4  A    between atoms: N_9  and  C_10 
REMARK    5  A    between atoms: C_13  and  O_14 
REMARK    6  A    between atoms: O_14  and  C_15 
REMARK    7  A    between atoms: C_15  and  C_16 
REMARK       I    between atoms: C_16  and  N_17 
REMARK    8  A    between atoms: C_23  and  C_24 
ROOT
HETATM    1  C   UNL     1      -1.885   6.900 -33.205  1.00  0.00     0.259 C 
HETATM    2  N   UNL     1      -2.644   5.965 -33.862  1.00  0.00    -0.323 N 
HETATM    3  O   UNL     1      -1.577   7.908 -33.847  1.00  0.00    -0.267 OA
HETATM    4  H   UNL     1      -2.748   6.249 -34.830  1.00  0.00     0.169 HD
ENDROOT
BRANCH   2   5
HETATM    5  C   UNL     1      -3.337   4.804 -33.492  1.00  0.00     0.035 A 
HETATM    6  C   UNL     1      -2.814   3.752 -32.742  1.00  0.00     0.032 A 
HETATM    7  C   UNL     1      -3.627   2.663 -32.394  1.00  0.00     0.039 A 
HETATM    8  C   UNL     1      -4.970   2.640 -32.764  1.00  0.00     0.069 A 
HETATM    9  C   UNL     1      -5.500   3.672 -33.527  1.00  0.00     0.039 A 
HETATM   10  C   UNL     1      -4.687   4.750 -33.880  1.00  0.00     0.032 A 
BRANCH   8  11
HETATM   11  O   UNL     1      -5.724   1.561 -32.391  1.00  0.00    -0.342 OA
BRANCH  11  12
HETATM   12  C   UNL     1      -4.917   0.405 -32.151  1.00  0.00     0.278 C 
BRANCH  12  13
HETATM   13  C   UNL     1      -5.115  -0.706 -33.184  1.00  0.00     0.241 C 
HETATM   14  N   UNL     1      -6.431  -1.068 -33.381  1.00  0.00    -0.364 N 
HETATM   15  C   UNL     1      -6.794  -2.127 -34.286  1.00  0.00     0.149 C 
HETATM   16  H   UNL     1      -7.105  -0.743 -32.696  1.00  0.00     0.161 HD
HETATM   17  O   UNL     1      -4.178  -1.191 -33.812  1.00  0.00    -0.271 OA
ENDBRANCH  12  13
ENDBRANCH  11  12
ENDBRANCH   8  11
ENDBRANCH   2   5
BRANCH   1  18
HETATM   18  C   UNL     1      -1.342   6.670 -31.886  1.00  0.00     0.076 C 
HETATM   19  C   UNL     1      -0.022   6.261 -31.589  1.00  0.00     0.158 C 
HETATM   20  N   UNL     1       0.262   6.318 -30.287  1.00  0.00    -0.183 NA
HETATM   21  N   UNL     1      -0.844   6.872 -29.746  1.00  0.00    -0.268 N 
HETATM   22  C   UNL     1      -1.887   6.970 -30.645  1.00  0.00     0.052 C 
BRANCH  21  23
HETATM   23  C   UNL     1      -0.827   7.325 -28.353  1.00  0.00     0.106 C 
HETATM   24  C   UNL     1      -0.657   8.844 -28.213  1.00  0.00     0.034 C 
BRANCH  23  25
HETATM   25  C   UNL     1       0.164   6.535 -27.479  1.00  0.00     0.022 C 
HETATM   26  C   UNL     1       1.282   7.359 -26.860  1.00  0.00     0.007 C 
ENDBRANCH  23  25
ENDBRANCH  21  23
BRANCH  22  27
HETATM   27  C   UNL     1      -3.321   7.336 -30.254  1.00  0.00     0.038 A 
HETATM   28  C   UNL     1      -4.511   7.264 -31.172  1.00  0.00     0.011 A 
HETATM   29  C   UNL     1      -4.305   6.185 -30.167  1.00  0.00     0.011 A 
ENDBRANCH  22  27
ENDBRANCH   1  18
TORSDOF 8
ENDMDL
MODEL 8
REMARK VINA RESULT:      -7.1      3.870      7.971
REMARK  8 active torsions:
REMARK  status: ('A' for Active; 'I' for Inactive)
REMARK    1  A    between atoms: C_2  and  C_3 
REMARK    2  A    between atoms: C_3  and  N_4 
REMARK    3  A    between atoms: C_7  and  C_8 
REMARK       I    between atoms: C_8  and  N_9 
REMARK    4  A    between atoms: N_9  and  C_10 
REMARK    5  A    between atoms: C_13  and  O_14 
REMARK    6  A    between atoms: O_14  and  C_15 
REMARK    7  A    between atoms: C_15  and  C_16 
REMARK       I    between atoms: C_16  and  N_17 
REMARK    8  A    between atoms: C_23  and  C_24 
ROOT
HETATM    1  C   UNL     1      -8.277   4.251 -33.885  1.00  0.00     0.259 C 
HETATM    2  N   UNL     1      -7.368   3.240 -33.701  1.00  0.00    -0.323 N 
HETATM    3  O   UNL     1      -7.841   5.402 -33.801  1.00  0.00    -0.267 OA
HETATM    4  H   UNL     1      -6.476   3.643 -33.435  1.00  0.00     0.169 HD
ENDROOT
BRANCH   2   5
HETATM    5  C   UNL     1      -7.377   1.847 -33.869  1.00  0.00     0.035 A 
HETATM    6  C   UNL     1      -7.266   1.178 -35.086  1.00  0.00     0.032 A 
HETATM    7  C   UNL     1      -7.241  -0.225 -35.118  1.00  0.00     0.039 A 
HETATM    8  C   UNL     1      -7.290  -0.958 -33.934  1.00  0.00     0.069 A 
HETATM    9  C   UNL     1      -7.420  -0.304 -32.715  1.00  0.00     0.039 A 
HETATM   10  C   UNL     1      -7.454   1.091 -32.687  1.00  0.00     0.032 A 
BRANCH   8  11
HETATM   11  O   UNL     1      -7.250  -2.322 -34.016  1.00  0.00    -0.342 OA
BRANCH  11  12
HETATM   12  C   UNL     1      -6.277  -2.770 -34.965  1.00  0.00     0.278 C 
BRANCH  12  13
HETATM   13  C   UNL     1      -4.902  -3.039 -34.350  1.00  0.00     0.241 C 
HETATM   14  N   UNL     1      -4.584  -4.375 -34.236  1.00  0.00    -0.364 N 
HETATM   15  C   UNL     1      -3.347  -4.808 -33.639  1.00  0.00     0.149 C 
HETATM   16  H   UNL     1      -5.341  -5.040 -34.354  1.00  0.00     0.161 HD
HETATM   17  O   UNL     1      -4.137  -2.131 -34.034  1.00  0.00    -0.271 OA
ENDBRANCH  12  13
ENDBRANCH  11  12
ENDBRANCH   8  11
ENDBRANCH   2   5
BRANCH   1  18
HETATM   18  C   UNL     1      -9.693   4.005 -34.021  1.00  0.00     0.076 C 
HETATM   19  C   UNL     1     -10.447   4.112 -35.212  1.00  0.00     0.158 C 
HETATM   20  N   UNL     1     -11.686   3.635 -35.090  1.00  0.00    -0.183 NA
HETATM   21  N   UNL     1     -11.705   3.116 -33.844  1.00  0.00    -0.268 N 
HETATM   22  C   UNL     1     -10.579   3.438 -33.113  1.00  0.00     0.052 C 
BRANCH  21  23
HETATM   23  C   UNL     1     -12.829   2.278 -33.418  1.00  0.00     0.106 C 
HETATM   24  C   UNL     1     -13.230   1.228 -34.462  1.00  0.00     0.034 C 
BRANCH  23  25
HETATM   25  C   UNL     1     -14.029   3.100 -32.914  1.00  0.00     0.022 C 
HETATM   26  C   UNL     1     -14.940   2.380 -31.931  1.00  0.00     0.007 C 
ENDBRANCH  23  25
ENDBRANCH  21  23
BRANCH  22  27
HETATM   27  C   UNL     1     -10.434   3.188 -31.610  1.00  0.00     0.038 A 
HETATM   28  C   UNL     1      -9.554   3.982 -30.684  1.00  0.00     0.011 A 
HETATM   29  C   UNL     1     -11.019   4.248 -30.696  1.00  0.00     0.011 A 
ENDBRANCH  22  27
ENDBRANCH   1  18
TORSDOF 8
ENDMDL
MODEL 9
REMARK VINA RESULT:      -7.1      1.715      2.721
REMARK  8 active torsions:
REMARK  status: ('A' for Active; 'I' for Inactive)
REMARK    1  A    between atoms: C_2  and  C_3 
REMARK    2  A    between atoms: C_3  and  N_4 
REMARK    3  A    between atoms: C_7  and  C_8 
REMARK       I    between atoms: C_8  and  N_9 
REMARK    4  A    between atoms: N_9  and  C_10 
REMARK    5  A    between atoms: C_13  and  O_14 
REMARK    6  A    between atoms: O_14  and  C_15 
REMARK    7  A    between atoms: C_15  and  C_16 
REMARK       I    between atoms: C_16  and  N_17 
REMARK    8  A    between atoms: C_23  and  C_24 
ROOT
HETATM    1  C   UNL     1      -5.289   1.132 -30.220  1.00  0.00     0.259 C 
HETATM    2  N   UNL     1      -4.625   2.331 -30.157  1.00  0.00    -0.323 N 
HETATM    3  O   UNL     1      -5.588   0.613 -29.142  1.00  0.00    -0.267 OA
HETATM    4  H   UNL     1      -4.419   2.542 -29.187  1.00  0.00     0.169 HD
ENDROOT
BRANCH   2   5
HETATM    5  C   UNL     1      -4.258   3.318 -31.083  1.00  0.00     0.035 A 
HETATM    6  C   UNL     1      -3.322   3.163 -32.104  1.00  0.00     0.032 A 
HETATM    7  C   UNL     1      -3.076   4.214 -33.000  1.00  0.00     0.039 A 
HETATM    8  C   UNL     1      -3.790   5.407 -32.899  1.00  0.00     0.069 A 
HETATM    9  C   UNL     1      -4.712   5.582 -31.876  1.00  0.00     0.039 A 
HETATM   10  C   UNL     1      -4.948   4.538 -30.980  1.00  0.00     0.032 A 
BRANCH   8  11
HETATM   11  O   UNL     1      -3.523   6.397 -33.803  1.00  0.00    -0.342 OA
BRANCH  11  12
HETATM   12  C   UNL     1      -2.117   6.574 -34.000  1.00  0.00     0.278 C 
BRANCH  12  13
HETATM   13  C   UNL     1      -1.434   7.354 -32.875  1.00  0.00     0.241 C 
HETATM   14  N   UNL     1      -0.444   6.653 -32.220  1.00  0.00    -0.364 N 
HETATM   15  C   UNL     1       0.271   7.221 -31.107  1.00  0.00     0.149 C 
HETATM   16  H   UNL     1      -0.405   5.652 -32.380  1.00  0.00     0.161 HD
HETATM   17  O   UNL     1      -1.721   8.520 -32.619  1.00  0.00    -0.271 OA
ENDBRANCH  12  13
ENDBRANCH  11  12
ENDBRANCH   8  11
ENDBRANCH   2   5
BRANCH   1  18
HETATM   18  C   UNL     1      -5.500   0.428 -31.463  1.00  0.00     0.076 C 
HETATM   19  C   UNL     1      -4.601  -0.477 -32.073  1.00  0.00     0.158 C 
HETATM   20  N   UNL     1      -5.135  -1.128 -33.106  1.00  0.00    -0.183 NA
HETATM   21  N   UNL     1      -6.424  -0.726 -33.102  1.00  0.00    -0.268 N 
HETATM   22  C   UNL     1      -6.657   0.314 -32.224  1.00  0.00     0.052 C 
BRANCH  21  23
HETATM   23  C   UNL     1      -7.405  -1.409 -33.948  1.00  0.00     0.106 C 
HETATM   24  C   UNL     1      -7.027  -2.863 -34.261  1.00  0.00     0.034 C 
BRANCH  23  25
HETATM   25  C   UNL     1      -7.768  -0.606 -35.211  1.00  0.00     0.022 C 
HETATM   26  C   UNL     1      -6.889   0.605 -35.483  1.00  0.00     0.007 C 
ENDBRANCH  23  25
ENDBRANCH  21  23
BRANCH  22  27
HETATM   27  C   UNL     1      -7.957   1.120 -32.179  1.00  0.00     0.038 A 
HETATM   28  C   UNL     1      -8.257   2.220 -31.197  1.00  0.00     0.011 A 
HETATM   29  C   UNL     1      -7.854   2.578 -32.585  1.00  0.00     0.011 A 
ENDBRANCH  22  27
ENDBRANCH   1  18
TORSDOF 8
ENDMDL
MODEL 10
REMARK VINA RESULT:      -7.0      2.813      4.200
REMARK  8 active torsions:
REMARK  status: ('A' for Active; 'I' for Inactive)
REMARK    1  A    between atoms: C_2  and  C_3 
REMARK    2  A    between atoms: C_3  and  N_4 
REMARK    3  A    between atoms: C_7  and  C_8 
REMARK       I    between atoms: C_8  and  N_9 
REMARK    4  A    between atoms: N_9  and  C_10 
REMARK    5  A    between atoms: C_13  and  O_14 
REMARK    6  A    between atoms: O_14  and  C_15 
REMARK    7  A    between atoms: C_15  and  C_16 
REMARK       I    between atoms: C_16  and  N_17 
REMARK    8  A    between atoms: C_23  and  C_24 
ROOT
HETATM    1  C   UNL     1      -5.627   1.661 -30.414  1.00  0.00     0.259 C 
HETATM    2  N   UNL     1      -4.503   2.436 -30.556  1.00  0.00    -0.323 N 
HETATM    3  O   UNL     1      -5.730   1.033 -29.357  1.00  0.00    -0.267 OA
HETATM    4  H   UNL     1      -3.893   2.278 -29.762  1.00  0.00     0.169 HD
ENDROOT
BRANCH   2   5
HETATM    5  C   UNL     1      -4.071   3.408 -31.470  1.00  0.00     0.035 A 
HETATM    6  C   UNL     1      -3.116   3.215 -32.467  1.00  0.00     0.032 A 
HETATM    7  C   UNL     1      -2.804   4.257 -33.353  1.00  0.00     0.039 A 
HETATM    8  C   UNL     1      -3.470   5.478 -33.268  1.00  0.00     0.069 A 
HETATM    9  C   UNL     1      -4.410   5.690 -32.268  1.00  0.00     0.039 A 
HETATM   10  C   UNL     1      -4.712   4.656 -31.381  1.00  0.00     0.032 A 
BRANCH   8  11
HETATM   11  O   UNL     1      -3.138   6.458 -34.162  1.00  0.00    -0.342 OA
BRANCH  11  12
HETATM   12  C   UNL     1      -1.746   6.784 -34.103  1.00  0.00     0.278 C 
BRANCH  12  13
HETATM   13  C   UNL     1      -1.338   7.489 -32.807  1.00  0.00     0.241 C 
HETATM   14  N   UNL     1      -0.470   6.765 -32.018  1.00  0.00    -0.364 N 
HETATM   15  C   UNL     1      -0.017   7.259 -30.744  1.00  0.00     0.149 C 
HETATM   16  H   UNL     1      -0.356   5.781 -32.241  1.00  0.00     0.161 HD
HETATM   17  O   UNL     1      -1.720   8.622 -32.529  1.00  0.00    -0.271 OA
ENDBRANCH  12  13
ENDBRANCH  11  12
ENDBRANCH   8  11
ENDBRANCH   2   5
BRANCH   1  18
HETATM   18  C   UNL     1      -6.572   1.461 -31.488  1.00  0.00     0.076 C 
HETATM   19  C   UNL     1      -6.389   0.627 -32.614  1.00  0.00     0.158 C 
HETATM   20  N   UNL     1      -7.497   0.479 -33.340  1.00  0.00    -0.183 NA
HETATM   21  N   UNL     1      -8.435   1.132 -32.622  1.00  0.00    -0.268 N 
HETATM   22  C   UNL     1      -7.900   1.857 -31.576  1.00  0.00     0.052 C 
BRANCH  21  23
HETATM   23  C   UNL     1      -9.851   0.993 -32.971  1.00  0.00     0.106 C 
HETATM   24  C   UNL     1     -10.392  -0.426 -32.752  1.00  0.00     0.034 C 
BRANCH  23  25
HETATM   25  C   UNL     1     -10.178   1.541 -34.373  1.00  0.00     0.022 C 
HETATM   26  C   UNL     1     -10.488   3.029 -34.430  1.00  0.00     0.007 C 
ENDBRANCH  23  25
ENDBRANCH  21  23
BRANCH  22  27
HETATM   27  C   UNL     1      -8.690   2.872 -30.746  1.00  0.00     0.038 A 
HETATM   28  C   UNL     1      -8.095   4.064 -30.047  1.00  0.00     0.011 A 
HETATM   29  C   UNL     1      -8.815   4.264 -31.334  1.00  0.00     0.011 A 
ENDBRANCH  22  27
ENDBRANCH   1  18
TORSDOF 8
ENDMDL
