MODEL 1
REMARK VINA RESULT:      -8.0      0.000      0.000
REMARK  5 active torsions:
REMARK  status: ('A' for Active; 'I' for Inactive)
REMARK    1  A    between atoms: C_8  and  N_9 
REMARK    2  A    between atoms: N_9  and  C_10 
REMARK    3  A    between atoms: C_10  and  C_11 
REMARK    4  A    between atoms: C_11  and  N_12 
REMARK       I    between atoms: N_12  and  C_13 
REMARK    5  A    between atoms: C_13  and  C_14 
ROOT
HETATM    1  C   UNL     1      -6.374  -4.537 -35.178  1.00  0.00     0.048 C 
HETATM    2  C   UNL     1      -5.987  -3.167 -34.694  1.00  0.00    -0.061 A 
HETATM    3  C   UNL     1      -6.919  -2.120 -34.691  1.00  0.00     0.020 A 
HETATM    4  C   UNL     1      -6.566  -0.846 -34.217  1.00  0.00    -0.008 A 
HETATM    5  C   UNL     1      -5.261  -0.633 -33.734  1.00  0.00     0.043 A 
HETATM    6  N   UNL     1      -4.919   0.587 -33.289  1.00  0.00    -0.346 N 
HETATM    7  H   UNL     1      -3.975   0.699 -32.938  1.00  0.00     0.167 HD
HETATM    8  C   UNL     1      -5.734   1.656 -33.281  1.00  0.00     0.086 A 
HETATM    9  C   UNL     1      -7.064   1.478 -33.711  1.00  0.00    -0.023 A 
HETATM   10  C   UNL     1      -8.062   2.605 -33.706  1.00  0.00     0.052 C 
HETATM   11  C   UNL     1      -7.462   0.226 -34.200  1.00  0.00     0.023 A 
HETATM   12  C   UNL     1      -4.334  -1.681 -33.721  1.00  0.00     0.031 A 
HETATM   13  C   UNL     1      -4.698  -2.942 -34.197  1.00  0.00     0.009 A 
ENDROOT
BRANCH   8  14
HETATM   14  N   UNL     1      -5.300   2.887 -32.779  1.00  0.00    -0.277 NA
HETATM   15  H   UNL     1      -4.764   3.401 -33.481  1.00  0.00     0.129 HD
BRANCH  14  16
HETATM   16  C   UNL     1      -4.673   2.923 -31.458  1.00  0.00     0.113 C 
BRANCH  16  17
HETATM   17  C   UNL     1      -3.153   3.121 -31.515  1.00  0.00     0.137 C 
BRANCH  17  18
HETATM   18  N   UNL     1      -2.660   3.975 -32.593  1.00  0.00    -0.360 N 
HETATM   19  C   UNL     1      -1.529   4.766 -32.542  1.00  0.00     0.221 C 
HETATM   20  O   UNL     1      -0.748   4.759 -31.593  1.00  0.00    -0.273 OA
HETATM   21  H   UNL     1      -3.258   4.065 -33.407  1.00  0.00     0.162 HD
BRANCH  19  22
HETATM   22  C   UNL     1      -1.332   5.644 -33.778  1.00  0.00     0.070 C 
HETATM   23  C   UNL     1      -2.211   5.154 -34.927  1.00  0.00     0.019 C 
HETATM   24  C   UNL     1      -1.643   7.107 -33.461  1.00  0.00     0.019 C 
ENDBRANCH  19  22
ENDBRANCH  17  18
ENDBRANCH  16  17
ENDBRANCH  14  16
ENDBRANCH   8  14
TORSDOF 5
ENDMDL
MODEL 2
REMARK VINA RESULT:      -7.8      1.693      2.665
REMARK  5 active torsions:
REMARK  status: ('A' for Active; 'I' for Inactive)
REMARK    1  A    between atoms: C_8  and  N_9 
REMARK    2  A    between atoms: N_9  and  C_10 
REMARK    3  A    between atoms: C_10  and  C_11 
REMARK    4  A    between atoms: C_11  and  N_12 
REMARK       I    between atoms: N_12  and  C_13 
REMARK    5  A    between atoms: C_13  and  C_14 
ROOT
HETATM    1  C   UNL     1      -5.099  -5.001 -34.978  1.00  0.00     0.048 C 
HETATM    2  C   UNL     1      -5.487  -3.610 -34.563  1.00  0.00    -0.061 A 
HETATM    3  C   UNL     1      -4.561  -2.768 -33.931  1.00  0.00     0.020 A 
HETATM    4  C   UNL     1      -4.915  -1.459 -33.563  1.00  0.00    -0.008 A 
HETATM    5  C   UNL     1      -6.213  -0.997 -33.847  1.00  0.00     0.043 A 
HETATM    6  N   UNL     1      -6.556   0.251 -33.489  1.00  0.00    -0.346 N 
HETATM    7  H   UNL     1      -7.495   0.554 -33.720  1.00  0.00     0.167 HD
HETATM    8  C   UNL     1      -5.747   1.114 -32.848  1.00  0.00     0.086 A 
HETATM    9  C   UNL     1      -4.423   0.711 -32.587  1.00  0.00    -0.023 A 
HETATM   10  C   UNL     1      -3.432   1.618 -31.908  1.00  0.00     0.052 C 
HETATM   11  C   UNL     1      -4.024  -0.589 -32.928  1.00  0.00     0.023 A 
HETATM   12  C   UNL     1      -7.134  -1.830 -34.493  1.00  0.00     0.031 A 
HETATM   13  C   UNL     1      -6.769  -3.128 -34.850  1.00  0.00     0.009 A 
ENDROOT
BRANCH   8  14
HETATM   14  N   UNL     1      -6.182   2.406 -32.531  1.00  0.00    -0.277 NA
HETATM   15  H   UNL     1      -6.794   2.396 -31.713  1.00  0.00     0.129 HD
BRANCH  14  16
HETATM   16  C   UNL     1      -6.693   3.257 -33.605  1.00  0.00     0.113 C 
BRANCH  16  17
HETATM   17  C   UNL     1      -5.965   4.603 -33.708  1.00  0.00     0.137 C 
BRANCH  17  18
HETATM   18  N   UNL     1      -4.520   4.565 -33.493  1.00  0.00    -0.360 N 
HETATM   19  C   UNL     1      -3.560   4.963 -34.403  1.00  0.00     0.221 C 
HETATM   20  O   UNL     1      -3.833   5.494 -35.477  1.00  0.00    -0.273 OA
HETATM   21  H   UNL     1      -4.201   4.115 -32.642  1.00  0.00     0.162 HD
BRANCH  19  22
HETATM   22  C   UNL     1      -2.126   4.693 -33.947  1.00  0.00     0.070 C 
HETATM   23  C   UNL     1      -1.139   5.517 -34.771  1.00  0.00     0.019 C 
HETATM   24  C   UNL     1      -1.961   5.003 -32.459  1.00  0.00     0.019 C 
ENDBRANCH  19  22
ENDBRANCH  17  18
ENDBRANCH  16  17
ENDBRANCH  14  16
ENDBRANCH   8  14
TORSDOF 5
ENDMDL
MODEL 3
REMARK VINA RESULT:      -7.8      4.742      7.574
REMARK  5 active torsions:
REMARK  status: ('A' for Active; 'I' for Inactive)
REMARK    1  A    between atoms: C_8  and  N_9 
REMARK    2  A    between atoms: N_9  and  C_10 
REMARK    3  A    between atoms: C_10  and  C_11 
REMARK    4  A    between atoms: C_11  and  N_12 
REMARK       I    between atoms: N_12  and  C_13 
REMARK    5  A    between atoms: C_13  and  C_14 
ROOT
HETATM    1  C   UNL     1      -3.366  -4.900 -33.911  1.00  0.00     0.048 C 
HETATM    2  C   UNL     1      -4.503  -3.942 -34.127  1.00  0.00    -0.061 A 
HETATM    3  C   UNL     1      -4.359  -2.581 -33.824  1.00  0.00     0.020 A 
HETATM    4  C   UNL     1      -5.413  -1.680 -34.047  1.00  0.00    -0.008 A 
HETATM    5  C   UNL     1      -6.618  -2.159 -34.592  1.00  0.00     0.043 A 
HETATM    6  N   UNL     1      -7.630  -1.301 -34.799  1.00  0.00    -0.346 N 
HETATM    7  H   UNL     1      -8.479  -1.680 -35.203  1.00  0.00     0.167 HD
HETATM    8  C   UNL     1      -7.595   0.011 -34.505  1.00  0.00     0.086 A 
HETATM    9  C   UNL     1      -6.392   0.544 -34.003  1.00  0.00    -0.023 A 
HETATM   10  C   UNL     1      -6.241   2.006 -33.678  1.00  0.00     0.052 C 
HETATM   11  C   UNL     1      -5.313  -0.317 -33.756  1.00  0.00     0.023 A 
HETATM   12  C   UNL     1      -6.759  -3.515 -34.912  1.00  0.00     0.031 A 
HETATM   13  C   UNL     1      -5.704  -4.399 -34.682  1.00  0.00     0.009 A 
ENDROOT
BRANCH   8  14
HETATM   14  N   UNL     1      -8.691   0.837 -34.774  1.00  0.00    -0.277 NA
HETATM   15  H   UNL     1      -8.390   1.796 -34.959  1.00  0.00     0.129 HD
BRANCH  14  16
HETATM   16  C   UNL     1      -9.850   0.775 -33.884  1.00  0.00     0.113 C 
BRANCH  16  17
HETATM   17  C   UNL     1     -11.042   1.601 -34.386  1.00  0.00     0.137 C 
BRANCH  17  18
HETATM   18  N   UNL     1     -12.094   1.863 -33.407  1.00  0.00    -0.360 N 
HETATM   19  C   UNL     1     -13.453   1.830 -33.656  1.00  0.00     0.221 C 
HETATM   20  O   UNL     1     -13.929   1.472 -34.731  1.00  0.00    -0.273 OA
HETATM   21  H   UNL     1     -11.793   2.194 -32.497  1.00  0.00     0.162 HD
BRANCH  19  22
HETATM   22  C   UNL     1     -14.309   2.268 -32.468  1.00  0.00     0.070 C 
HETATM   23  C   UNL     1     -14.156   3.768 -32.224  1.00  0.00     0.019 C 
HETATM   24  C   UNL     1     -15.779   1.917 -32.699  1.00  0.00     0.019 C 
ENDBRANCH  19  22
ENDBRANCH  17  18
ENDBRANCH  16  17
ENDBRANCH  14  16
ENDBRANCH   8  14
TORSDOF 5
ENDMDL
MODEL 4
REMARK VINA RESULT:      -7.7      3.421      6.214
REMARK  5 active torsions:
REMARK  status: ('A' for Active; 'I' for Inactive)
REMARK    1  A    between atoms: C_8  and  N_9 
REMARK    2  A    between atoms: N_9  and  C_10 
REMARK    3  A    between atoms: C_10  and  C_11 
REMARK    4  A    between atoms: C_11  and  N_12 
REMARK       I    between atoms: N_12  and  C_13 
REMARK    5  A    between atoms: C_13  and  C_14 
ROOT
HETATM    1  C   UNL     1      -3.933  -4.637 -34.211  1.00  0.00     0.048 C 
HETATM    2  C   UNL     1      -4.735  -3.369 -34.135  1.00  0.00    -0.061 A 
HETATM    3  C   UNL     1      -4.209  -2.227 -33.513  1.00  0.00     0.020 A 
HETATM    4  C   UNL     1      -4.948  -1.034 -33.461  1.00  0.00    -0.008 A 
HETATM    5  C   UNL     1      -6.225  -0.993 -34.052  1.00  0.00     0.043 A 
HETATM    6  N   UNL     1      -6.936   0.145 -33.996  1.00  0.00    -0.346 N 
HETATM    7  H   UNL     1      -7.845   0.140 -34.442  1.00  0.00     0.167 HD
HETATM    8  C   UNL     1      -6.528   1.274 -33.391  1.00  0.00     0.086 A 
HETATM    9  C   UNL     1      -5.237   1.294 -32.827  1.00  0.00    -0.023 A 
HETATM   10  C   UNL     1      -4.677   2.522 -32.160  1.00  0.00     0.052 C 
HETATM   11  C   UNL     1      -4.464   0.125 -32.848  1.00  0.00     0.023 A 
HETATM   12  C   UNL     1      -6.745  -2.126 -34.688  1.00  0.00     0.031 A 
HETATM   13  C   UNL     1      -6.000  -3.306 -34.730  1.00  0.00     0.009 A 
ENDROOT
BRANCH   8  14
HETATM   14  N   UNL     1      -7.327   2.422 -33.399  1.00  0.00    -0.277 NA
HETATM   15  H   UNL     1      -6.828   3.214 -33.807  1.00  0.00     0.129 HD
BRANCH  14  16
HETATM   16  C   UNL     1      -8.048   2.783 -32.178  1.00  0.00     0.113 C 
BRANCH  16  17
HETATM   17  C   UNL     1      -8.958   1.661 -31.660  1.00  0.00     0.137 C 
BRANCH  17  18
HETATM   18  N   UNL     1     -10.310   1.630 -32.211  1.00  0.00    -0.360 N 
HETATM   19  C   UNL     1     -10.664   1.143 -33.454  1.00  0.00     0.221 C 
HETATM   20  O   UNL     1      -9.869   0.583 -34.206  1.00  0.00    -0.273 OA
HETATM   21  H   UNL     1     -11.029   2.098 -31.670  1.00  0.00     0.162 HD
BRANCH  19  22
HETATM   22  C   UNL     1     -12.136   1.355 -33.806  1.00  0.00     0.070 C 
HETATM   23  C   UNL     1     -12.272   1.915 -35.220  1.00  0.00     0.019 C 
HETATM   24  C   UNL     1     -12.920   0.049 -33.677  1.00  0.00     0.019 C 
ENDBRANCH  19  22
ENDBRANCH  17  18
ENDBRANCH  16  17
ENDBRANCH  14  16
ENDBRANCH   8  14
TORSDOF 5
ENDMDL
MODEL 5
REMARK VINA RESULT:      -7.2      1.778      2.378
REMARK  5 active torsions:
REMARK  status: ('A' for Active; 'I' for Inactive)
REMARK    1  A    between atoms: C_8  and  N_9 
REMARK    2  A    between atoms: N_9  and  C_10 
REMARK    3  A    between atoms: C_10  and  C_11 
REMARK    4  A    between atoms: C_11  and  N_12 
REMARK       I    between atoms: N_12  and  C_13 
REMARK    5  A    between atoms: C_13  and  C_14 
ROOT
HETATM    1  C   UNL     1      -4.510  -3.586 -34.501  1.00  0.00     0.048 C 
HETATM    2  C   UNL     1      -4.976  -2.203 -34.140  1.00  0.00    -0.061 A 
HETATM    3  C   UNL     1      -6.289  -1.797 -34.415  1.00  0.00     0.020 A 
HETATM    4  C   UNL     1      -6.733  -0.513 -34.057  1.00  0.00    -0.008 A 
HETATM    5  C   UNL     1      -5.844   0.361 -33.406  1.00  0.00     0.043 A 
HETATM    6  N   UNL     1      -6.264   1.592 -33.070  1.00  0.00    -0.346 N 
HETATM    7  H   UNL     1      -5.600   2.189 -32.593  1.00  0.00     0.167 HD
HETATM    8  C   UNL     1      -7.491   2.079 -33.326  1.00  0.00     0.086 A 
HETATM    9  C   UNL     1      -8.430   1.222 -33.933  1.00  0.00    -0.023 A 
HETATM   10  C   UNL     1      -9.839   1.662 -34.227  1.00  0.00     0.052 C 
HETATM   11  C   UNL     1      -8.032  -0.067 -34.316  1.00  0.00     0.023 A 
HETATM   12  C   UNL     1      -4.537  -0.048 -33.115  1.00  0.00     0.031 A 
HETATM   13  C   UNL     1      -4.109  -1.326 -33.479  1.00  0.00     0.009 A 
ENDROOT
BRANCH   8  14
HETATM   14  N   UNL     1      -7.851   3.369 -32.922  1.00  0.00    -0.277 NA
HETATM   15  H   UNL     1      -8.778   3.373 -32.493  1.00  0.00     0.129 HD
BRANCH  14  16
HETATM   16  C   UNL     1      -7.660   4.476 -33.858  1.00  0.00     0.113 C 
BRANCH  16  17
HETATM   17  C   UNL     1      -6.601   5.484 -33.394  1.00  0.00     0.137 C 
BRANCH  17  18
HETATM   18  N   UNL     1      -5.223   5.183 -33.772  1.00  0.00    -0.360 N 
HETATM   19  C   UNL     1      -4.322   4.452 -33.021  1.00  0.00     0.221 C 
HETATM   20  O   UNL     1      -4.627   3.884 -31.975  1.00  0.00    -0.273 OA
HETATM   21  H   UNL     1      -4.875   5.636 -34.610  1.00  0.00     0.162 HD
BRANCH  19  22
HETATM   22  C   UNL     1      -2.915   4.406 -33.616  1.00  0.00     0.070 C 
HETATM   23  C   UNL     1      -2.760   5.466 -34.704  1.00  0.00     0.019 C 
HETATM   24  C   UNL     1      -1.858   4.604 -32.530  1.00  0.00     0.019 C 
ENDBRANCH  19  22
ENDBRANCH  17  18
ENDBRANCH  16  17
ENDBRANCH  14  16
ENDBRANCH   8  14
TORSDOF 5
ENDMDL
MODEL 6
REMARK VINA RESULT:      -7.1      4.305      6.041
REMARK  5 active torsions:
REMARK  status: ('A' for Active; 'I' for Inactive)
REMARK    1  A    between atoms: C_8  and  N_9 
REMARK    2  A    between atoms: N_9  and  C_10 
REMARK    3  A    between atoms: C_10  and  C_11 
REMARK    4  A    between atoms: C_11  and  N_12 
REMARK       I    between atoms: N_12  and  C_13 
REMARK    5  A    between atoms: C_13  and  C_14 
ROOT
HETATM    1  C   UNL     1      -3.216  -4.897 -33.872  1.00  0.00     0.048 C 
HETATM    2  C   UNL     1      -3.837  -3.579 -33.504  1.00  0.00    -0.061 A 
HETATM    3  C   UNL     1      -4.935  -3.082 -34.220  1.00  0.00     0.020 A 
HETATM    4  C   UNL     1      -5.531  -1.861 -33.863  1.00  0.00    -0.008 A 
HETATM    5  C   UNL     1      -5.018  -1.144 -32.766  1.00  0.00     0.043 A 
HETATM    6  N   UNL     1      -5.582   0.027 -32.428  1.00  0.00    -0.346 N 
HETATM    7  H   UNL     1      -5.193   0.509 -31.626  1.00  0.00     0.167 HD
HETATM    8  C   UNL     1      -6.612   0.597 -33.078  1.00  0.00     0.086 A 
HETATM    9  C   UNL     1      -7.188  -0.107 -34.153  1.00  0.00    -0.023 A 
HETATM   10  C   UNL     1      -8.367   0.430 -34.919  1.00  0.00     0.052 C 
HETATM   11  C   UNL     1      -6.624  -1.327 -34.552  1.00  0.00     0.023 A 
HETATM   12  C   UNL     1      -3.933  -1.647 -32.039  1.00  0.00     0.031 A 
HETATM   13  C   UNL     1      -3.349  -2.860 -32.407  1.00  0.00     0.009 A 
ENDROOT
BRANCH   8  14
HETATM   14  N   UNL     1      -7.151   1.813 -32.644  1.00  0.00    -0.277 NA
HETATM   15  H   UNL     1      -6.430   2.535 -32.588  1.00  0.00     0.129 HD
BRANCH  14  16
HETATM   16  C   UNL     1      -8.034   1.811 -31.478  1.00  0.00     0.113 C 
BRANCH  16  17
HETATM   17  C   UNL     1      -9.096   2.917 -31.523  1.00  0.00     0.137 C 
BRANCH  17  18
HETATM   18  N   UNL     1     -10.412   2.519 -32.016  1.00  0.00    -0.360 N 
HETATM   19  C   UNL     1     -10.900   2.747 -33.288  1.00  0.00     0.221 C 
HETATM   20  O   UNL     1     -10.222   3.236 -34.189  1.00  0.00    -0.273 OA
HETATM   21  H   UNL     1     -11.053   2.133 -31.331  1.00  0.00     0.162 HD
BRANCH  19  22
HETATM   22  C   UNL     1     -12.357   2.326 -33.477  1.00  0.00     0.070 C 
HETATM   23  C   UNL     1     -13.008   3.139 -34.594  1.00  0.00     0.019 C 
HETATM   24  C   UNL     1     -12.457   0.832 -33.783  1.00  0.00     0.019 C 
ENDBRANCH  19  22
ENDBRANCH  17  18
ENDBRANCH  16  17
ENDBRANCH  14  16
ENDBRANCH   8  14
TORSDOF 5
ENDMDL
MODEL 7
REMARK VINA RESULT:      -7.1      3.898      4.929
REMARK  5 active torsions:
REMARK  status: ('A' for Active; 'I' for Inactive)
REMARK    1  A    between atoms: C_8  and  N_9 
REMARK    2  A    between atoms: N_9  and  C_10 
REMARK    3  A    between atoms: C_10  and  C_11 
REMARK    4  A    between atoms: C_11  and  N_12 
REMARK       I    between atoms: N_12  and  C_13 
REMARK    5  A    between atoms: C_13  and  C_14 
ROOT
HETATM    1  C   UNL     1      -3.393  -4.918 -33.860  1.00  0.00     0.048 C 
HETATM    2  C   UNL     1      -4.488  -3.915 -34.091  1.00  0.00    -0.061 A 
HETATM    3  C   UNL     1      -4.315  -2.572 -33.727  1.00  0.00     0.020 A 
HETATM    4  C   UNL     1      -5.329  -1.629 -33.964  1.00  0.00    -0.008 A 
HETATM    5  C   UNL     1      -6.521  -2.047 -34.582  1.00  0.00     0.043 A 
HETATM    6  N   UNL     1      -7.495  -1.148 -34.802  1.00  0.00    -0.346 N 
HETATM    7  H   UNL     1      -8.334  -1.483 -35.259  1.00  0.00     0.167 HD
HETATM    8  C   UNL     1      -7.431   0.150 -34.455  1.00  0.00     0.086 A 
HETATM    9  C   UNL     1      -6.237   0.624 -33.877  1.00  0.00    -0.023 A 
HETATM   10  C   UNL     1      -6.056   2.066 -33.489  1.00  0.00     0.052 C 
HETATM   11  C   UNL     1      -5.200  -0.281 -33.614  1.00  0.00     0.023 A 
HETATM   12  C   UNL     1      -6.690  -3.383 -34.961  1.00  0.00     0.031 A 
HETATM   13  C   UNL     1      -5.675  -4.310 -34.718  1.00  0.00     0.009 A 
ENDROOT
BRANCH   8  14
HETATM   14  N   UNL     1      -8.487   1.023 -34.742  1.00  0.00    -0.277 NA
HETATM   15  H   UNL     1      -8.146   1.975 -34.886  1.00  0.00     0.129 HD
BRANCH  14  16
HETATM   16  C   UNL     1      -9.683   0.975 -33.901  1.00  0.00     0.113 C 
BRANCH  16  17
HETATM   17  C   UNL     1     -10.165   2.363 -33.458  1.00  0.00     0.137 C 
BRANCH  17  18
HETATM   18  N   UNL     1      -9.191   3.177 -32.736  1.00  0.00    -0.360 N 
HETATM   19  C   UNL     1      -9.079   3.272 -31.362  1.00  0.00     0.221 C 
HETATM   20  O   UNL     1      -9.744   2.588 -30.586  1.00  0.00    -0.273 OA
HETATM   21  H   UNL     1      -8.617   3.798 -33.296  1.00  0.00     0.162 HD
BRANCH  19  22
HETATM   22  C   UNL     1      -8.047   4.298 -30.894  1.00  0.00     0.070 C 
HETATM   23  C   UNL     1      -6.871   3.600 -30.215  1.00  0.00     0.019 C 
HETATM   24  C   UNL     1      -7.553   5.146 -32.066  1.00  0.00     0.019 C 
ENDBRANCH  19  22
ENDBRANCH  17  18
ENDBRANCH  16  17
ENDBRANCH  14  16
ENDBRANCH   8  14
TORSDOF 5
ENDMDL
MODEL 8
REMARK VINA RESULT:      -7.0      2.869      6.136
REMARK  5 active torsions:
REMARK  status: ('A' for Active; 'I' for Inactive)
REMARK    1  A    between atoms: C_8  and  N_9 
REMARK    2  A    between atoms: N_9  and  C_10 
REMARK    3  A    between atoms: C_10  and  C_11 
REMARK    4  A    between atoms: C_11  and  N_12 
REMARK       I    between atoms: N_12  and  C_13 
REMARK    5  A    between atoms: C_13  and  C_14 
ROOT
HETATM    1  C   UNL     1     -11.742   1.731 -34.614  1.00  0.00     0.048 C 
HETATM    2  C   UNL     1     -10.397   1.502 -33.983  1.00  0.00    -0.061 A 
HETATM    3  C   UNL     1      -9.354   2.420 -34.172  1.00  0.00     0.020 A 
HETATM    4  C   UNL     1      -8.103   2.219 -33.564  1.00  0.00    -0.008 A 
HETATM    5  C   UNL     1      -7.912   1.088 -32.750  1.00  0.00     0.043 A 
HETATM    6  N   UNL     1      -6.714   0.891 -32.175  1.00  0.00    -0.346 N 
HETATM    7  H   UNL     1      -6.617   0.072 -31.586  1.00  0.00     0.167 HD
HETATM    8  C   UNL     1      -5.648   1.696 -32.329  1.00  0.00     0.086 A 
HETATM    9  C   UNL     1      -5.808   2.866 -33.096  1.00  0.00    -0.023 A 
HETATM   10  C   UNL     1      -4.685   3.848 -33.296  1.00  0.00     0.052 C 
HETATM   11  C   UNL     1      -7.035   3.106 -33.729  1.00  0.00     0.023 A 
HETATM   12  C   UNL     1      -8.957   0.180 -32.546  1.00  0.00     0.031 A 
HETATM   13  C   UNL     1     -10.193   0.390 -33.159  1.00  0.00     0.009 A 
ENDROOT
BRANCH   8  14
HETATM   14  N   UNL     1      -4.442   1.424 -31.673  1.00  0.00    -0.277 NA
HETATM   15  H   UNL     1      -3.976   2.288 -31.390  1.00  0.00     0.129 HD
BRANCH  14  16
HETATM   16  C   UNL     1      -3.520   0.460 -32.273  1.00  0.00     0.113 C 
BRANCH  16  17
HETATM   17  C   UNL     1      -3.720  -0.970 -31.755  1.00  0.00     0.137 C 
BRANCH  17  18
HETATM   18  N   UNL     1      -3.749  -2.019 -32.771  1.00  0.00    -0.360 N 
HETATM   19  C   UNL     1      -4.750  -2.211 -33.704  1.00  0.00     0.221 C 
HETATM   20  O   UNL     1      -5.696  -1.439 -33.841  1.00  0.00    -0.273 OA
HETATM   21  H   UNL     1      -3.019  -2.721 -32.716  1.00  0.00     0.162 HD
BRANCH  19  22
HETATM   22  C   UNL     1      -4.566  -3.465 -34.559  1.00  0.00     0.070 C 
HETATM   23  C   UNL     1      -3.709  -4.492 -33.823  1.00  0.00     0.019 C 
HETATM   24  C   UNL     1      -5.919  -4.073 -34.930  1.00  0.00     0.019 C 
ENDBRANCH  19  22
ENDBRANCH  17  18
ENDBRANCH  16  17
ENDBRANCH  14  16
ENDBRANCH   8  14
TORSDOF 5
ENDMDL
MODEL 9
REMARK VINA RESULT:      -7.0      4.538      7.948
REMARK  5 active torsions:
REMARK  status: ('A' for Active; 'I' for Inactive)
REMARK    1  A    between atoms: C_8  and  N_9 
REMARK    2  A    between atoms: N_9  and  C_10 
REMARK    3  A    between atoms: C_10  and  C_11 
REMARK    4  A    between atoms: C_11  and  N_12 
REMARK       I    between atoms: N_12  and  C_13 
REMARK    5  A    between atoms: C_13  and  C_14 
ROOT
HETATM    1  C   UNL     1     -15.962   2.196 -32.426  1.00  0.00     0.048 C 
HETATM    2  C   UNL     1     -14.567   1.904 -32.904  1.00  0.00    -0.061 A 
HETATM    3  C   UNL     1     -13.555   2.867 -32.786  1.00  0.00     0.020 A 
HETATM    4  C   UNL     1     -12.246   2.588 -33.212  1.00  0.00    -0.008 A 
HETATM    5  C   UNL     1     -11.958   1.321 -33.751  1.00  0.00     0.043 A 
HETATM    6  N   UNL     1     -10.708   1.055 -34.165  1.00  0.00    -0.346 N 
HETATM    7  H   UNL     1     -10.535   0.128 -34.537  1.00  0.00     0.167 HD
HETATM    8  C   UNL     1      -9.685   1.927 -34.124  1.00  0.00     0.086 A 
HETATM    9  C   UNL     1      -9.916   3.191 -33.548  1.00  0.00    -0.023 A 
HETATM   10  C   UNL     1      -8.827   4.222 -33.423  1.00  0.00     0.052 C 
HETATM   11  C   UNL     1     -11.208   3.520 -33.116  1.00  0.00     0.023 A 
HETATM   12  C   UNL     1     -12.962   0.352 -33.854  1.00  0.00     0.031 A 
HETATM   13  C   UNL     1     -14.259   0.644 -33.430  1.00  0.00     0.009 A 
ENDROOT
BRANCH   8  14
HETATM   14  N   UNL     1      -8.408   1.557 -34.560  1.00  0.00    -0.277 NA
HETATM   15  H   UNL     1      -8.053   2.217 -35.254  1.00  0.00     0.129 HD
BRANCH  14  16
HETATM   16  C   UNL     1      -8.172   0.164 -34.937  1.00  0.00     0.113 C 
BRANCH  16  17
HETATM   17  C   UNL     1      -6.767  -0.331 -34.571  1.00  0.00     0.137 C 
BRANCH  17  18
HETATM   18  N   UNL     1      -6.500  -1.744 -34.830  1.00  0.00    -0.360 N 
HETATM   19  C   UNL     1      -5.324  -2.409 -34.541  1.00  0.00     0.221 C 
HETATM   20  O   UNL     1      -4.392  -1.888 -33.932  1.00  0.00    -0.273 OA
HETATM   21  H   UNL     1      -7.205  -2.248 -35.357  1.00  0.00     0.162 HD
BRANCH  19  22
HETATM   22  C   UNL     1      -5.292  -3.854 -35.038  1.00  0.00     0.070 C 
HETATM   23  C   UNL     1      -4.453  -4.722 -34.102  1.00  0.00     0.019 C 
HETATM   24  C   UNL     1      -6.707  -4.420 -35.157  1.00  0.00     0.019 C 
ENDBRANCH  19  22
ENDBRANCH  17  18
ENDBRANCH  16  17
ENDBRANCH  14  16
ENDBRANCH   8  14
TORSDOF 5
ENDMDL
MODEL 10
REMARK VINA RESULT:      -7.0      4.349      6.173
REMARK  5 active torsions:
REMARK  status: ('A' for Active; 'I' for Inactive)
REMARK    1  A    between atoms: C_8  and  N_9 
REMARK    2  A    between atoms: N_9  and  C_10 
REMARK    3  A    between atoms: C_10  and  C_11 
REMARK    4  A    between atoms: C_11  and  N_12 
REMARK       I    between atoms: N_12  and  C_13 
REMARK    5  A    between atoms: C_13  and  C_14 
ROOT
HETATM    1  C   UNL     1      -3.365  -4.892 -33.843  1.00  0.00     0.048 C 
HETATM    2  C   UNL     1      -4.477  -3.912 -34.097  1.00  0.00    -0.061 A 
HETATM    3  C   UNL     1      -4.322  -2.557 -33.775  1.00  0.00     0.020 A 
HETATM    4  C   UNL     1      -5.351  -1.636 -34.033  1.00  0.00    -0.008 A 
HETATM    5  C   UNL     1      -6.541  -2.090 -34.631  1.00  0.00     0.043 A 
HETATM    6  N   UNL     1      -7.529  -1.212 -34.871  1.00  0.00    -0.346 N 
HETATM    7  H   UNL     1      -8.366  -1.573 -35.314  1.00  0.00     0.167 HD
HETATM    8  C   UNL     1      -7.483   0.096 -34.564  1.00  0.00     0.086 A 
HETATM    9  C   UNL     1      -6.293   0.604 -34.008  1.00  0.00    -0.023 A 
HETATM   10  C   UNL     1      -6.131   2.060 -33.664  1.00  0.00     0.052 C 
HETATM   11  C   UNL     1      -5.240  -0.277 -33.725  1.00  0.00     0.023 A 
HETATM   12  C   UNL     1      -6.691  -3.440 -34.969  1.00  0.00     0.031 A 
HETATM   13  C   UNL     1      -5.661  -4.344 -34.704  1.00  0.00     0.009 A 
ENDROOT
BRANCH   8  14
HETATM   14  N   UNL     1      -8.554   0.944 -34.870  1.00  0.00    -0.277 NA
HETATM   15  H   UNL     1      -8.229   1.897 -35.040  1.00  0.00     0.129 HD
BRANCH  14  16
HETATM   16  C   UNL     1      -9.746   0.899 -34.024  1.00  0.00     0.113 C 
BRANCH  16  17
HETATM   17  C   UNL     1      -9.872   2.113 -33.094  1.00  0.00     0.137 C 
BRANCH  17  18
HETATM   18  N   UNL     1     -10.236   3.374 -33.735  1.00  0.00    -0.360 N 
HETATM   19  C   UNL     1     -11.511   3.747 -34.114  1.00  0.00     0.221 C 
HETATM   20  O   UNL     1     -12.510   3.079 -33.856  1.00  0.00    -0.273 OA
HETATM   21  H   UNL     1      -9.470   3.977 -34.012  1.00  0.00     0.162 HD
BRANCH  19  22
HETATM   22  C   UNL     1     -11.567   5.072 -34.874  1.00  0.00     0.070 C 
HETATM   23  C   UNL     1     -12.928   5.246 -35.544  1.00  0.00     0.019 C 
HETATM   24  C   UNL     1     -11.283   6.248 -33.940  1.00  0.00     0.019 C 
ENDBRANCH  19  22
ENDBRANCH  17  18
ENDBRANCH  16  17
ENDBRANCH  14  16
ENDBRANCH   8  14
TORSDOF 5
ENDMDL
