MODEL 1
REMARK VINA RESULT:      -9.5      0.000      0.000
REMARK  5 active torsions:
REMARK  status: ('A' for Active; 'I' for Inactive)
REMARK    1  A    between atoms: O_2  and  C_3 
REMARK    2  A    between atoms: C_6  and  N_7 
REMARK    3  A    between atoms: C_11  and  C_12 
REMARK    4  A    between atoms: C_12  and  N_13 
REMARK       I    between atoms: N_13  and  C_14 
REMARK    5  A    between atoms: C_14  and  C_15 
ROOT
HETATM    1  N   UNL     1      -3.880   2.908 -32.672  1.00  0.00    -0.360 N 
HETATM    2  C   UNL     1      -3.845   1.933 -31.691  1.00  0.00     0.230 C 
HETATM    3  O   UNL     1      -2.813   1.641 -31.088  1.00  0.00    -0.272 OA
HETATM    4  H   UNL     1      -4.781   3.151 -33.072  1.00  0.00     0.162 HD
ENDROOT
BRANCH   1   5
HETATM    5  C   UNL     1      -2.738   3.745 -32.965  1.00  0.00     0.129 C 
BRANCH   5   6
HETATM    6  C   UNL     1      -2.850   5.136 -32.355  1.00  0.00     0.031 C 
HETATM    7  C   UNL     1      -2.430   6.226 -33.331  1.00  0.00     0.111 C 
HETATM    8  C   UNL     1      -1.903   7.324 -32.442  1.00  0.00     0.224 C 
HETATM    9  N   UNL     1      -1.624   6.768 -31.185  1.00  0.00    -0.318 N 
HETATM   10  O   UNL     1      -1.725   8.463 -32.844  1.00  0.00    -0.273 OA
HETATM   11  C   UNL     1      -1.924   5.353 -31.169  1.00  0.00     0.139 C 
BRANCH   9  12
HETATM   12  C   UNL     1      -1.025   7.433 -30.079  1.00  0.00     0.037 A 
HETATM   13  C   UNL     1      -1.716   8.392 -29.327  1.00  0.00     0.032 A 
HETATM   14  C   UNL     1      -1.123   9.031 -28.227  1.00  0.00     0.039 A 
HETATM   15  C   UNL     1       0.178   8.718 -27.848  1.00  0.00     0.068 A 
HETATM   16  C   UNL     1       0.885   7.779 -28.596  1.00  0.00     0.039 A 
HETATM   17  C   UNL     1       0.292   7.143 -29.695  1.00  0.00     0.032 A 
BRANCH  15  18
HETATM   18  O   UNL     1       0.862   9.254 -26.796  1.00  0.00    -0.356 OA
HETATM   19  C   UNL     1       1.945   8.486 -26.286  1.00  0.00     0.210 C 
ENDBRANCH  15  18
ENDBRANCH   9  12
ENDBRANCH   5   6
ENDBRANCH   1   5
BRANCH   2  20
HETATM   20  C   UNL     1      -5.178   1.217 -31.418  1.00  0.00     0.149 C 
HETATM   21  C   UNL     1      -5.547   0.306 -32.565  1.00  0.00    -0.007 A 
HETATM   22  C   UNL     1      -6.685   0.567 -33.332  1.00  0.00     0.083 A 
HETATM   23  C   UNL     1      -4.750  -0.807 -32.883  1.00  0.00     0.011 A 
HETATM   24  C   UNL     1      -7.020  -0.263 -34.403  1.00  0.00     0.038 A 
HETATM   25  O   UNL     1      -7.530   1.624 -33.099  1.00  0.00    -0.310 OA
HETATM   26  C   UNL     1      -6.224  -1.366 -34.712  1.00  0.00     0.003 A 
HETATM   27  C   UNL     1      -5.089  -1.637 -33.951  1.00  0.00     0.001 A 
HETATM   28  C   UNL     1      -7.364   2.357 -31.950  1.00  0.00     0.083 A 
HETATM   29  C   UNL     1      -6.276   2.206 -31.089  1.00  0.00    -0.007 A 
HETATM   30  C   UNL     1      -8.352   3.306 -31.679  1.00  0.00     0.038 A 
HETATM   31  C   UNL     1      -6.197   3.007 -29.938  1.00  0.00     0.011 A 
HETATM   32  C   UNL     1      -7.187   3.952 -29.667  1.00  0.00     0.001 A 
HETATM   33  C   UNL     1      -8.264   4.103 -30.539  1.00  0.00     0.003 A 
ENDBRANCH   2  20
TORSDOF 5
ENDMDL
MODEL 2
REMARK VINA RESULT:      -9.4      2.251      9.129
REMARK  5 active torsions:
REMARK  status: ('A' for Active; 'I' for Inactive)
REMARK    1  A    between atoms: O_2  and  C_3 
REMARK    2  A    between atoms: C_6  and  N_7 
REMARK    3  A    between atoms: C_11  and  C_12 
REMARK    4  A    between atoms: C_12  and  N_13 
REMARK       I    between atoms: N_13  and  C_14 
REMARK    5  A    between atoms: C_14  and  C_15 
ROOT
HETATM    1  N   UNL     1      -4.293   4.582 -30.558  1.00  0.00    -0.360 N 
HETATM    2  C   UNL     1      -4.183   5.949 -30.381  1.00  0.00     0.230 C 
HETATM    3  O   UNL     1      -5.058   6.615 -29.828  1.00  0.00    -0.272 OA
HETATM    4  H   UNL     1      -3.499   4.086 -30.952  1.00  0.00     0.162 HD
ENDROOT
BRANCH   1   5
HETATM    5  C   UNL     1      -5.380   3.818 -29.988  1.00  0.00     0.129 C 
BRANCH   5   6
HETATM    6  C   UNL     1      -6.181   3.053 -31.034  1.00  0.00     0.031 C 
HETATM    7  C   UNL     1      -7.407   2.378 -30.437  1.00  0.00     0.111 C 
HETATM    8  C   UNL     1      -7.618   1.170 -31.316  1.00  0.00     0.224 C 
HETATM    9  N   UNL     1      -6.426   0.930 -32.015  1.00  0.00    -0.318 N 
HETATM   10  O   UNL     1      -8.660   0.534 -31.315  1.00  0.00    -0.273 OA
HETATM   11  C   UNL     1      -5.414   1.899 -31.658  1.00  0.00     0.139 C 
BRANCH   9  12
HETATM   12  C   UNL     1      -6.160  -0.167 -32.883  1.00  0.00     0.037 A 
HETATM   13  C   UNL     1      -4.994  -0.933 -32.774  1.00  0.00     0.032 A 
HETATM   14  C   UNL     1      -4.748  -2.025 -33.622  1.00  0.00     0.039 A 
HETATM   15  C   UNL     1      -5.672  -2.378 -34.599  1.00  0.00     0.068 A 
HETATM   16  C   UNL     1      -6.830  -1.614 -34.734  1.00  0.00     0.039 A 
HETATM   17  C   UNL     1      -7.073  -0.525 -33.886  1.00  0.00     0.032 A 
BRANCH  15  18
HETATM   18  O   UNL     1      -5.561  -3.419 -35.476  1.00  0.00    -0.356 OA
HETATM   19  C   UNL     1      -6.409  -4.537 -35.244  1.00  0.00     0.210 C 
ENDBRANCH  15  18
ENDBRANCH   9  12
ENDBRANCH   5   6
ENDBRANCH   1   5
BRANCH   2  20
HETATM   20  C   UNL     1      -2.905   6.592 -30.945  1.00  0.00     0.149 C 
HETATM   21  C   UNL     1      -2.602   6.070 -32.329  1.00  0.00    -0.007 A 
HETATM   22  C   UNL     1      -1.449   5.317 -32.560  1.00  0.00     0.083 A 
HETATM   23  C   UNL     1      -3.477   6.325 -33.400  1.00  0.00     0.011 A 
HETATM   24  C   UNL     1      -1.174   4.819 -33.835  1.00  0.00     0.038 A 
HETATM   25  O   UNL     1      -0.530   5.019 -31.584  1.00  0.00    -0.310 OA
HETATM   26  C   UNL     1      -2.047   5.076 -34.892  1.00  0.00     0.003 A 
HETATM   27  C   UNL     1      -3.198   5.829 -34.673  1.00  0.00     0.001 A 
HETATM   28  C   UNL     1      -0.643   5.638 -30.364  1.00  0.00     0.083 A 
HETATM   29  C   UNL     1      -1.739   6.420 -29.995  1.00  0.00    -0.007 A 
HETATM   30  C   UNL     1       0.410   5.432 -29.471  1.00  0.00     0.038 A 
HETATM   31  C   UNL     1      -1.760   7.011 -28.721  1.00  0.00     0.011 A 
HETATM   32  C   UNL     1      -0.705   6.807 -27.830  1.00  0.00     0.001 A 
HETATM   33  C   UNL     1       0.379   6.015 -28.205  1.00  0.00     0.003 A 
ENDBRANCH   2  20
TORSDOF 5
ENDMDL
MODEL 3
REMARK VINA RESULT:      -9.1      3.540      6.719
REMARK  5 active torsions:
REMARK  status: ('A' for Active; 'I' for Inactive)
REMARK    1  A    between atoms: O_2  and  C_3 
REMARK    2  A    between atoms: C_6  and  N_7 
REMARK    3  A    between atoms: C_11  and  C_12 
REMARK    4  A    between atoms: C_12  and  N_13 
REMARK       I    between atoms: N_13  and  C_14 
REMARK    5  A    between atoms: C_14  and  C_15 
ROOT
HETATM    1  N   UNL     1      -9.055   0.417 -33.550  1.00  0.00    -0.360 N 
HETATM    2  C   UNL     1      -7.840   0.047 -34.096  1.00  0.00     0.230 C 
HETATM    3  O   UNL     1      -7.521   0.330 -35.250  1.00  0.00    -0.272 OA
HETATM    4  H   UNL     1      -9.218   0.217 -32.568  1.00  0.00     0.162 HD
ENDROOT
BRANCH   1   5
HETATM    5  C   UNL     1      -9.982   1.278 -34.251  1.00  0.00     0.129 C 
BRANCH   5   6
HETATM    6  C   UNL     1      -9.901   2.730 -33.799  1.00  0.00     0.031 C 
HETATM    7  C   UNL     1     -10.222   3.700 -34.927  1.00  0.00     0.111 C 
HETATM    8  C   UNL     1      -9.423   4.933 -34.581  1.00  0.00     0.224 C 
HETATM    9  N   UNL     1      -8.434   4.564 -33.658  1.00  0.00    -0.318 N 
HETATM   10  O   UNL     1      -9.632   6.016 -35.105  1.00  0.00    -0.273 OA
HETATM   11  C   UNL     1      -8.507   3.150 -33.362  1.00  0.00     0.139 C 
BRANCH   9  12
HETATM   12  C   UNL     1      -7.406   5.400 -33.140  1.00  0.00     0.037 A 
HETATM   13  C   UNL     1      -7.690   6.527 -32.358  1.00  0.00     0.032 A 
HETATM   14  C   UNL     1      -6.670   7.337 -31.835  1.00  0.00     0.039 A 
HETATM   15  C   UNL     1      -5.335   7.031 -32.080  1.00  0.00     0.068 A 
HETATM   16  C   UNL     1      -5.035   5.925 -32.871  1.00  0.00     0.039 A 
HETATM   17  C   UNL     1      -6.056   5.118 -33.392  1.00  0.00     0.032 A 
BRANCH  15  18
HETATM   18  O   UNL     1      -4.253   7.726 -31.622  1.00  0.00    -0.356 OA
HETATM   19  C   UNL     1      -2.991   7.372 -32.176  1.00  0.00     0.210 C 
ENDBRANCH  15  18
ENDBRANCH   9  12
ENDBRANCH   5   6
ENDBRANCH   1   5
BRANCH   2  20
HETATM   20  C   UNL     1      -6.917  -0.767 -33.173  1.00  0.00     0.149 C 
HETATM   21  C   UNL     1      -5.808   0.095 -32.620  1.00  0.00    -0.007 A 
HETATM   22  C   UNL     1      -4.479  -0.164 -32.963  1.00  0.00     0.083 A 
HETATM   23  C   UNL     1      -6.094   1.173 -31.765  1.00  0.00     0.011 A 
HETATM   24  C   UNL     1      -3.451   0.641 -32.468  1.00  0.00     0.038 A 
HETATM   25  O   UNL     1      -4.095  -1.194 -33.786  1.00  0.00    -0.310 OA
HETATM   26  C   UNL     1      -3.744   1.709 -31.620  1.00  0.00     0.003 A 
HETATM   27  C   UNL     1      -5.065   1.973 -31.268  1.00  0.00     0.001 A 
HETATM   28  C   UNL     1      -5.032  -2.131 -34.146  1.00  0.00     0.083 A 
HETATM   29  C   UNL     1      -6.395  -2.005 -33.871  1.00  0.00    -0.007 A 
HETATM   30  C   UNL     1      -4.552  -3.245 -34.838  1.00  0.00     0.038 A 
HETATM   31  C   UNL     1      -7.273  -3.020 -34.283  1.00  0.00     0.011 A 
HETATM   32  C   UNL     1      -6.792  -4.134 -34.972  1.00  0.00     0.001 A 
HETATM   33  C   UNL     1      -5.431  -4.245 -35.251  1.00  0.00     0.003 A 
ENDBRANCH   2  20
TORSDOF 5
ENDMDL
MODEL 4
REMARK VINA RESULT:      -9.1      2.538      9.440
REMARK  5 active torsions:
REMARK  status: ('A' for Active; 'I' for Inactive)
REMARK    1  A    between atoms: O_2  and  C_3 
REMARK    2  A    between atoms: C_6  and  N_7 
REMARK    3  A    between atoms: C_11  and  C_12 
REMARK    4  A    between atoms: C_12  and  N_13 
REMARK       I    between atoms: N_13  and  C_14 
REMARK    5  A    between atoms: C_14  and  C_15 
ROOT
HETATM    1  N   UNL     1      -4.824   4.653 -30.077  1.00  0.00    -0.360 N 
HETATM    2  C   UNL     1      -4.578   5.899 -30.625  1.00  0.00     0.230 C 
HETATM    3  O   UNL     1      -5.476   6.615 -31.065  1.00  0.00    -0.272 OA
HETATM    4  H   UNL     1      -4.045   4.151 -29.663  1.00  0.00     0.162 HD
ENDROOT
BRANCH   1   5
HETATM    5  C   UNL     1      -6.166   4.160 -29.861  1.00  0.00     0.129 C 
BRANCH   5   6
HETATM    6  C   UNL     1      -6.681   3.315 -31.019  1.00  0.00     0.031 C 
HETATM    7  C   UNL     1      -7.975   2.593 -30.671  1.00  0.00     0.111 C 
HETATM    8  C   UNL     1      -7.930   1.344 -31.517  1.00  0.00     0.224 C 
HETATM    9  N   UNL     1      -6.604   1.147 -31.929  1.00  0.00    -0.318 N 
HETATM   10  O   UNL     1      -8.916   0.650 -31.711  1.00  0.00    -0.273 OA
HETATM   11  C   UNL     1      -5.742   2.184 -31.407  1.00  0.00     0.139 C 
BRANCH   9  12
HETATM   12  C   UNL     1      -6.103   0.038 -32.666  1.00  0.00     0.037 A 
HETATM   13  C   UNL     1      -6.732  -0.426 -33.828  1.00  0.00     0.032 A 
HETATM   14  C   UNL     1      -6.221  -1.510 -34.560  1.00  0.00     0.039 A 
HETATM   15  C   UNL     1      -5.061  -2.153 -34.144  1.00  0.00     0.068 A 
HETATM   16  C   UNL     1      -4.433  -1.718 -32.979  1.00  0.00     0.039 A 
HETATM   17  C   UNL     1      -4.945  -0.635 -32.251  1.00  0.00     0.032 A 
BRANCH  15  18
HETATM   18  O   UNL     1      -4.456  -3.206 -34.768  1.00  0.00    -0.356 OA
HETATM   19  C   UNL     1      -3.871  -4.193 -33.926  1.00  0.00     0.210 C 
ENDBRANCH  15  18
ENDBRANCH   9  12
ENDBRANCH   5   6
ENDBRANCH   1   5
BRANCH   2  20
HETATM   20  C   UNL     1      -3.101   6.324 -30.672  1.00  0.00     0.149 C 
HETATM   21  C   UNL     1      -2.931   7.744 -30.186  1.00  0.00    -0.007 A 
HETATM   22  C   UNL     1      -2.486   8.738 -31.061  1.00  0.00     0.083 A 
HETATM   23  C   UNL     1      -3.226   8.088 -28.856  1.00  0.00     0.011 A 
HETATM   24  C   UNL     1      -2.344  10.055 -30.621  1.00  0.00     0.038 A 
HETATM   25  O   UNL     1      -2.167   8.503 -32.376  1.00  0.00    -0.310 OA
HETATM   26  C   UNL     1      -2.639  10.388 -29.299  1.00  0.00     0.003 A 
HETATM   27  C   UNL     1      -3.079   9.404 -28.417  1.00  0.00     0.001 A 
HETATM   28  C   UNL     1      -2.101   7.203 -32.813  1.00  0.00     0.083 A 
HETATM   29  C   UNL     1      -2.510   6.110 -32.049  1.00  0.00    -0.007 A 
HETATM   30  C   UNL     1      -1.606   7.015 -34.106  1.00  0.00     0.038 A 
HETATM   31  C   UNL     1      -2.402   4.818 -32.589  1.00  0.00     0.011 A 
HETATM   32  C   UNL     1      -1.905   4.631 -33.879  1.00  0.00     0.001 A 
HETATM   33  C   UNL     1      -1.508   5.731 -34.639  1.00  0.00     0.003 A 
ENDBRANCH   2  20
TORSDOF 5
ENDMDL
MODEL 5
REMARK VINA RESULT:      -8.9      4.209      6.786
REMARK  5 active torsions:
REMARK  status: ('A' for Active; 'I' for Inactive)
REMARK    1  A    between atoms: O_2  and  C_3 
REMARK    2  A    between atoms: C_6  and  N_7 
REMARK    3  A    between atoms: C_11  and  C_12 
REMARK    4  A    between atoms: C_12  and  N_13 
REMARK       I    between atoms: N_13  and  C_14 
REMARK    5  A    between atoms: C_14  and  C_15 
ROOT
HETATM    1  N   UNL     1      -9.058   0.226 -33.256  1.00  0.00    -0.360 N 
HETATM    2  C   UNL     1      -7.865  -0.083 -33.884  1.00  0.00     0.230 C 
HETATM    3  O   UNL     1      -7.630   0.235 -35.049  1.00  0.00    -0.272 OA
HETATM    4  H   UNL     1      -9.151   0.000 -32.271  1.00  0.00     0.162 HD
ENDROOT
BRANCH   1   5
HETATM    5  C   UNL     1     -10.060   1.060 -33.880  1.00  0.00     0.129 C 
BRANCH   5   6
HETATM    6  C   UNL     1      -9.959   2.522 -33.462  1.00  0.00     0.031 C 
HETATM    7  C   UNL     1      -9.046   3.319 -34.382  1.00  0.00     0.111 C 
HETATM    8  C   UNL     1      -8.492   4.403 -33.490  1.00  0.00     0.224 C 
HETATM    9  N   UNL     1      -8.685   4.008 -32.158  1.00  0.00    -0.318 N 
HETATM   10  O   UNL     1      -7.934   5.394 -33.935  1.00  0.00    -0.273 OA
HETATM   11  C   UNL     1      -9.332   2.716 -32.091  1.00  0.00     0.139 C 
BRANCH   9  12
HETATM   12  C   UNL     1      -8.228   4.694 -30.998  1.00  0.00     0.037 A 
HETATM   13  C   UNL     1      -9.096   5.424 -30.177  1.00  0.00     0.032 A 
HETATM   14  C   UNL     1      -8.640   6.082 -29.024  1.00  0.00     0.039 A 
HETATM   15  C   UNL     1      -7.299   6.020 -28.663  1.00  0.00     0.068 A 
HETATM   16  C   UNL     1      -6.417   5.314 -29.479  1.00  0.00     0.039 A 
HETATM   17  C   UNL     1      -6.875   4.657 -30.629  1.00  0.00     0.032 A 
BRANCH  15  18
HETATM   18  O   UNL     1      -6.732   6.602 -27.566  1.00  0.00    -0.356 OA
HETATM   19  C   UNL     1      -5.343   6.901 -27.653  1.00  0.00     0.210 C 
ENDBRANCH  15  18
ENDBRANCH   9  12
ENDBRANCH   5   6
ENDBRANCH   1   5
BRANCH   2  20
HETATM   20  C   UNL     1      -6.854  -0.876 -33.038  1.00  0.00     0.149 C 
HETATM   21  C   UNL     1      -5.734   0.015 -32.558  1.00  0.00    -0.007 A 
HETATM   22  C   UNL     1      -4.426  -0.202 -32.997  1.00  0.00     0.083 A 
HETATM   23  C   UNL     1      -5.989   1.077 -31.673  1.00  0.00     0.011 A 
HETATM   24  C   UNL     1      -3.389   0.630 -32.570  1.00  0.00     0.038 A 
HETATM   25  O   UNL     1      -4.073  -1.214 -33.856  1.00  0.00    -0.310 OA
HETATM   26  C   UNL     1      -3.651   1.682 -31.692  1.00  0.00     0.003 A 
HETATM   27  C   UNL     1      -4.951   1.904 -31.244  1.00  0.00     0.001 A 
HETATM   28  C   UNL     1      -5.005  -2.176 -34.156  1.00  0.00     0.083 A 
HETATM   29  C   UNL     1      -6.347  -2.092 -33.783  1.00  0.00    -0.007 A 
HETATM   30  C   UNL     1      -4.544  -3.270 -34.891  1.00  0.00     0.038 A 
HETATM   31  C   UNL     1      -7.224  -3.130 -34.141  1.00  0.00     0.011 A 
HETATM   32  C   UNL     1      -6.760  -4.224 -34.873  1.00  0.00     0.001 A 
HETATM   33  C   UNL     1      -5.420  -4.293 -35.250  1.00  0.00     0.003 A 
ENDBRANCH   2  20
TORSDOF 5
ENDMDL
MODEL 6
REMARK VINA RESULT:      -8.9      5.491     10.510
REMARK  5 active torsions:
REMARK  status: ('A' for Active; 'I' for Inactive)
REMARK    1  A    between atoms: O_2  and  C_3 
REMARK    2  A    between atoms: C_6  and  N_7 
REMARK    3  A    between atoms: C_11  and  C_12 
REMARK    4  A    between atoms: C_12  and  N_13 
REMARK       I    between atoms: N_13  and  C_14 
REMARK    5  A    between atoms: C_14  and  C_15 
ROOT
HETATM    1  N   UNL     1      -8.451   1.293 -33.902  1.00  0.00    -0.360 N 
HETATM    2  C   UNL     1      -7.366   0.547 -34.327  1.00  0.00     0.230 C 
HETATM    3  O   UNL     1      -6.970   0.564 -35.491  1.00  0.00    -0.272 OA
HETATM    4  H   UNL     1      -8.674   1.291 -32.912  1.00  0.00     0.162 HD
ENDROOT
BRANCH   1   5
HETATM    5  C   UNL     1      -9.112   2.248 -34.764  1.00  0.00     0.129 C 
BRANCH   5   6
HETATM    6  C   UNL     1     -10.079   3.155 -34.014  1.00  0.00     0.031 C 
HETATM    7  C   UNL     1      -9.760   3.229 -32.528  1.00  0.00     0.111 C 
HETATM    8  C   UNL     1     -11.100   3.486 -31.883  1.00  0.00     0.224 C 
HETATM    9  N   UNL     1     -12.098   3.142 -32.807  1.00  0.00    -0.318 N 
HETATM   10  O   UNL     1     -11.207   3.872 -30.730  1.00  0.00    -0.273 OA
HETATM   11  C   UNL     1     -11.516   2.659 -34.040  1.00  0.00     0.139 C 
BRANCH   9  12
HETATM   12  C   UNL     1     -13.501   3.144 -32.575  1.00  0.00     0.037 A 
HETATM   13  C   UNL     1     -14.287   2.002 -32.771  1.00  0.00     0.032 A 
HETATM   14  C   UNL     1     -15.669   2.008 -32.523  1.00  0.00     0.039 A 
HETATM   15  C   UNL     1     -16.296   3.161 -32.064  1.00  0.00     0.068 A 
HETATM   16  C   UNL     1     -15.532   4.311 -31.880  1.00  0.00     0.039 A 
HETATM   17  C   UNL     1     -14.153   4.303 -32.129  1.00  0.00     0.032 A 
BRANCH  15  18
HETATM   18  O   UNL     1     -17.624   3.295 -31.773  1.00  0.00    -0.356 OA
HETATM   19  C   UNL     1     -18.277   4.441 -32.306  1.00  0.00     0.210 C 
ENDBRANCH  15  18
ENDBRANCH   9  12
ENDBRANCH   5   6
ENDBRANCH   1   5
BRANCH   2  20
HETATM   20  C   UNL     1      -6.701  -0.328 -33.252  1.00  0.00     0.149 C 
HETATM   21  C   UNL     1      -5.584   0.419 -32.562  1.00  0.00    -0.007 A 
HETATM   22  C   UNL     1      -4.263  -0.016 -32.691  1.00  0.00     0.083 A 
HETATM   23  C   UNL     1      -5.854   1.562 -31.791  1.00  0.00     0.011 A 
HETATM   24  C   UNL     1      -3.225   0.681 -32.069  1.00  0.00     0.038 A 
HETATM   25  O   UNL     1      -3.897  -1.123 -33.417  1.00  0.00    -0.310 OA
HETATM   26  C   UNL     1      -3.502   1.815 -31.305  1.00  0.00     0.003 A 
HETATM   27  C   UNL     1      -4.816   2.254 -31.166  1.00  0.00     0.001 A 
HETATM   28  C   UNL     1      -4.882  -1.955 -33.889  1.00  0.00     0.083 A 
HETATM   29  C   UNL     1      -6.243  -1.651 -33.827  1.00  0.00    -0.007 A 
HETATM   30  C   UNL     1      -4.450  -3.150 -34.468  1.00  0.00     0.038 A 
HETATM   31  C   UNL     1      -7.173  -2.571 -34.339  1.00  0.00     0.011 A 
HETATM   32  C   UNL     1      -6.740  -3.766 -34.915  1.00  0.00     0.001 A 
HETATM   33  C   UNL     1      -5.379  -4.055 -34.981  1.00  0.00     0.003 A 
ENDBRANCH   2  20
TORSDOF 5
ENDMDL
MODEL 7
REMARK VINA RESULT:      -8.8      5.154      9.037
REMARK  5 active torsions:
REMARK  status: ('A' for Active; 'I' for Inactive)
REMARK    1  A    between atoms: O_2  and  C_3 
REMARK    2  A    between atoms: C_6  and  N_7 
REMARK    3  A    between atoms: C_11  and  C_12 
REMARK    4  A    between atoms: C_12  and  N_13 
REMARK       I    between atoms: N_13  and  C_14 
REMARK    5  A    between atoms: C_14  and  C_15 
ROOT
HETATM    1  N   UNL     1      -8.965   0.872 -33.406  1.00  0.00    -0.360 N 
HETATM    2  C   UNL     1      -7.804   0.395 -32.824  1.00  0.00     0.230 C 
HETATM    3  O   UNL     1      -7.775  -0.042 -31.674  1.00  0.00    -0.272 OA
HETATM    4  H   UNL     1      -8.932   1.145 -34.383  1.00  0.00     0.162 HD
ENDROOT
BRANCH   1   5
HETATM    5  C   UNL     1     -10.251   0.768 -32.753  1.00  0.00     0.129 C 
BRANCH   5   6
HETATM    6  C   UNL     1     -11.299   1.696 -33.354  1.00  0.00     0.031 C 
HETATM    7  C   UNL     1     -11.714   1.262 -34.753  1.00  0.00     0.111 C 
HETATM    8  C   UNL     1     -12.102   2.553 -35.431  1.00  0.00     0.224 C 
HETATM    9  N   UNL     1     -11.549   3.612 -34.696  1.00  0.00    -0.318 N 
HETATM   10  O   UNL     1     -12.741   2.579 -36.471  1.00  0.00    -0.273 OA
HETATM   11  C   UNL     1     -10.800   3.117 -33.561  1.00  0.00     0.139 C 
BRANCH   9  12
HETATM   12  C   UNL     1     -11.593   4.993 -35.037  1.00  0.00     0.037 A 
HETATM   13  C   UNL     1     -10.436   5.718 -35.348  1.00  0.00     0.032 A 
HETATM   14  C   UNL     1     -10.491   7.075 -35.701  1.00  0.00     0.039 A 
HETATM   15  C   UNL     1     -11.712   7.739 -35.757  1.00  0.00     0.068 A 
HETATM   16  C   UNL     1     -12.871   7.037 -35.432  1.00  0.00     0.039 A 
HETATM   17  C   UNL     1     -12.814   5.682 -35.080  1.00  0.00     0.032 A 
BRANCH  15  18
HETATM   18  O   UNL     1     -11.904   9.047 -36.096  1.00  0.00    -0.356 OA
HETATM   19  C   UNL     1     -11.241   9.502 -37.270  1.00  0.00     0.210 C 
ENDBRANCH  15  18
ENDBRANCH   9  12
ENDBRANCH   5   6
ENDBRANCH   1   5
BRANCH   2  20
HETATM   20  C   UNL     1      -6.543   0.469 -33.700  1.00  0.00     0.149 C 
HETATM   21  C   UNL     1      -5.997  -0.911 -33.980  1.00  0.00    -0.007 A 
HETATM   22  C   UNL     1      -4.745  -1.284 -33.487  1.00  0.00     0.083 A 
HETATM   23  C   UNL     1      -6.741  -1.840 -34.728  1.00  0.00     0.011 A 
HETATM   24  C   UNL     1      -4.243  -2.565 -33.728  1.00  0.00     0.038 A 
HETATM   25  O   UNL     1      -3.940  -0.449 -32.752  1.00  0.00    -0.310 OA
HETATM   26  C   UNL     1      -4.988  -3.481 -34.471  1.00  0.00     0.003 A 
HETATM   27  C   UNL     1      -6.236  -3.117 -34.971  1.00  0.00     0.001 A 
HETATM   28  C   UNL     1      -4.288   0.874 -32.646  1.00  0.00     0.083 A 
HETATM   29  C   UNL     1      -5.505   1.390 -33.094  1.00  0.00    -0.007 A 
HETATM   30  C   UNL     1      -3.349   1.710 -32.037  1.00  0.00     0.038 A 
HETATM   31  C   UNL     1      -5.767   2.761 -32.939  1.00  0.00     0.011 A 
HETATM   32  C   UNL     1      -4.827   3.594 -32.332  1.00  0.00     0.001 A 
HETATM   33  C   UNL     1      -3.619   3.068 -31.879  1.00  0.00     0.003 A 
ENDBRANCH   2  20
TORSDOF 5
ENDMDL
MODEL 8
REMARK VINA RESULT:      -8.7      2.022      3.467
REMARK  5 active torsions:
REMARK  status: ('A' for Active; 'I' for Inactive)
REMARK    1  A    between atoms: O_2  and  C_3 
REMARK    2  A    between atoms: C_6  and  N_7 
REMARK    3  A    between atoms: C_11  and  C_12 
REMARK    4  A    between atoms: C_12  and  N_13 
REMARK       I    between atoms: N_13  and  C_14 
REMARK    5  A    between atoms: C_14  and  C_15 
ROOT
HETATM    1  N   UNL     1      -4.739   4.612 -32.311  1.00  0.00    -0.360 N 
HETATM    2  C   UNL     1      -5.548   3.551 -31.946  1.00  0.00     0.230 C 
HETATM    3  O   UNL     1      -6.007   3.431 -30.810  1.00  0.00    -0.272 OA
HETATM    4  H   UNL     1      -4.461   4.687 -33.284  1.00  0.00     0.162 HD
ENDROOT
BRANCH   1   5
HETATM    5  C   UNL     1      -4.484   5.724 -31.423  1.00  0.00     0.129 C 
BRANCH   5   6
HETATM    6  C   UNL     1      -3.009   6.098 -31.348  1.00  0.00     0.031 C 
HETATM    7  C   UNL     1      -2.102   4.898 -31.576  1.00  0.00     0.111 C 
HETATM    8  C   UNL     1      -0.861   5.226 -30.783  1.00  0.00     0.224 C 
HETATM    9  N   UNL     1      -1.190   6.233 -29.863  1.00  0.00    -0.318 N 
HETATM   10  O   UNL     1       0.192   4.629 -30.938  1.00  0.00    -0.273 OA
HETATM   11  C   UNL     1      -2.583   6.603 -29.979  1.00  0.00     0.139 C 
BRANCH   9  12
HETATM   12  C   UNL     1      -0.338   6.772 -28.859  1.00  0.00     0.037 A 
HETATM   13  C   UNL     1       0.577   7.796 -29.132  1.00  0.00     0.032 A 
HETATM   14  C   UNL     1       1.401   8.334 -28.132  1.00  0.00     0.039 A 
HETATM   15  C   UNL     1       1.322   7.861 -26.826  1.00  0.00     0.068 A 
HETATM   16  C   UNL     1       0.431   6.829 -26.540  1.00  0.00     0.039 A 
HETATM   17  C   UNL     1      -0.391   6.294 -27.541  1.00  0.00     0.032 A 
BRANCH  15  18
HETATM   18  O   UNL     1       2.055   8.304 -25.763  1.00  0.00    -0.356 OA
HETATM   19  C   UNL     1       1.591   9.487 -25.122  1.00  0.00     0.210 C 
ENDBRANCH  15  18
ENDBRANCH   9  12
ENDBRANCH   5   6
ENDBRANCH   1   5
BRANCH   2  20
HETATM   20  C   UNL     1      -5.819   2.512 -33.047  1.00  0.00     0.149 C 
HETATM   21  C   UNL     1      -7.300   2.367 -33.301  1.00  0.00    -0.007 A 
HETATM   22  C   UNL     1      -7.946   1.161 -33.022  1.00  0.00     0.083 A 
HETATM   23  C   UNL     1      -8.050   3.441 -33.810  1.00  0.00     0.011 A 
HETATM   24  C   UNL     1      -9.319   1.027 -33.239  1.00  0.00     0.038 A 
HETATM   25  O   UNL     1      -7.303   0.052 -32.528  1.00  0.00    -0.310 OA
HETATM   26  C   UNL     1     -10.056   2.098 -33.745  1.00  0.00     0.003 A 
HETATM   27  C   UNL     1      -9.421   3.304 -34.030  1.00  0.00     0.001 A 
HETATM   28  C   UNL     1      -5.931   0.058 -32.476  1.00  0.00     0.083 A 
HETATM   29  C   UNL     1      -5.154   1.189 -32.730  1.00  0.00    -0.007 A 
HETATM   30  C   UNL     1      -5.325  -1.152 -32.130  1.00  0.00     0.038 A 
HETATM   31  C   UNL     1      -3.755   1.091 -32.650  1.00  0.00     0.011 A 
HETATM   32  C   UNL     1      -3.151  -0.119 -32.307  1.00  0.00     0.001 A 
HETATM   33  C   UNL     1      -3.936  -1.240 -32.045  1.00  0.00     0.003 A 
ENDBRANCH   2  20
TORSDOF 5
ENDMDL
MODEL 9
REMARK VINA RESULT:      -8.7      5.601      9.528
REMARK  5 active torsions:
REMARK  status: ('A' for Active; 'I' for Inactive)
REMARK    1  A    between atoms: O_2  and  C_3 
REMARK    2  A    between atoms: C_6  and  N_7 
REMARK    3  A    between atoms: C_11  and  C_12 
REMARK    4  A    between atoms: C_12  and  N_13 
REMARK       I    between atoms: N_13  and  C_14 
REMARK    5  A    between atoms: C_14  and  C_15 
ROOT
HETATM    1  N   UNL     1      -9.262   0.411 -33.530  1.00  0.00    -0.360 N 
HETATM    2  C   UNL     1      -8.003   0.161 -34.047  1.00  0.00     0.230 C 
HETATM    3  O   UNL     1      -7.683   0.486 -35.190  1.00  0.00    -0.272 OA
HETATM    4  H   UNL     1      -9.430   0.185 -32.555  1.00  0.00     0.162 HD
ENDROOT
BRANCH   1   5
HETATM    5  C   UNL     1     -10.245   1.192 -34.247  1.00  0.00     0.129 C 
BRANCH   5   6
HETATM    6  C   UNL     1     -10.081   2.692 -34.036  1.00  0.00     0.031 C 
HETATM    7  C   UNL     1     -10.808   3.179 -32.792  1.00  0.00     0.111 C 
HETATM    8  C   UNL     1     -11.170   4.607 -33.121  1.00  0.00     0.224 C 
HETATM    9  N   UNL     1     -11.082   4.766 -34.511  1.00  0.00    -0.318 N 
HETATM   10  O   UNL     1     -11.523   5.406 -32.267  1.00  0.00    -0.273 OA
HETATM   11  C   UNL     1     -10.690   3.529 -35.149  1.00  0.00     0.139 C 
BRANCH   9  12
HETATM   12  C   UNL     1     -11.428   5.931 -35.253  1.00  0.00     0.037 A 
HETATM   13  C   UNL     1     -12.743   6.189 -35.659  1.00  0.00     0.032 A 
HETATM   14  C   UNL     1     -13.078   7.349 -36.374  1.00  0.00     0.039 A 
HETATM   15  C   UNL     1     -12.101   8.284 -36.695  1.00  0.00     0.068 A 
HETATM   16  C   UNL     1     -10.784   8.035 -36.315  1.00  0.00     0.039 A 
HETATM   17  C   UNL     1     -10.451   6.875 -35.601  1.00  0.00     0.032 A 
BRANCH  15  18
HETATM   18  O   UNL     1     -12.295   9.454 -37.372  1.00  0.00    -0.356 OA
HETATM   19  C   UNL     1     -12.321   9.368 -38.792  1.00  0.00     0.210 C 
ENDBRANCH  15  18
ENDBRANCH   9  12
ENDBRANCH   5   6
ENDBRANCH   1   5
BRANCH   2  20
HETATM   20  C   UNL     1      -7.034  -0.577 -33.109  1.00  0.00     0.149 C 
HETATM   21  C   UNL     1      -5.987   0.365 -32.564  1.00  0.00    -0.007 A 
HETATM   22  C   UNL     1      -4.642   0.190 -32.897  1.00  0.00     0.083 A 
HETATM   23  C   UNL     1      -6.349   1.433 -31.725  1.00  0.00     0.011 A 
HETATM   24  C   UNL     1      -3.673   1.069 -32.409  1.00  0.00     0.038 A 
HETATM   25  O   UNL     1      -4.187  -0.825 -33.703  1.00  0.00    -0.310 OA
HETATM   26  C   UNL     1      -4.040   2.126 -31.578  1.00  0.00     0.003 A 
HETATM   27  C   UNL     1      -5.378   2.308 -31.236  1.00  0.00     0.001 A 
HETATM   28  C   UNL     1      -5.057  -1.827 -34.053  1.00  0.00     0.083 A 
HETATM   29  C   UNL     1      -6.427  -1.787 -33.786  1.00  0.00    -0.007 A 
HETATM   30  C   UNL     1      -4.501  -2.916 -34.726  1.00  0.00     0.038 A 
HETATM   31  C   UNL     1      -7.234  -2.864 -34.187  1.00  0.00     0.011 A 
HETATM   32  C   UNL     1      -6.676  -3.953 -34.857  1.00  0.00     0.001 A 
HETATM   33  C   UNL     1      -5.309  -3.978 -35.128  1.00  0.00     0.003 A 
ENDBRANCH   2  20
TORSDOF 5
ENDMDL
MODEL 10
REMARK VINA RESULT:      -8.7      5.780     10.550
REMARK  5 active torsions:
REMARK  status: ('A' for Active; 'I' for Inactive)
REMARK    1  A    between atoms: O_2  and  C_3 
REMARK    2  A    between atoms: C_6  and  N_7 
REMARK    3  A    between atoms: C_11  and  C_12 
REMARK    4  A    between atoms: C_12  and  N_13 
REMARK       I    between atoms: N_13  and  C_14 
REMARK    5  A    between atoms: C_14  and  C_15 
ROOT
HETATM    1  N   UNL     1      -8.679   0.581 -33.431  1.00  0.00    -0.360 N 
HETATM    2  C   UNL     1      -7.523   0.076 -33.999  1.00  0.00     0.230 C 
HETATM    3  O   UNL     1      -7.205   0.310 -35.165  1.00  0.00    -0.272 OA
HETATM    4  H   UNL     1      -8.838   0.411 -32.443  1.00  0.00     0.162 HD
ENDROOT
BRANCH   1   5
HETATM    5  C   UNL     1      -9.526   1.527 -34.122  1.00  0.00     0.129 C 
BRANCH   5   6
HETATM    6  C   UNL     1     -10.979   1.463 -33.670  1.00  0.00     0.031 C 
HETATM    7  C   UNL     1     -11.917   1.080 -34.805  1.00  0.00     0.111 C 
HETATM    8  C   UNL     1     -13.218   1.753 -34.441  1.00  0.00     0.224 C 
HETATM    9  N   UNL     1     -12.940   2.751 -33.496  1.00  0.00    -0.318 N 
HETATM   10  O   UNL     1     -14.278   1.457 -34.971  1.00  0.00    -0.273 OA
HETATM   11  C   UNL     1     -11.525   2.802 -33.201  1.00  0.00     0.139 C 
BRANCH   9  12
HETATM   12  C   UNL     1     -13.867   3.685 -32.954  1.00  0.00     0.037 A 
HETATM   13  C   UNL     1     -13.792   5.054 -33.238  1.00  0.00     0.032 A 
HETATM   14  C   UNL     1     -14.722   5.966 -32.714  1.00  0.00     0.039 A 
HETATM   15  C   UNL     1     -15.755   5.524 -31.895  1.00  0.00     0.068 A 
HETATM   16  C   UNL     1     -15.833   4.168 -31.587  1.00  0.00     0.039 A 
HETATM   17  C   UNL     1     -14.904   3.259 -32.112  1.00  0.00     0.032 A 
BRANCH  15  18
HETATM   18  O   UNL     1     -16.727   6.302 -31.334  1.00  0.00    -0.356 OA
HETATM   19  C   UNL     1     -16.482   6.769 -30.013  1.00  0.00     0.210 C 
ENDBRANCH  15  18
ENDBRANCH   9  12
ENDBRANCH   5   6
ENDBRANCH   1   5
BRANCH   2  20
HETATM   20  C   UNL     1      -6.670  -0.821 -33.087  1.00  0.00     0.149 C 
HETATM   21  C   UNL     1      -5.515  -0.048 -32.497  1.00  0.00    -0.007 A 
HETATM   22  C   UNL     1      -4.201  -0.386 -32.829  1.00  0.00     0.083 A 
HETATM   23  C   UNL     1      -5.742   1.024 -31.616  1.00  0.00     0.011 A 
HETATM   24  C   UNL     1      -3.130   0.337 -32.299  1.00  0.00     0.038 A 
HETATM   25  O   UNL     1      -3.874  -1.418 -33.674  1.00  0.00    -0.310 OA
HETATM   26  C   UNL     1      -3.364   1.399 -31.426  1.00  0.00     0.003 A 
HETATM   27  C   UNL     1      -4.670   1.742 -31.085  1.00  0.00     0.001 A 
HETATM   28  C   UNL     1      -4.865  -2.281 -34.071  1.00  0.00     0.083 A 
HETATM   29  C   UNL     1      -6.220  -2.072 -33.810  1.00  0.00    -0.007 A 
HETATM   30  C   UNL     1      -4.449  -3.407 -34.785  1.00  0.00     0.038 A 
HETATM   31  C   UNL     1      -7.158  -3.016 -34.261  1.00  0.00     0.011 A 
HETATM   32  C   UNL     1      -6.740  -4.141 -34.972  1.00  0.00     0.001 A 
HETATM   33  C   UNL     1      -5.386  -4.335 -35.236  1.00  0.00     0.003 A 
ENDBRANCH   2  20
TORSDOF 5
ENDMDL
