MODEL 1
REMARK VINA RESULT:      -8.7      0.000      0.000
REMARK  4 active torsions:
REMARK  status: ('A' for Active; 'I' for Inactive)
REMARK    1  A    between atoms: C_4  and  N_5 
REMARK       I    between atoms: N_5  and  C_6 
REMARK    2  A    between atoms: C_6  and  C_7 
REMARK    3  A    between atoms: C_7  and  C_8 
REMARK    4  A    between atoms: C_11  and  O_12 
ROOT
HETATM    1  N   UNL     1      -8.230  -0.217 -33.085  1.00  0.00    -0.325 N 
HETATM    2  C   UNL     1      -9.018   0.629 -33.837  1.00  0.00     0.226 C 
HETATM    3  O   UNL     1      -8.928   0.829 -35.045  1.00  0.00    -0.273 OA
HETATM    4  H   UNL     1      -8.394  -0.270 -32.081  1.00  0.00     0.169 HD
ENDROOT
BRANCH   1   5
HETATM    5  C   UNL     1      -7.148  -1.029 -33.500  1.00  0.00     0.065 A 
HETATM    6  C   UNL     1      -7.311  -2.231 -34.197  1.00  0.00     0.038 A 
HETATM    7  C   UNL     1      -6.199  -2.987 -34.582  1.00  0.00    -0.059 A 
HETATM    8  C   UNL     1      -6.367  -4.261 -35.356  1.00  0.00     0.048 C 
HETATM    9  C   UNL     1      -4.920  -2.517 -34.271  1.00  0.00     0.020 A 
HETATM   10  C   UNL     1      -4.749  -1.311 -33.571  1.00  0.00    -0.005 A 
HETATM   11  C   UNL     1      -5.869  -0.551 -33.174  1.00  0.00     0.093 A 
HETATM   12  C   UNL     1      -3.473  -0.830 -33.248  1.00  0.00     0.015 A 
HETATM   13  N   UNL     1      -5.734   0.616 -32.495  1.00  0.00    -0.258 NA
HETATM   14  C   UNL     1      -4.486   1.045 -32.204  1.00  0.00     0.117 A 
HETATM   15  C   UNL     1      -3.337   0.366 -32.555  1.00  0.00     0.020 A 
ENDBRANCH   1   5
BRANCH   2  16
HETATM   16  C   UNL     1     -10.073   1.342 -33.004  1.00  0.00     0.141 C 
BRANCH  16  17
HETATM   17  C   UNL     1     -11.474   1.085 -33.503  1.00  0.00    -0.049 A 
HETATM   18  C   UNL     1     -12.183   2.098 -34.166  1.00  0.00     0.010 A 
HETATM   19  C   UNL     1     -13.485   1.876 -34.617  1.00  0.00     0.037 A 
HETATM   20  C   UNL     1     -14.079   0.637 -34.406  1.00  0.00     0.065 A 
HETATM   21  C   UNL     1     -13.393  -0.380 -33.753  1.00  0.00     0.037 A 
HETATM   22  C   UNL     1     -12.091  -0.158 -33.300  1.00  0.00     0.010 A 
BRANCH  20  23
HETATM   23  O   UNL     1     -15.349   0.376 -34.828  1.00  0.00    -0.361 OA
HETATM   24  H   UNL     1     -15.331  -0.427 -35.375  1.00  0.00     0.217 HD
ENDBRANCH  20  23
ENDBRANCH  16  17
ENDBRANCH   2  16
TORSDOF 4
ENDMDL
MODEL 2
REMARK VINA RESULT:      -8.1      4.222      7.544
REMARK  4 active torsions:
REMARK  status: ('A' for Active; 'I' for Inactive)
REMARK    1  A    between atoms: C_4  and  N_5 
REMARK       I    between atoms: N_5  and  C_6 
REMARK    2  A    between atoms: C_6  and  C_7 
REMARK    3  A    between atoms: C_7  and  C_8 
REMARK    4  A    between atoms: C_11  and  O_12 
ROOT
HETATM    1  N   UNL     1      -4.436   2.137 -32.359  1.00  0.00    -0.325 N 
HETATM    2  C   UNL     1      -4.750   2.800 -31.191  1.00  0.00     0.226 C 
HETATM    3  O   UNL     1      -5.221   2.301 -30.173  1.00  0.00    -0.273 OA
HETATM    4  H   UNL     1      -4.074   2.678 -33.143  1.00  0.00     0.169 HD
ENDROOT
BRANCH   1   5
HETATM    5  C   UNL     1      -4.586   0.764 -32.671  1.00  0.00     0.065 A 
HETATM    6  C   UNL     1      -3.755  -0.237 -32.157  1.00  0.00     0.038 A 
HETATM    7  C   UNL     1      -3.958  -1.577 -32.503  1.00  0.00    -0.059 A 
HETATM    8  C   UNL     1      -3.090  -2.658 -31.930  1.00  0.00     0.048 C 
HETATM    9  C   UNL     1      -5.012  -1.903 -33.362  1.00  0.00     0.020 A 
HETATM   10  C   UNL     1      -5.849  -0.902 -33.883  1.00  0.00    -0.005 A 
HETATM   11  C   UNL     1      -5.642   0.451 -33.542  1.00  0.00     0.093 A 
HETATM   12  C   UNL     1      -6.906  -1.214 -34.748  1.00  0.00     0.015 A 
HETATM   13  N   UNL     1      -6.433   1.439 -34.032  1.00  0.00    -0.258 NA
HETATM   14  C   UNL     1      -7.441   1.096 -34.863  1.00  0.00     0.117 A 
HETATM   15  C   UNL     1      -7.716  -0.201 -35.246  1.00  0.00     0.020 A 
ENDBRANCH   1   5
BRANCH   2  16
HETATM   16  C   UNL     1      -4.450   4.289 -31.265  1.00  0.00     0.141 C 
BRANCH  16  17
HETATM   17  C   UNL     1      -3.483   4.630 -32.372  1.00  0.00    -0.049 A 
HETATM   18  C   UNL     1      -3.961   4.949 -33.652  1.00  0.00     0.010 A 
HETATM   19  C   UNL     1      -3.074   5.250 -34.688  1.00  0.00     0.037 A 
HETATM   20  C   UNL     1      -1.706   5.233 -34.441  1.00  0.00     0.065 A 
HETATM   21  C   UNL     1      -1.213   4.921 -33.180  1.00  0.00     0.037 A 
HETATM   22  C   UNL     1      -2.099   4.619 -32.144  1.00  0.00     0.010 A 
BRANCH  20  23
HETATM   23  O   UNL     1      -0.804   5.519 -35.423  1.00  0.00    -0.361 OA
HETATM   24  H   UNL     1      -1.293   5.752 -36.229  1.00  0.00     0.217 HD
ENDBRANCH  20  23
ENDBRANCH  16  17
ENDBRANCH   2  16
TORSDOF 4
ENDMDL
MODEL 3
REMARK VINA RESULT:      -8.0      3.846      7.862
REMARK  4 active torsions:
REMARK  status: ('A' for Active; 'I' for Inactive)
REMARK    1  A    between atoms: C_4  and  N_5 
REMARK       I    between atoms: N_5  and  C_6 
REMARK    2  A    between atoms: C_6  and  C_7 
REMARK    3  A    between atoms: C_7  and  C_8 
REMARK    4  A    between atoms: C_11  and  O_12 
ROOT
HETATM    1  N   UNL     1      -4.618   1.600 -32.797  1.00  0.00    -0.325 N 
HETATM    2  C   UNL     1      -4.535   2.553 -31.804  1.00  0.00     0.226 C 
HETATM    3  O   UNL     1      -5.475   3.070 -31.208  1.00  0.00    -0.273 OA
HETATM    4  H   UNL     1      -3.756   1.273 -33.231  1.00  0.00     0.169 HD
ENDROOT
BRANCH   1   5
HETATM    5  C   UNL     1      -5.770   1.006 -33.367  1.00  0.00     0.065 A 
HETATM    6  C   UNL     1      -6.978   1.687 -33.548  1.00  0.00     0.038 A 
HETATM    7  C   UNL     1      -8.079   1.043 -34.121  1.00  0.00    -0.059 A 
HETATM    8  C   UNL     1      -9.368   1.778 -34.345  1.00  0.00     0.048 C 
HETATM    9  C   UNL     1      -7.951  -0.290 -34.522  1.00  0.00     0.020 A 
HETATM   10  C   UNL     1      -6.741  -0.980 -34.342  1.00  0.00    -0.005 A 
HETATM   11  C   UNL     1      -5.631  -0.336 -33.757  1.00  0.00     0.093 A 
HETATM   12  C   UNL     1      -6.600  -2.318 -34.735  1.00  0.00     0.015 A 
HETATM   13  N   UNL     1      -4.451  -0.978 -33.569  1.00  0.00    -0.258 NA
HETATM   14  C   UNL     1      -4.356  -2.268 -33.962  1.00  0.00     0.117 A 
HETATM   15  C   UNL     1      -5.390  -2.973 -34.544  1.00  0.00     0.020 A 
ENDBRANCH   1   5
BRANCH   2  16
HETATM   16  C   UNL     1      -3.099   2.943 -31.485  1.00  0.00     0.141 C 
BRANCH  16  17
HETATM   17  C   UNL     1      -2.685   4.227 -32.161  1.00  0.00    -0.049 A 
HETATM   18  C   UNL     1      -2.366   4.233 -33.528  1.00  0.00     0.010 A 
HETATM   19  C   UNL     1      -1.966   5.412 -34.159  1.00  0.00     0.037 A 
HETATM   20  C   UNL     1      -1.887   6.588 -33.422  1.00  0.00     0.065 A 
HETATM   21  C   UNL     1      -2.200   6.603 -32.068  1.00  0.00     0.037 A 
HETATM   22  C   UNL     1      -2.599   5.424 -31.436  1.00  0.00     0.010 A 
BRANCH  20  23
HETATM   23  O   UNL     1      -1.499   7.763 -33.997  1.00  0.00    -0.361 OA
HETATM   24  H   UNL     1      -0.540   7.861 -33.874  1.00  0.00     0.217 HD
ENDBRANCH  20  23
ENDBRANCH  16  17
ENDBRANCH   2  16
TORSDOF 4
ENDMDL
MODEL 4
REMARK VINA RESULT:      -8.0      1.624      3.302
REMARK  4 active torsions:
REMARK  status: ('A' for Active; 'I' for Inactive)
REMARK    1  A    between atoms: C_4  and  N_5 
REMARK       I    between atoms: N_5  and  C_6 
REMARK    2  A    between atoms: C_6  and  C_7 
REMARK    3  A    between atoms: C_7  and  C_8 
REMARK    4  A    between atoms: C_11  and  O_12 
ROOT
HETATM    1  N   UNL     1      -8.137  -0.263 -32.997  1.00  0.00    -0.325 N 
HETATM    2  C   UNL     1      -8.971   0.575 -33.707  1.00  0.00     0.226 C 
HETATM    3  O   UNL     1      -8.640   1.351 -34.598  1.00  0.00    -0.273 OA
HETATM    4  H   UNL     1      -8.539  -0.841 -32.260  1.00  0.00     0.169 HD
ENDROOT
BRANCH   1   5
HETATM    5  C   UNL     1      -6.735  -0.425 -33.106  1.00  0.00     0.065 A 
HETATM    6  C   UNL     1      -5.812   0.509 -32.623  1.00  0.00     0.038 A 
HETATM    7  C   UNL     1      -4.438   0.288 -32.759  1.00  0.00    -0.059 A 
HETATM    8  C   UNL     1      -3.444   1.272 -32.215  1.00  0.00     0.048 C 
HETATM    9  C   UNL     1      -3.998  -0.887 -33.375  1.00  0.00     0.020 A 
HETATM   10  C   UNL     1      -4.920  -1.829 -33.864  1.00  0.00    -0.005 A 
HETATM   11  C   UNL     1      -6.306  -1.605 -33.735  1.00  0.00     0.093 A 
HETATM   12  C   UNL     1      -4.493  -3.009 -34.489  1.00  0.00     0.015 A 
HETATM   13  N   UNL     1      -7.218  -2.495 -34.200  1.00  0.00    -0.258 NA
HETATM   14  C   UNL     1      -6.766  -3.621 -34.795  1.00  0.00     0.117 A 
HETATM   15  C   UNL     1      -5.429  -3.920 -34.961  1.00  0.00     0.020 A 
ENDBRANCH   1   5
BRANCH   2  16
HETATM   16  C   UNL     1     -10.425   0.458 -33.273  1.00  0.00     0.141 C 
BRANCH  16  17
HETATM   17  C   UNL     1     -11.258   1.633 -33.724  1.00  0.00    -0.049 A 
HETATM   18  C   UNL     1     -12.026   1.545 -34.895  1.00  0.00     0.010 A 
HETATM   19  C   UNL     1     -12.787   2.631 -35.329  1.00  0.00     0.037 A 
HETATM   20  C   UNL     1     -12.782   3.808 -34.589  1.00  0.00     0.065 A 
HETATM   21  C   UNL     1     -12.029   3.915 -33.426  1.00  0.00     0.037 A 
HETATM   22  C   UNL     1     -11.266   2.829 -32.992  1.00  0.00     0.010 A 
BRANCH  20  23
HETATM   23  O   UNL     1     -13.509   4.895 -34.977  1.00  0.00    -0.361 OA
HETATM   24  H   UNL     1     -14.270   4.982 -34.380  1.00  0.00     0.217 HD
ENDBRANCH  20  23
ENDBRANCH  16  17
ENDBRANCH   2  16
TORSDOF 4
ENDMDL
MODEL 5
REMARK VINA RESULT:      -7.9     13.728     15.201
REMARK  4 active torsions:
REMARK  status: ('A' for Active; 'I' for Inactive)
REMARK    1  A    between atoms: C_4  and  N_5 
REMARK       I    between atoms: N_5  and  C_6 
REMARK    2  A    between atoms: C_6  and  C_7 
REMARK    3  A    between atoms: C_7  and  C_8 
REMARK    4  A    between atoms: C_11  and  O_12 
ROOT
HETATM    1  N   UNL     1      -5.363 -13.711 -39.563  1.00  0.00    -0.325 N 
HETATM    2  C   UNL     1      -6.091 -12.543 -39.645  1.00  0.00     0.226 C 
HETATM    3  O   UNL     1      -5.887 -11.608 -40.415  1.00  0.00    -0.273 OA
HETATM    4  H   UNL     1      -5.624 -14.398 -38.857  1.00  0.00     0.169 HD
ENDROOT
BRANCH   1   5
HETATM    5  C   UNL     1      -4.230 -14.108 -40.313  1.00  0.00     0.065 A 
HETATM    6  C   UNL     1      -4.310 -14.650 -41.600  1.00  0.00     0.038 A 
HETATM    7  C   UNL     1      -3.150 -15.020 -42.289  1.00  0.00    -0.059 A 
HETATM    8  C   UNL     1      -3.228 -15.572 -43.682  1.00  0.00     0.048 C 
HETATM    9  C   UNL     1      -1.908 -14.829 -41.677  1.00  0.00     0.020 A 
HETATM   10  C   UNL     1      -1.821 -14.287 -40.384  1.00  0.00    -0.005 A 
HETATM   11  C   UNL     1      -2.989 -13.920 -39.683  1.00  0.00     0.093 A 
HETATM   12  C   UNL     1      -0.583 -14.095 -39.756  1.00  0.00     0.015 A 
HETATM   13  N   UNL     1      -2.936 -13.396 -38.433  1.00  0.00    -0.258 NA
HETATM   14  C   UNL     1      -1.722 -13.227 -37.863  1.00  0.00     0.117 A 
HETATM   15  C   UNL     1      -0.530 -13.556 -38.477  1.00  0.00     0.020 A 
ENDBRANCH   1   5
BRANCH   2  16
HETATM   16  C   UNL     1      -7.236 -12.495 -38.644  1.00  0.00     0.141 C 
BRANCH  16  17
HETATM   17  C   UNL     1      -8.558 -12.880 -39.261  1.00  0.00    -0.049 A 
HETATM   18  C   UNL     1      -8.952 -14.226 -39.303  1.00  0.00     0.010 A 
HETATM   19  C   UNL     1     -10.166 -14.595 -39.886  1.00  0.00     0.037 A 
HETATM   20  C   UNL     1     -10.989 -13.614 -40.426  1.00  0.00     0.065 A 
HETATM   21  C   UNL     1     -10.618 -12.274 -40.393  1.00  0.00     0.037 A 
HETATM   22  C   UNL     1      -9.404 -11.906 -39.812  1.00  0.00     0.010 A 
BRANCH  20  23
HETATM   23  O   UNL     1     -12.182 -13.928 -41.007  1.00  0.00    -0.361 OA
HETATM   24  H   UNL     1     -12.482 -13.162 -41.524  1.00  0.00     0.217 HD
ENDBRANCH  20  23
ENDBRANCH  16  17
ENDBRANCH   2  16
TORSDOF 4
ENDMDL
MODEL 6
REMARK VINA RESULT:      -7.7      3.681      7.624
REMARK  4 active torsions:
REMARK  status: ('A' for Active; 'I' for Inactive)
REMARK    1  A    between atoms: C_4  and  N_5 
REMARK       I    between atoms: N_5  and  C_6 
REMARK    2  A    between atoms: C_6  and  C_7 
REMARK    3  A    between atoms: C_7  and  C_8 
REMARK    4  A    between atoms: C_11  and  O_12 
ROOT
HETATM    1  N   UNL     1      -4.832  -0.161 -31.191  1.00  0.00    -0.325 N 
HETATM    2  C   UNL     1      -3.720  -0.196 -32.005  1.00  0.00     0.226 C 
HETATM    3  O   UNL     1      -3.359   0.680 -32.786  1.00  0.00    -0.273 OA
HETATM    4  H   UNL     1      -5.032  -0.971 -30.606  1.00  0.00     0.169 HD
ENDROOT
BRANCH   1   5
HETATM    5  C   UNL     1      -5.811   0.853 -31.064  1.00  0.00     0.065 A 
HETATM    6  C   UNL     1      -5.660   1.970 -30.236  1.00  0.00     0.038 A 
HETATM    7  C   UNL     1      -6.665   2.939 -30.158  1.00  0.00    -0.059 A 
HETATM    8  C   UNL     1      -6.495   4.155 -29.295  1.00  0.00     0.048 C 
HETATM    9  C   UNL     1      -7.820   2.782 -30.931  1.00  0.00     0.020 A 
HETATM   10  C   UNL     1      -7.978   1.662 -31.764  1.00  0.00    -0.005 A 
HETATM   11  C   UNL     1      -6.969   0.679 -31.838  1.00  0.00     0.093 A 
HETATM   12  C   UNL     1      -9.132   1.489 -32.541  1.00  0.00     0.015 A 
HETATM   13  N   UNL     1      -7.096  -0.414 -32.633  1.00  0.00    -0.258 NA
HETATM   14  C   UNL     1      -8.224  -0.544 -33.366  1.00  0.00     0.117 A 
HETATM   15  C   UNL     1      -9.258   0.371 -33.355  1.00  0.00     0.020 A 
ENDBRANCH   1   5
BRANCH   2  16
HETATM   16  C   UNL     1      -2.923  -1.484 -31.853  1.00  0.00     0.141 C 
BRANCH  16  17
HETATM   17  C   UNL     1      -3.495  -2.616 -32.670  1.00  0.00    -0.049 A 
HETATM   18  C   UNL     1      -3.133  -3.942 -32.389  1.00  0.00     0.010 A 
HETATM   19  C   UNL     1      -3.644  -4.996 -33.149  1.00  0.00     0.037 A 
HETATM   20  C   UNL     1      -4.520  -4.722 -34.193  1.00  0.00     0.065 A 
HETATM   21  C   UNL     1      -4.892  -3.416 -34.487  1.00  0.00     0.037 A 
HETATM   22  C   UNL     1      -4.380  -2.362 -33.728  1.00  0.00     0.010 A 
BRANCH  20  23
HETATM   23  O   UNL     1      -5.042  -5.720 -34.962  1.00  0.00    -0.361 OA
HETATM   24  H   UNL     1      -5.351  -5.331 -35.797  1.00  0.00     0.217 HD
ENDBRANCH  20  23
ENDBRANCH  16  17
ENDBRANCH   2  16
TORSDOF 4
ENDMDL
MODEL 7
REMARK VINA RESULT:      -7.7     13.688     15.431
REMARK  4 active torsions:
REMARK  status: ('A' for Active; 'I' for Inactive)
REMARK    1  A    between atoms: C_4  and  N_5 
REMARK       I    between atoms: N_5  and  C_6 
REMARK    2  A    between atoms: C_6  and  C_7 
REMARK    3  A    between atoms: C_7  and  C_8 
REMARK    4  A    between atoms: C_11  and  O_12 
ROOT
HETATM    1  N   UNL     1      -5.460 -12.758 -39.240  1.00  0.00    -0.325 N 
HETATM    2  C   UNL     1      -6.261 -13.240 -38.226  1.00  0.00     0.226 C 
HETATM    3  O   UNL     1      -6.026 -14.208 -37.509  1.00  0.00    -0.273 OA
HETATM    4  H   UNL     1      -5.788 -11.958 -39.780  1.00  0.00     0.169 HD
ENDROOT
BRANCH   1   5
HETATM    5  C   UNL     1      -4.214 -13.248 -39.700  1.00  0.00     0.065 A 
HETATM    6  C   UNL     1      -3.037 -13.185 -38.947  1.00  0.00     0.038 A 
HETATM    7  C   UNL     1      -1.838 -13.691 -39.459  1.00  0.00    -0.059 A 
HETATM    8  C   UNL     1      -0.579 -13.654 -38.644  1.00  0.00     0.048 C 
HETATM    9  C   UNL     1      -1.835 -14.272 -40.730  1.00  0.00     0.020 A 
HETATM   10  C   UNL     1      -3.014 -14.337 -41.492  1.00  0.00    -0.005 A 
HETATM   11  C   UNL     1      -4.223 -13.821 -40.981  1.00  0.00     0.093 A 
HETATM   12  C   UNL     1      -3.025 -14.912 -42.770  1.00  0.00     0.015 A 
HETATM   13  N   UNL     1      -5.376 -13.868 -41.695  1.00  0.00    -0.258 NA
HETATM   14  C   UNL     1      -5.345 -14.431 -42.923  1.00  0.00     0.117 A 
HETATM   15  C   UNL     1      -4.207 -14.962 -43.498  1.00  0.00     0.020 A 
ENDBRANCH   1   5
BRANCH   2  16
HETATM   16  C   UNL     1      -7.539 -12.432 -38.055  1.00  0.00     0.141 C 
BRANCH  16  17
HETATM   17  C   UNL     1      -8.664 -12.941 -38.922  1.00  0.00    -0.049 A 
HETATM   18  C   UNL     1      -9.447 -12.041 -39.661  1.00  0.00     0.010 A 
HETATM   19  C   UNL     1     -10.501 -12.500 -40.454  1.00  0.00     0.037 A 
HETATM   20  C   UNL     1     -10.772 -13.862 -40.508  1.00  0.00     0.065 A 
HETATM   21  C   UNL     1     -10.008 -14.770 -39.784  1.00  0.00     0.037 A 
HETATM   22  C   UNL     1      -8.954 -14.311 -38.990  1.00  0.00     0.010 A 
BRANCH  20  23
HETATM   23  O   UNL     1     -11.792 -14.354 -41.267  1.00  0.00    -0.361 OA
HETATM   24  H   UNL     1     -11.569 -15.263 -41.526  1.00  0.00     0.217 HD
ENDBRANCH  20  23
ENDBRANCH  16  17
ENDBRANCH   2  16
TORSDOF 4
ENDMDL
MODEL 8
REMARK VINA RESULT:      -7.6      3.476      6.765
REMARK  4 active torsions:
REMARK  status: ('A' for Active; 'I' for Inactive)
REMARK    1  A    between atoms: C_4  and  N_5 
REMARK       I    between atoms: N_5  and  C_6 
REMARK    2  A    between atoms: C_6  and  C_7 
REMARK    3  A    between atoms: C_7  and  C_8 
REMARK    4  A    between atoms: C_11  and  O_12 
ROOT
HETATM    1  N   UNL     1      -6.802   0.967 -33.681  1.00  0.00    -0.325 N 
HETATM    2  C   UNL     1      -7.399  -0.259 -33.880  1.00  0.00     0.226 C 
HETATM    3  O   UNL     1      -8.254  -0.779 -33.169  1.00  0.00    -0.273 OA
HETATM    4  H   UNL     1      -6.082   1.270 -34.336  1.00  0.00     0.169 HD
ENDROOT
BRANCH   1   5
HETATM    5  C   UNL     1      -7.008   1.899 -32.635  1.00  0.00     0.065 A 
HETATM    6  C   UNL     1      -8.259   2.143 -32.057  1.00  0.00     0.038 A 
HETATM    7  C   UNL     1      -8.395   3.075 -31.024  1.00  0.00    -0.059 A 
HETATM    8  C   UNL     1      -9.729   3.318 -30.380  1.00  0.00     0.048 C 
HETATM    9  C   UNL     1      -7.260   3.752 -30.567  1.00  0.00     0.020 A 
HETATM   10  C   UNL     1      -6.002   3.512 -31.144  1.00  0.00    -0.005 A 
HETATM   11  C   UNL     1      -5.863   2.578 -32.192  1.00  0.00     0.093 A 
HETATM   12  C   UNL     1      -4.857   4.187 -30.700  1.00  0.00     0.015 A 
HETATM   13  N   UNL     1      -4.660   2.328 -32.769  1.00  0.00    -0.258 NA
HETATM   14  C   UNL     1      -3.580   3.000 -32.311  1.00  0.00     0.117 A 
HETATM   15  C   UNL     1      -3.626   3.927 -31.290  1.00  0.00     0.020 A 
ENDBRANCH   1   5
BRANCH   2  16
HETATM   16  C   UNL     1      -6.884  -0.966 -35.126  1.00  0.00     0.141 C 
BRANCH  16  17
HETATM   17  C   UNL     1      -6.119  -2.225 -34.801  1.00  0.00    -0.049 A 
HETATM   18  C   UNL     1      -6.684  -3.482 -35.064  1.00  0.00     0.010 A 
HETATM   19  C   UNL     1      -5.990  -4.653 -34.753  1.00  0.00     0.037 A 
HETATM   20  C   UNL     1      -4.728  -4.566 -34.178  1.00  0.00     0.065 A 
HETATM   21  C   UNL     1      -4.150  -3.331 -33.910  1.00  0.00     0.037 A 
HETATM   22  C   UNL     1      -4.844  -2.159 -34.220  1.00  0.00     0.010 A 
BRANCH  20  23
HETATM   23  O   UNL     1      -4.016  -5.683 -33.855  1.00  0.00    -0.361 OA
HETATM   24  H   UNL     1      -4.363  -6.036 -33.019  1.00  0.00     0.217 HD
ENDBRANCH  20  23
ENDBRANCH  16  17
ENDBRANCH   2  16
TORSDOF 4
ENDMDL
MODEL 9
REMARK VINA RESULT:      -7.6      1.765      2.453
REMARK  4 active torsions:
REMARK  status: ('A' for Active; 'I' for Inactive)
REMARK    1  A    between atoms: C_4  and  N_5 
REMARK       I    between atoms: N_5  and  C_6 
REMARK    2  A    between atoms: C_6  and  C_7 
REMARK    3  A    between atoms: C_7  and  C_8 
REMARK    4  A    between atoms: C_11  and  O_12 
ROOT
HETATM    1  N   UNL     1      -9.706   1.381 -32.379  1.00  0.00    -0.325 N 
HETATM    2  C   UNL     1     -10.218   2.380 -33.180  1.00  0.00     0.226 C 
HETATM    3  O   UNL     1      -9.709   2.826 -34.205  1.00  0.00    -0.273 OA
HETATM    4  H   UNL     1     -10.219   1.123 -31.537  1.00  0.00     0.169 HD
ENDROOT
BRANCH   1   5
HETATM    5  C   UNL     1      -8.501   0.653 -32.523  1.00  0.00     0.065 A 
HETATM    6  C   UNL     1      -8.336  -0.387 -33.444  1.00  0.00     0.038 A 
HETATM    7  C   UNL     1      -7.116  -1.065 -33.539  1.00  0.00    -0.059 A 
HETATM    8  C   UNL     1      -6.924  -2.160 -34.547  1.00  0.00     0.048 C 
HETATM    9  C   UNL     1      -6.060  -0.680 -32.709  1.00  0.00     0.020 A 
HETATM   10  C   UNL     1      -6.220   0.362 -31.781  1.00  0.00    -0.005 A 
HETATM   11  C   UNL     1      -7.451   1.043 -31.677  1.00  0.00     0.093 A 
HETATM   12  C   UNL     1      -5.171   0.755 -30.939  1.00  0.00     0.015 A 
HETATM   13  N   UNL     1      -7.634   2.053 -30.789  1.00  0.00    -0.258 NA
HETATM   14  C   UNL     1      -6.598   2.401 -29.995  1.00  0.00     0.117 A 
HETATM   15  C   UNL     1      -5.360   1.790 -30.032  1.00  0.00     0.020 A 
ENDBRANCH   1   5
BRANCH   2  16
HETATM   16  C   UNL     1     -11.543   2.922 -32.666  1.00  0.00     0.141 C 
BRANCH  16  17
HETATM   17  C   UNL     1     -12.729   2.188 -33.241  1.00  0.00    -0.049 A 
HETATM   18  C   UNL     1     -12.553   1.275 -34.292  1.00  0.00     0.010 A 
HETATM   19  C   UNL     1     -13.646   0.602 -34.842  1.00  0.00     0.037 A 
HETATM   20  C   UNL     1     -14.919   0.843 -34.338  1.00  0.00     0.065 A 
HETATM   21  C   UNL     1     -15.115   1.743 -33.297  1.00  0.00     0.037 A 
HETATM   22  C   UNL     1     -14.022   2.417 -32.748  1.00  0.00     0.010 A 
BRANCH  20  23
HETATM   23  O   UNL     1     -16.015   0.211 -34.846  1.00  0.00    -0.361 OA
HETATM   24  H   UNL     1     -15.808  -0.081 -35.749  1.00  0.00     0.217 HD
ENDBRANCH  20  23
ENDBRANCH  16  17
ENDBRANCH   2  16
TORSDOF 4
ENDMDL
MODEL 10
REMARK VINA RESULT:      -7.5      2.411      7.313
REMARK  4 active torsions:
REMARK  status: ('A' for Active; 'I' for Inactive)
REMARK    1  A    between atoms: C_4  and  N_5 
REMARK       I    between atoms: N_5  and  C_6 
REMARK    2  A    between atoms: C_6  and  C_7 
REMARK    3  A    between atoms: C_7  and  C_8 
REMARK    4  A    between atoms: C_11  and  O_12 
ROOT
HETATM    1  N   UNL     1      -8.849   0.104 -33.294  1.00  0.00    -0.325 N 
HETATM    2  C   UNL     1      -7.836  -0.097 -34.208  1.00  0.00     0.226 C 
HETATM    3  O   UNL     1      -7.586   0.602 -35.186  1.00  0.00    -0.273 OA
HETATM    4  H   UNL     1      -8.964  -0.571 -32.539  1.00  0.00     0.169 HD
ENDROOT
BRANCH   1   5
HETATM    5  C   UNL     1      -9.828   1.125 -33.261  1.00  0.00     0.065 A 
HETATM    6  C   UNL     1     -10.915   1.179 -34.140  1.00  0.00     0.038 A 
HETATM    7  C   UNL     1     -11.851   2.214 -34.053  1.00  0.00    -0.059 A 
HETATM    8  C   UNL     1     -13.035   2.259 -34.974  1.00  0.00     0.048 C 
HETATM    9  C   UNL     1     -11.692   3.190 -33.064  1.00  0.00     0.020 A 
HETATM   10  C   UNL     1     -10.602   3.143 -32.178  1.00  0.00    -0.005 A 
HETATM   11  C   UNL     1      -9.653   2.104 -32.270  1.00  0.00     0.093 A 
HETATM   12  C   UNL     1     -10.428   4.116 -31.186  1.00  0.00     0.015 A 
HETATM   13  N   UNL     1      -8.590   2.034 -31.429  1.00  0.00    -0.258 NA
HETATM   14  C   UNL     1      -8.457   2.993 -30.485  1.00  0.00     0.117 A 
HETATM   15  C   UNL     1      -9.340   4.042 -30.325  1.00  0.00     0.020 A 
ENDBRANCH   1   5
BRANCH   2  16
HETATM   16  C   UNL     1      -7.001  -1.329 -33.895  1.00  0.00     0.141 C 
BRANCH  16  17
HETATM   17  C   UNL     1      -5.768  -1.002 -33.089  1.00  0.00    -0.049 A 
HETATM   18  C   UNL     1      -5.891  -0.518 -31.777  1.00  0.00     0.010 A 
HETATM   19  C   UNL     1      -4.757  -0.196 -31.029  1.00  0.00     0.037 A 
HETATM   20  C   UNL     1      -3.497  -0.361 -31.593  1.00  0.00     0.065 A 
HETATM   21  C   UNL     1      -3.354  -0.841 -32.890  1.00  0.00     0.037 A 
HETATM   22  C   UNL     1      -4.488  -1.161 -33.639  1.00  0.00     0.010 A 
BRANCH  20  23
HETATM   23  O   UNL     1      -2.363  -0.059 -30.899  1.00  0.00    -0.361 OA
HETATM   24  H   UNL     1      -2.611   0.472 -30.124  1.00  0.00     0.217 HD
ENDBRANCH  20  23
ENDBRANCH  16  17
ENDBRANCH   2  16
TORSDOF 4
ENDMDL
