MODEL 1
REMARK VINA RESULT:     -10.2      0.000      0.000
REMARK  9 active torsions:
REMARK  status: ('A' for Active; 'I' for Inactive)
REMARK    1  A    between atoms: C_2  and  C_3 
REMARK    2  A    between atoms: C_6  and  N_7 
REMARK       I    between atoms: N_7  and  C_8 
REMARK    3  A    between atoms: C_8  and  C_9 
REMARK    4  A    between atoms: C_9  and  S_10 
REMARK    5  A    between atoms: S_10  and  C_11 
REMARK    6  A    between atoms: C_15  and  C_16 
REMARK       I    between atoms: C_16  and  N_17 
REMARK    7  A    between atoms: N_17  and  C_18 
REMARK    8  A    between atoms: C_19  and  O_20 
REMARK    9  A    between atoms: C_27  and  C_28 
ROOT
HETATM    1  C   UNL     1      -3.669   3.927 -31.370  1.00  0.00     0.087 C 
HETATM    2  N   UNL     1      -3.004   2.732 -31.130  1.00  0.00    -0.353 N 
HETATM    3  C   UNL     1      -3.611   1.484 -31.133  1.00  0.00     0.019 C 
HETATM    4  C   UNL     1      -2.677   0.297 -31.137  1.00  0.00     0.069 C 
HETATM    5  C   UNL     1      -4.960   1.395 -31.169  1.00  0.00     0.046 C 
HETATM    6  C   UNL     1      -5.813   2.650 -30.993  1.00  0.00     0.104 C 
HETATM    7  C   UNL     1      -5.018   3.950 -31.213  1.00  0.00     0.055 C 
HETATM    8  C   UNL     1      -5.792   5.255 -31.124  1.00  0.00     0.019 C 
HETATM    9  N   UNL     1      -6.436   6.337 -31.049  1.00  0.00    -0.096 N 
HETATM   10  H   UNL     1      -2.006   2.712 -31.317  1.00  0.00     0.166 HD
ENDROOT
BRANCH   1  11
HETATM   11  S   UNL     1      -2.878   5.379 -31.978  1.00  0.00    -0.102 SA
BRANCH  11  12
HETATM   12  C   UNL     1      -1.103   5.071 -31.946  1.00  0.00     0.184 C 
BRANCH  12  13
HETATM   13  C   UNL     1      -0.358   5.222 -30.622  1.00  0.00     0.231 C 
HETATM   14  N   UNL     1      -0.964   5.992 -29.652  1.00  0.00    -0.327 N 
HETATM   15  H   UNL     1      -1.942   6.220 -29.803  1.00  0.00     0.169 HD
HETATM   16  O   UNL     1       0.765   4.727 -30.528  1.00  0.00    -0.272 OA
BRANCH  14  17
HETATM   17  C   UNL     1      -0.324   6.689 -28.601  1.00  0.00     0.034 A 
HETATM   18  C   UNL     1      -0.387   6.308 -27.259  1.00  0.00     0.030 A 
HETATM   19  C   UNL     1       0.439   6.916 -26.305  1.00  0.00     0.009 A 
HETATM   20  C   UNL     1       1.340   7.919 -26.675  1.00  0.00    -0.058 A 
HETATM   21  C   UNL     1       1.357   8.345 -28.007  1.00  0.00     0.009 A 
HETATM   22  C   UNL     1       0.523   7.745 -28.956  1.00  0.00     0.030 A 
BRANCH  20  23
HETATM   23  C   UNL     1       2.333   8.463 -25.680  1.00  0.00     0.034 C 
HETATM   24  C   UNL     1       1.953   9.867 -25.224  1.00  0.00     0.010 C 
ENDBRANCH  20  23
ENDBRANCH  14  17
ENDBRANCH  12  13
ENDBRANCH  11  12
ENDBRANCH   1  11
BRANCH   6  25
HETATM   25  C   UNL     1      -7.097   2.641 -31.821  1.00  0.00    -0.044 A 
HETATM   26  C   UNL     1      -8.321   2.318 -31.207  1.00  0.00     0.008 A 
HETATM   27  C   UNL     1      -9.500   2.278 -31.949  1.00  0.00     0.001 A 
HETATM   28  C   UNL     1      -9.476   2.564 -33.311  1.00  0.00     0.000 A 
HETATM   29  C   UNL     1      -8.274   2.895 -33.932  1.00  0.00     0.001 A 
HETATM   30  C   UNL     1      -7.091   2.938 -33.194  1.00  0.00     0.008 A 
ENDBRANCH   6  25
BRANCH   5  31
HETATM   31  C   UNL     1      -5.544   0.123 -31.695  1.00  0.00     0.255 C 
HETATM   32  N   UNL     1      -5.168  -0.227 -32.965  1.00  0.00    -0.321 N 
HETATM   33  H   UNL     1      -4.646   0.429 -33.533  1.00  0.00     0.169 HD
HETATM   34  O   UNL     1      -6.271  -0.534 -30.954  1.00  0.00    -0.268 OA
BRANCH  32  35
HETATM   35  C   UNL     1      -5.367  -1.491 -33.581  1.00  0.00     0.068 A 
HETATM   36  C   UNL     1      -6.617  -1.732 -34.185  1.00  0.00     0.095 A 
HETATM   37  C   UNL     1      -6.844  -2.945 -34.851  1.00  0.00     0.039 A 
HETATM   38  C   UNL     1      -5.845  -3.917 -34.909  1.00  0.00     0.003 A 
HETATM   39  C   UNL     1      -4.614  -3.686 -34.307  1.00  0.00     0.002 A 
HETATM   40  C   UNL     1      -4.377  -2.478 -33.648  1.00  0.00     0.032 A 
BRANCH  36  41
HETATM   41  O   UNL     1      -7.538  -0.715 -34.078  1.00  0.00    -0.354 OA
HETATM   42  C   UNL     1      -7.913  -0.079 -35.295  1.00  0.00     0.210 C 
ENDBRANCH  36  41
ENDBRANCH  32  35
ENDBRANCH   5  31
TORSDOF 9
ENDMDL
MODEL 2
REMARK VINA RESULT:     -10.2      1.747      2.632
REMARK  9 active torsions:
REMARK  status: ('A' for Active; 'I' for Inactive)
REMARK    1  A    between atoms: C_2  and  C_3 
REMARK    2  A    between atoms: C_6  and  N_7 
REMARK       I    between atoms: N_7  and  C_8 
REMARK    3  A    between atoms: C_8  and  C_9 
REMARK    4  A    between atoms: C_9  and  S_10 
REMARK    5  A    between atoms: S_10  and  C_11 
REMARK    6  A    between atoms: C_15  and  C_16 
REMARK       I    between atoms: C_16  and  N_17 
REMARK    7  A    between atoms: N_17  and  C_18 
REMARK    8  A    between atoms: C_19  and  O_20 
REMARK    9  A    between atoms: C_27  and  C_28 
ROOT
HETATM    1  C   UNL     1      -4.781   3.929 -32.944  1.00  0.00     0.087 C 
HETATM    2  N   UNL     1      -3.857   2.961 -32.574  1.00  0.00    -0.353 N 
HETATM    3  C   UNL     1      -4.179   1.642 -32.282  1.00  0.00     0.019 C 
HETATM    4  C   UNL     1      -3.013   0.686 -32.184  1.00  0.00     0.069 C 
HETATM    5  C   UNL     1      -5.476   1.284 -32.141  1.00  0.00     0.046 C 
HETATM    6  C   UNL     1      -6.563   2.356 -32.093  1.00  0.00     0.104 C 
HETATM    7  C   UNL     1      -6.087   3.716 -32.635  1.00  0.00     0.055 C 
HETATM    8  C   UNL     1      -7.115   4.834 -32.689  1.00  0.00     0.019 C 
HETATM    9  N   UNL     1      -7.970   5.761 -32.734  1.00  0.00    -0.096 N 
HETATM   10  H   UNL     1      -2.896   3.101 -32.871  1.00  0.00     0.166 HD
ENDROOT
BRANCH   1  11
HETATM   11  S   UNL     1      -4.373   5.356 -33.891  1.00  0.00    -0.102 SA
BRANCH  11  12
HETATM   12  C   UNL     1      -2.706   5.111 -34.531  1.00  0.00     0.184 C 
BRANCH  12  13
HETATM   13  C   UNL     1      -1.533   5.716 -33.764  1.00  0.00     0.231 C 
HETATM   14  N   UNL     1      -1.213   5.133 -32.556  1.00  0.00    -0.327 N 
HETATM   15  H   UNL     1      -1.631   4.228 -32.367  1.00  0.00     0.169 HD
HETATM   16  O   UNL     1      -1.001   6.728 -34.219  1.00  0.00    -0.272 OA
BRANCH  14  17
HETATM   17  C   UNL     1      -0.564   5.753 -31.462  1.00  0.00     0.034 A 
HETATM   18  C   UNL     1      -0.751   7.087 -31.098  1.00  0.00     0.030 A 
HETATM   19  C   UNL     1      -0.244   7.574 -29.886  1.00  0.00     0.009 A 
HETATM   20  C   UNL     1       0.461   6.735 -29.018  1.00  0.00    -0.058 A 
HETATM   21  C   UNL     1       0.703   5.415 -29.412  1.00  0.00     0.009 A 
HETATM   22  C   UNL     1       0.206   4.934 -30.629  1.00  0.00     0.030 A 
BRANCH  20  23
HETATM   23  C   UNL     1       0.871   7.217 -27.649  1.00  0.00     0.034 C 
HETATM   24  C   UNL     1       1.532   8.589 -27.717  1.00  0.00     0.010 C 
ENDBRANCH  20  23
ENDBRANCH  14  17
ENDBRANCH  12  13
ENDBRANCH  11  12
ENDBRANCH   1  11
BRANCH   6  25
HETATM   25  C   UNL     1      -7.875   1.929 -32.748  1.00  0.00    -0.044 A 
HETATM   26  C   UNL     1      -8.962   1.541 -31.944  1.00  0.00     0.008 A 
HETATM   27  C   UNL     1     -10.161   1.123 -32.521  1.00  0.00     0.001 A 
HETATM   28  C   UNL     1     -10.292   1.090 -33.906  1.00  0.00     0.000 A 
HETATM   29  C   UNL     1      -9.228   1.479 -34.716  1.00  0.00     0.001 A 
HETATM   30  C   UNL     1      -8.027   1.901 -34.144  1.00  0.00     0.008 A 
ENDBRANCH   6  25
BRANCH   5  31
HETATM   31  C   UNL     1      -5.810  -0.157 -32.358  1.00  0.00     0.255 C 
HETATM   32  N   UNL     1      -5.673  -0.616 -33.641  1.00  0.00    -0.321 N 
HETATM   33  H   UNL     1      -5.497   0.039 -34.393  1.00  0.00     0.169 HD
HETATM   34  O   UNL     1      -6.136  -0.832 -31.384  1.00  0.00    -0.268 OA
BRANCH  32  35
HETATM   35  C   UNL     1      -5.672  -1.975 -34.051  1.00  0.00     0.068 A 
HETATM   36  C   UNL     1      -4.534  -2.749 -33.743  1.00  0.00     0.095 A 
HETATM   37  C   UNL     1      -4.507  -4.109 -34.081  1.00  0.00     0.039 A 
HETATM   38  C   UNL     1      -5.593  -4.698 -34.728  1.00  0.00     0.003 A 
HETATM   39  C   UNL     1      -6.712  -3.937 -35.041  1.00  0.00     0.002 A 
HETATM   40  C   UNL     1      -6.752  -2.584 -34.702  1.00  0.00     0.032 A 
BRANCH  36  41
HETATM   41  O   UNL     1      -3.514  -2.082 -33.103  1.00  0.00    -0.354 OA
HETATM   42  C   UNL     1      -2.988  -2.711 -31.939  1.00  0.00     0.210 C 
ENDBRANCH  36  41
ENDBRANCH  32  35
ENDBRANCH   5  31
TORSDOF 9
ENDMDL
MODEL 3
REMARK VINA RESULT:      -9.8      1.874      2.662
REMARK  9 active torsions:
REMARK  status: ('A' for Active; 'I' for Inactive)
REMARK    1  A    between atoms: C_2  and  C_3 
REMARK    2  A    between atoms: C_6  and  N_7 
REMARK       I    between atoms: N_7  and  C_8 
REMARK    3  A    between atoms: C_8  and  C_9 
REMARK    4  A    between atoms: C_9  and  S_10 
REMARK    5  A    between atoms: S_10  and  C_11 
REMARK    6  A    between atoms: C_15  and  C_16 
REMARK       I    between atoms: C_16  and  N_17 
REMARK    7  A    between atoms: N_17  and  C_18 
REMARK    8  A    between atoms: C_19  and  O_20 
REMARK    9  A    between atoms: C_27  and  C_28 
ROOT
HETATM    1  C   UNL     1      -5.811   4.022 -30.453  1.00  0.00     0.087 C 
HETATM    2  N   UNL     1      -4.644   3.286 -30.615  1.00  0.00    -0.353 N 
HETATM    3  C   UNL     1      -4.565   2.090 -31.314  1.00  0.00     0.019 C 
HETATM    4  C   UNL     1      -3.169   1.597 -31.620  1.00  0.00     0.069 C 
HETATM    5  C   UNL     1      -5.699   1.464 -31.705  1.00  0.00     0.046 C 
HETATM    6  C   UNL     1      -7.054   1.956 -31.202  1.00  0.00     0.104 C 
HETATM    7  C   UNL     1      -6.998   3.384 -30.629  1.00  0.00     0.055 C 
HETATM    8  C   UNL     1      -8.310   3.990 -30.159  1.00  0.00     0.019 C 
HETATM    9  N   UNL     1      -9.400   4.492 -29.769  1.00  0.00    -0.096 N 
HETATM   10  H   UNL     1      -3.766   3.791 -30.549  1.00  0.00     0.166 HD
ENDROOT
BRANCH   1  11
HETATM   11  S   UNL     1      -5.837   5.756 -30.150  1.00  0.00    -0.102 SA
BRANCH  11  12
HETATM   12  C   UNL     1      -4.915   6.544 -31.483  1.00  0.00     0.184 C 
BRANCH  12  13
HETATM   13  C   UNL     1      -3.476   6.979 -31.220  1.00  0.00     0.231 C 
HETATM   14  N   UNL     1      -2.765   6.248 -30.291  1.00  0.00    -0.327 N 
HETATM   15  H   UNL     1      -3.167   5.359 -30.014  1.00  0.00     0.169 HD
HETATM   16  O   UNL     1      -3.065   7.996 -31.779  1.00  0.00    -0.272 OA
BRANCH  14  17
HETATM   17  C   UNL     1      -1.672   6.699 -29.515  1.00  0.00     0.034 A 
HETATM   18  C   UNL     1      -0.335   6.456 -29.834  1.00  0.00     0.030 A 
HETATM   19  C   UNL     1       0.694   7.108 -29.142  1.00  0.00     0.009 A 
HETATM   20  C   UNL     1       0.403   8.012 -28.115  1.00  0.00    -0.058 A 
HETATM   21  C   UNL     1      -0.933   8.206 -27.753  1.00  0.00     0.009 A 
HETATM   22  C   UNL     1      -1.959   7.545 -28.437  1.00  0.00     0.030 A 
BRANCH  20  23
HETATM   23  C   UNL     1       1.500   8.826 -27.477  1.00  0.00     0.034 C 
HETATM   24  C   UNL     1       1.946   8.218 -26.152  1.00  0.00     0.010 C 
ENDBRANCH  20  23
ENDBRANCH  14  17
ENDBRANCH  12  13
ENDBRANCH  11  12
ENDBRANCH   1  11
BRANCH   6  25
HETATM   25  C   UNL     1      -8.177   1.817 -32.227  1.00  0.00    -0.044 A 
HETATM   26  C   UNL     1      -9.051   0.715 -32.160  1.00  0.00     0.008 A 
HETATM   27  C   UNL     1     -10.066   0.554 -33.101  1.00  0.00     0.001 A 
HETATM   28  C   UNL     1     -10.228   1.490 -34.118  1.00  0.00     0.000 A 
HETATM   29  C   UNL     1      -9.378   2.591 -34.193  1.00  0.00     0.001 A 
HETATM   30  C   UNL     1      -8.361   2.759 -33.253  1.00  0.00     0.008 A 
ENDBRANCH   6  25
BRANCH   5  31
HETATM   31  C   UNL     1      -5.591   0.522 -32.861  1.00  0.00     0.255 C 
HETATM   32  N   UNL     1      -5.525  -0.810 -32.543  1.00  0.00    -0.321 N 
HETATM   33  H   UNL     1      -5.410  -1.090 -31.577  1.00  0.00     0.169 HD
HETATM   34  O   UNL     1      -5.615   0.989 -33.997  1.00  0.00    -0.268 OA
BRANCH  32  35
HETATM   35  C   UNL     1      -5.682  -1.896 -33.443  1.00  0.00     0.068 A 
HETATM   36  C   UNL     1      -4.573  -2.742 -33.646  1.00  0.00     0.095 A 
HETATM   37  C   UNL     1      -4.694  -3.858 -34.485  1.00  0.00     0.039 A 
HETATM   38  C   UNL     1      -5.901  -4.131 -35.128  1.00  0.00     0.003 A 
HETATM   39  C   UNL     1      -6.994  -3.295 -34.938  1.00  0.00     0.002 A 
HETATM   40  C   UNL     1      -6.885  -2.185 -34.098  1.00  0.00     0.032 A 
BRANCH  36  41
HETATM   41  O   UNL     1      -3.426  -2.394 -32.968  1.00  0.00    -0.354 OA
HETATM   42  C   UNL     1      -2.990  -3.306 -31.965  1.00  0.00     0.210 C 
ENDBRANCH  36  41
ENDBRANCH  32  35
ENDBRANCH   5  31
TORSDOF 9
ENDMDL
MODEL 4
REMARK VINA RESULT:      -9.7      4.471      7.476
REMARK  9 active torsions:
REMARK  status: ('A' for Active; 'I' for Inactive)
REMARK    1  A    between atoms: C_2  and  C_3 
REMARK    2  A    between atoms: C_6  and  N_7 
REMARK       I    between atoms: N_7  and  C_8 
REMARK    3  A    between atoms: C_8  and  C_9 
REMARK    4  A    between atoms: C_9  and  S_10 
REMARK    5  A    between atoms: S_10  and  C_11 
REMARK    6  A    between atoms: C_15  and  C_16 
REMARK       I    between atoms: C_16  and  N_17 
REMARK    7  A    between atoms: N_17  and  C_18 
REMARK    8  A    between atoms: C_19  and  O_20 
REMARK    9  A    between atoms: C_27  and  C_28 
ROOT
HETATM    1  C   UNL     1      -6.107   4.043 -30.397  1.00  0.00     0.087 C 
HETATM    2  N   UNL     1      -4.868   3.426 -30.508  1.00  0.00    -0.353 N 
HETATM    3  C   UNL     1      -4.648   2.228 -31.175  1.00  0.00     0.019 C 
HETATM    4  C   UNL     1      -3.202   1.873 -31.430  1.00  0.00     0.069 C 
HETATM    5  C   UNL     1      -5.701   1.483 -31.581  1.00  0.00     0.046 C 
HETATM    6  C   UNL     1      -7.114   1.847 -31.127  1.00  0.00     0.104 C 
HETATM    7  C   UNL     1      -7.218   3.285 -30.589  1.00  0.00     0.055 C 
HETATM    8  C   UNL     1      -8.598   3.766 -30.170  1.00  0.00     0.019 C 
HETATM    9  N   UNL     1      -9.743   4.163 -29.823  1.00  0.00    -0.096 N 
HETATM   10  H   UNL     1      -4.047   4.018 -30.431  1.00  0.00     0.166 HD
ENDROOT
BRANCH   1  11
HETATM   11  S   UNL     1      -6.316   5.772 -30.138  1.00  0.00    -0.102 SA
BRANCH  11  12
HETATM   12  C   UNL     1      -6.147   6.575 -31.743  1.00  0.00     0.184 C 
BRANCH  12  13
HETATM   13  C   UNL     1      -7.076   6.146 -32.876  1.00  0.00     0.231 C 
HETATM   14  N   UNL     1      -8.316   6.746 -32.925  1.00  0.00    -0.327 N 
HETATM   15  H   UNL     1      -8.441   7.570 -32.347  1.00  0.00     0.169 HD
HETATM   16  O   UNL     1      -6.703   5.238 -33.620  1.00  0.00    -0.272 OA
BRANCH  14  17
HETATM   17  C   UNL     1      -9.493   6.213 -33.501  1.00  0.00     0.034 A 
HETATM   18  C   UNL     1      -9.687   6.054 -34.874  1.00  0.00     0.030 A 
HETATM   19  C   UNL     1     -10.782   5.328 -35.361  1.00  0.00     0.009 A 
HETATM   20  C   UNL     1     -11.705   4.752 -34.482  1.00  0.00    -0.058 A 
HETATM   21  C   UNL     1     -11.546   4.966 -33.110  1.00  0.00     0.009 A 
HETATM   22  C   UNL     1     -10.458   5.701 -32.626  1.00  0.00     0.030 A 
BRANCH  20  23
HETATM   23  C   UNL     1     -12.793   3.845 -34.999  1.00  0.00     0.034 C 
HETATM   24  C   UNL     1     -12.363   3.130 -36.275  1.00  0.00     0.010 C 
ENDBRANCH  20  23
ENDBRANCH  14  17
ENDBRANCH  12  13
ENDBRANCH  11  12
ENDBRANCH   1  11
BRANCH   6  25
HETATM   25  C   UNL     1      -8.186   1.571 -32.179  1.00  0.00    -0.044 A 
HETATM   26  C   UNL     1      -8.284   2.403 -33.310  1.00  0.00     0.008 A 
HETATM   27  C   UNL     1      -9.271   2.186 -34.270  1.00  0.00     0.001 A 
HETATM   28  C   UNL     1     -10.171   1.135 -34.117  1.00  0.00     0.000 A 
HETATM   29  C   UNL     1     -10.082   0.297 -33.009  1.00  0.00     0.001 A 
HETATM   30  C   UNL     1      -9.095   0.508 -32.046  1.00  0.00     0.008 A 
ENDBRANCH   6  25
BRANCH   5  31
HETATM   31  C   UNL     1      -5.466   0.530 -32.709  1.00  0.00     0.255 C 
HETATM   32  N   UNL     1      -5.537  -0.801 -32.393  1.00  0.00    -0.321 N 
HETATM   33  H   UNL     1      -5.599  -1.084 -31.422  1.00  0.00     0.169 HD
HETATM   34  O   UNL     1      -5.273   0.993 -33.830  1.00  0.00    -0.268 OA
BRANCH  32  35
HETATM   35  C   UNL     1      -5.612  -1.879 -33.313  1.00  0.00     0.068 A 
HETATM   36  C   UNL     1      -4.486  -2.719 -33.429  1.00  0.00     0.095 A 
HETATM   37  C   UNL     1      -4.531  -3.827 -34.286  1.00  0.00     0.039 A 
HETATM   38  C   UNL     1      -5.678  -4.098 -35.031  1.00  0.00     0.003 A 
HETATM   39  C   UNL     1      -6.788  -3.268 -34.927  1.00  0.00     0.002 A 
HETATM   40  C   UNL     1      -6.755  -2.166 -34.070  1.00  0.00     0.032 A 
BRANCH  36  41
HETATM   41  O   UNL     1      -3.402  -2.374 -32.653  1.00  0.00    -0.354 OA
HETATM   42  C   UNL     1      -2.899  -3.390 -31.793  1.00  0.00     0.210 C 
ENDBRANCH  36  41
ENDBRANCH  32  35
ENDBRANCH   5  31
TORSDOF 9
ENDMDL
MODEL 5
REMARK VINA RESULT:      -9.5      2.485     10.385
REMARK  9 active torsions:
REMARK  status: ('A' for Active; 'I' for Inactive)
REMARK    1  A    between atoms: C_2  and  C_3 
REMARK    2  A    between atoms: C_6  and  N_7 
REMARK       I    between atoms: N_7  and  C_8 
REMARK    3  A    between atoms: C_8  and  C_9 
REMARK    4  A    between atoms: C_9  and  S_10 
REMARK    5  A    between atoms: S_10  and  C_11 
REMARK    6  A    between atoms: C_15  and  C_16 
REMARK       I    between atoms: C_16  and  N_17 
REMARK    7  A    between atoms: N_17  and  C_18 
REMARK    8  A    between atoms: C_19  and  O_20 
REMARK    9  A    between atoms: C_27  and  C_28 
ROOT
HETATM    1  C   UNL     1      -6.672   5.526 -31.018  1.00  0.00     0.087 C 
HETATM    2  N   UNL     1      -6.738   6.014 -29.719  1.00  0.00    -0.353 N 
HETATM    3  C   UNL     1      -5.642   6.466 -28.997  1.00  0.00     0.019 C 
HETATM    4  C   UNL     1      -5.958   7.219 -27.725  1.00  0.00     0.069 C 
HETATM    5  C   UNL     1      -4.393   6.251 -29.468  1.00  0.00     0.046 C 
HETATM    6  C   UNL     1      -4.179   5.337 -30.673  1.00  0.00     0.104 C 
HETATM    7  C   UNL     1      -5.468   5.094 -31.477  1.00  0.00     0.055 C 
HETATM    8  C   UNL     1      -5.348   4.247 -32.734  1.00  0.00     0.019 C 
HETATM    9  N   UNL     1      -5.246   3.545 -33.776  1.00  0.00    -0.096 N 
HETATM   10  H   UNL     1      -7.628   6.397 -29.414  1.00  0.00     0.166 HD
ENDROOT
BRANCH   1  11
HETATM   11  S   UNL     1      -8.031   5.545 -32.138  1.00  0.00    -0.102 SA
BRANCH  11  12
HETATM   12  C   UNL     1      -8.912   3.986 -31.931  1.00  0.00     0.184 C 
BRANCH  12  13
HETATM   13  C   UNL     1      -8.651   2.861 -32.930  1.00  0.00     0.231 C 
HETATM   14  N   UNL     1      -8.183   1.670 -32.417  1.00  0.00    -0.327 N 
HETATM   15  H   UNL     1      -8.249   1.555 -31.411  1.00  0.00     0.169 HD
HETATM   16  O   UNL     1      -8.790   3.105 -34.128  1.00  0.00    -0.272 OA
BRANCH  14  17
HETATM   17  C   UNL     1      -7.414   0.698 -33.099  1.00  0.00     0.034 A 
HETATM   18  C   UNL     1      -6.230   0.151 -32.601  1.00  0.00     0.030 A 
HETATM   19  C   UNL     1      -5.636  -0.953 -33.227  1.00  0.00     0.009 A 
HETATM   20  C   UNL     1      -6.215  -1.528 -34.363  1.00  0.00    -0.058 A 
HETATM   21  C   UNL     1      -7.365  -0.939 -34.898  1.00  0.00     0.009 A 
HETATM   22  C   UNL     1      -7.950   0.171 -34.279  1.00  0.00     0.030 A 
BRANCH  20  23
HETATM   23  C   UNL     1      -5.663  -2.805 -34.943  1.00  0.00     0.034 C 
HETATM   24  C   UNL     1      -6.691  -3.930 -34.892  1.00  0.00     0.010 C 
ENDBRANCH  20  23
ENDBRANCH  14  17
ENDBRANCH  12  13
ENDBRANCH  11  12
ENDBRANCH   1  11
BRANCH   6  25
HETATM   25  C   UNL     1      -3.036   5.781 -31.584  1.00  0.00    -0.044 A 
HETATM   26  C   UNL     1      -3.197   6.911 -32.406  1.00  0.00     0.008 A 
HETATM   27  C   UNL     1      -2.177   7.319 -33.264  1.00  0.00     0.001 A 
HETATM   28  C   UNL     1      -0.981   6.608 -33.311  1.00  0.00     0.000 A 
HETATM   29  C   UNL     1      -0.802   5.493 -32.497  1.00  0.00     0.001 A 
HETATM   30  C   UNL     1      -1.819   5.081 -31.635  1.00  0.00     0.008 A 
ENDBRANCH   6  25
BRANCH   5  31
HETATM   31  C   UNL     1      -3.316   7.169 -28.984  1.00  0.00     0.255 C 
HETATM   32  N   UNL     1      -2.293   6.576 -28.291  1.00  0.00    -0.321 N 
HETATM   33  H   UNL     1      -2.368   5.604 -28.017  1.00  0.00     0.169 HD
HETATM   34  O   UNL     1      -3.395   8.360 -29.271  1.00  0.00    -0.268 OA
BRANCH  32  35
HETATM   35  C   UNL     1      -1.047   7.172 -27.963  1.00  0.00     0.068 A 
HETATM   36  C   UNL     1      -0.761   7.377 -26.598  1.00  0.00     0.095 A 
HETATM   37  C   UNL     1       0.477   7.914 -26.220  1.00  0.00     0.039 A 
HETATM   38  C   UNL     1       1.423   8.258 -27.186  1.00  0.00     0.003 A 
HETATM   39  C   UNL     1       1.141   8.066 -28.533  1.00  0.00     0.002 A 
HETATM   40  C   UNL     1      -0.086   7.525 -28.918  1.00  0.00     0.032 A 
BRANCH  36  41
HETATM   41  O   UNL     1      -1.753   7.006 -25.718  1.00  0.00    -0.354 OA
HETATM   42  C   UNL     1      -2.418   8.066 -25.040  1.00  0.00     0.210 C 
ENDBRANCH  36  41
ENDBRANCH  32  35
ENDBRANCH   5  31
TORSDOF 9
ENDMDL
MODEL 6
REMARK VINA RESULT:      -9.0      3.000      8.951
REMARK  9 active torsions:
REMARK  status: ('A' for Active; 'I' for Inactive)
REMARK    1  A    between atoms: C_2  and  C_3 
REMARK    2  A    between atoms: C_6  and  N_7 
REMARK       I    between atoms: N_7  and  C_8 
REMARK    3  A    between atoms: C_8  and  C_9 
REMARK    4  A    between atoms: C_9  and  S_10 
REMARK    5  A    between atoms: S_10  and  C_11 
REMARK    6  A    between atoms: C_15  and  C_16 
REMARK       I    between atoms: C_16  and  N_17 
REMARK    7  A    between atoms: N_17  and  C_18 
REMARK    8  A    between atoms: C_19  and  O_20 
REMARK    9  A    between atoms: C_27  and  C_28 
ROOT
HETATM    1  C   UNL     1      -8.705   4.708 -31.450  1.00  0.00     0.087 C 
HETATM    2  N   UNL     1      -7.939   4.108 -32.440  1.00  0.00    -0.353 N 
HETATM    3  C   UNL     1      -6.556   4.200 -32.523  1.00  0.00     0.019 C 
HETATM    4  C   UNL     1      -5.890   3.251 -33.492  1.00  0.00     0.069 C 
HETATM    5  C   UNL     1      -5.894   5.077 -31.735  1.00  0.00     0.046 C 
HETATM    6  C   UNL     1      -6.671   6.104 -30.914  1.00  0.00     0.104 C 
HETATM    7  C   UNL     1      -8.160   5.745 -30.761  1.00  0.00     0.055 C 
HETATM    8  C   UNL     1      -9.008   6.673 -29.907  1.00  0.00     0.019 C 
HETATM    9  N   UNL     1      -9.711   7.444 -29.198  1.00  0.00    -0.096 N 
HETATM   10  H   UNL     1      -8.332   3.292 -32.899  1.00  0.00     0.166 HD
ENDROOT
BRANCH   1  11
HETATM   11  S   UNL     1     -10.293   4.127 -30.958  1.00  0.00    -0.102 SA
BRANCH  11  12
HETATM   12  C   UNL     1     -10.973   3.198 -32.345  1.00  0.00     0.184 C 
BRANCH  12  13
HETATM   13  C   UNL     1     -10.105   2.129 -33.004  1.00  0.00     0.231 C 
HETATM   14  N   UNL     1      -9.662   1.102 -32.198  1.00  0.00    -0.327 N 
HETATM   15  H   UNL     1     -10.113   1.014 -31.292  1.00  0.00     0.169 HD
HETATM   16  O   UNL     1      -9.783   2.287 -34.182  1.00  0.00    -0.272 OA
BRANCH  14  17
HETATM   17  C   UNL     1      -8.504   0.314 -32.388  1.00  0.00     0.034 A 
HETATM   18  C   UNL     1      -8.262  -0.454 -33.528  1.00  0.00     0.030 A 
HETATM   19  C   UNL     1      -7.006  -1.038 -33.742  1.00  0.00     0.009 A 
HETATM   20  C   UNL     1      -5.971  -0.866 -32.817  1.00  0.00    -0.058 A 
HETATM   21  C   UNL     1      -6.233  -0.151 -31.645  1.00  0.00     0.009 A 
HETATM   22  C   UNL     1      -7.492   0.422 -31.427  1.00  0.00     0.030 A 
BRANCH  20  23
HETATM   23  C   UNL     1      -4.581  -1.364 -33.121  1.00  0.00     0.034 C 
HETATM   24  C   UNL     1      -3.543  -0.262 -32.935  1.00  0.00     0.010 C 
ENDBRANCH  20  23
ENDBRANCH  14  17
ENDBRANCH  12  13
ENDBRANCH  11  12
ENDBRANCH   1  11
BRANCH   6  25
HETATM   25  C   UNL     1      -6.036   6.416 -29.561  1.00  0.00    -0.044 A 
HETATM   26  C   UNL     1      -6.039   5.440 -28.547  1.00  0.00     0.008 A 
HETATM   27  C   UNL     1      -5.488   5.712 -27.296  1.00  0.00     0.001 A 
HETATM   28  C   UNL     1      -4.923   6.958 -27.040  1.00  0.00     0.000 A 
HETATM   29  C   UNL     1      -4.904   7.932 -28.035  1.00  0.00     0.001 A 
HETATM   30  C   UNL     1      -5.452   7.665 -29.290  1.00  0.00     0.008 A 
ENDBRANCH   6  25
BRANCH   5  31
HETATM   31  C   UNL     1      -4.452   4.790 -31.461  1.00  0.00     0.255 C 
HETATM   32  N   UNL     1      -3.571   5.785 -31.792  1.00  0.00    -0.321 N 
HETATM   33  H   UNL     1      -3.894   6.587 -32.320  1.00  0.00     0.169 HD
HETATM   34  O   UNL     1      -4.162   3.722 -30.927  1.00  0.00    -0.268 OA
BRANCH  32  35
HETATM   35  C   UNL     1      -2.209   5.867 -31.398  1.00  0.00     0.068 A 
HETATM   36  C   UNL     1      -1.243   5.337 -32.277  1.00  0.00     0.095 A 
HETATM   37  C   UNL     1       0.118   5.439 -31.956  1.00  0.00     0.039 A 
HETATM   38  C   UNL     1       0.520   6.052 -30.770  1.00  0.00     0.003 A 
HETATM   39  C   UNL     1      -0.430   6.568 -29.897  1.00  0.00     0.002 A 
HETATM   40  C   UNL     1      -1.786   6.477 -30.211  1.00  0.00     0.032 A 
BRANCH  36  41
HETATM   41  O   UNL     1      -1.734   4.753 -33.423  1.00  0.00    -0.354 OA
HETATM   42  C   UNL     1      -1.370   5.378 -34.649  1.00  0.00     0.210 C 
ENDBRANCH  36  41
ENDBRANCH  32  35
ENDBRANCH   5  31
TORSDOF 9
ENDMDL
MODEL 7
REMARK VINA RESULT:      -8.8      2.516     10.400
REMARK  9 active torsions:
REMARK  status: ('A' for Active; 'I' for Inactive)
REMARK    1  A    between atoms: C_2  and  C_3 
REMARK    2  A    between atoms: C_6  and  N_7 
REMARK       I    between atoms: N_7  and  C_8 
REMARK    3  A    between atoms: C_8  and  C_9 
REMARK    4  A    between atoms: C_9  and  S_10 
REMARK    5  A    between atoms: S_10  and  C_11 
REMARK    6  A    between atoms: C_15  and  C_16 
REMARK       I    between atoms: C_16  and  N_17 
REMARK    7  A    between atoms: N_17  and  C_18 
REMARK    8  A    between atoms: C_19  and  O_20 
REMARK    9  A    between atoms: C_27  and  C_28 
ROOT
HETATM    1  C   UNL     1      -3.222   5.004 -32.364  1.00  0.00     0.087 C 
HETATM    2  N   UNL     1      -1.896   5.417 -32.400  1.00  0.00    -0.353 N 
HETATM    3  C   UNL     1      -1.390   6.487 -31.676  1.00  0.00     0.019 C 
HETATM    4  C   UNL     1       0.117   6.595 -31.628  1.00  0.00     0.069 C 
HETATM    5  C   UNL     1      -2.237   7.329 -31.042  1.00  0.00     0.046 C 
HETATM    6  C   UNL     1      -3.741   7.230 -31.292  1.00  0.00     0.104 C 
HETATM    7  C   UNL     1      -4.155   5.892 -31.929  1.00  0.00     0.055 C 
HETATM    8  C   UNL     1      -5.641   5.669 -32.160  1.00  0.00     0.019 C 
HETATM    9  N   UNL     1      -6.874   5.485 -32.351  1.00  0.00    -0.096 N 
HETATM   10  H   UNL     1      -1.203   4.722 -32.661  1.00  0.00     0.166 HD
ENDROOT
BRANCH   1  11
HETATM   11  S   UNL     1      -3.745   3.365 -32.736  1.00  0.00    -0.102 SA
BRANCH  11  12
HETATM   12  C   UNL     1      -3.361   2.345 -31.300  1.00  0.00     0.184 C 
BRANCH  12  13
HETATM   13  C   UNL     1      -3.808   0.886 -31.299  1.00  0.00     0.231 C 
HETATM   14  N   UNL     1      -3.375   0.101 -32.347  1.00  0.00    -0.327 N 
HETATM   15  H   UNL     1      -2.628   0.484 -32.917  1.00  0.00     0.169 HD
HETATM   16  O   UNL     1      -4.590   0.518 -30.422  1.00  0.00    -0.272 OA
BRANCH  14  17
HETATM   17  C   UNL     1      -4.006  -1.058 -32.855  1.00  0.00     0.034 A 
HETATM   18  C   UNL     1      -5.145  -1.036 -33.662  1.00  0.00     0.030 A 
HETATM   19  C   UNL     1      -5.590  -2.202 -34.300  1.00  0.00     0.009 A 
HETATM   20  C   UNL     1      -4.904  -3.410 -34.140  1.00  0.00    -0.058 A 
HETATM   21  C   UNL     1      -3.801  -3.445 -33.281  1.00  0.00     0.009 A 
HETATM   22  C   UNL     1      -3.366  -2.283 -32.635  1.00  0.00     0.030 A 
BRANCH  20  23
HETATM   23  C   UNL     1      -5.291  -4.624 -34.946  1.00  0.00     0.034 C 
HETATM   24  C   UNL     1      -6.741  -4.545 -35.410  1.00  0.00     0.010 C 
ENDBRANCH  20  23
ENDBRANCH  14  17
ENDBRANCH  12  13
ENDBRANCH  11  12
ENDBRANCH   1  11
BRANCH   6  25
HETATM   25  C   UNL     1      -4.589   7.541 -30.060  1.00  0.00    -0.044 A 
HETATM   26  C   UNL     1      -4.612   6.636 -28.982  1.00  0.00     0.008 A 
HETATM   27  C   UNL     1      -5.399   6.888 -27.860  1.00  0.00     0.001 A 
HETATM   28  C   UNL     1      -6.170   8.045 -27.794  1.00  0.00     0.000 A 
HETATM   29  C   UNL     1      -6.151   8.955 -28.848  1.00  0.00     0.001 A 
HETATM   30  C   UNL     1      -5.363   8.710 -29.974  1.00  0.00     0.008 A 
ENDBRANCH   6  25
BRANCH   5  31
HETATM   31  C   UNL     1      -1.687   8.105 -29.888  1.00  0.00     0.255 C 
HETATM   32  N   UNL     1      -1.056   7.368 -28.919  1.00  0.00    -0.321 N 
HETATM   33  H   UNL     1      -1.107   6.357 -28.944  1.00  0.00     0.169 HD
HETATM   34  O   UNL     1      -1.796   9.328 -29.904  1.00  0.00    -0.268 OA
BRANCH  32  35
HETATM   35  C   UNL     1      -0.237   7.878 -27.878  1.00  0.00     0.068 A 
HETATM   36  C   UNL     1      -0.818   8.027 -26.603  1.00  0.00     0.095 A 
HETATM   37  C   UNL     1      -0.036   8.478 -25.531  1.00  0.00     0.039 A 
HETATM   38  C   UNL     1       1.310   8.790 -25.721  1.00  0.00     0.003 A 
HETATM   39  C   UNL     1       1.885   8.653 -26.978  1.00  0.00     0.002 A 
HETATM   40  C   UNL     1       1.116   8.198 -28.050  1.00  0.00     0.032 A 
BRANCH  36  41
HETATM   41  O   UNL     1      -2.151   7.693 -26.512  1.00  0.00    -0.354 OA
HETATM   42  C   UNL     1      -2.746   7.836 -25.227  1.00  0.00     0.210 C 
ENDBRANCH  36  41
ENDBRANCH  32  35
ENDBRANCH   5  31
TORSDOF 9
ENDMDL
MODEL 8
REMARK VINA RESULT:      -8.8      4.419      8.455
REMARK  9 active torsions:
REMARK  status: ('A' for Active; 'I' for Inactive)
REMARK    1  A    between atoms: C_2  and  C_3 
REMARK    2  A    between atoms: C_6  and  N_7 
REMARK       I    between atoms: N_7  and  C_8 
REMARK    3  A    between atoms: C_8  and  C_9 
REMARK    4  A    between atoms: C_9  and  S_10 
REMARK    5  A    between atoms: S_10  and  C_11 
REMARK    6  A    between atoms: C_15  and  C_16 
REMARK       I    between atoms: C_16  and  N_17 
REMARK    7  A    between atoms: N_17  and  C_18 
REMARK    8  A    between atoms: C_19  and  O_20 
REMARK    9  A    between atoms: C_27  and  C_28 
ROOT
HETATM    1  C   UNL     1      -7.493   5.825 -31.773  1.00  0.00     0.087 C 
HETATM    2  N   UNL     1      -8.532   6.613 -31.296  1.00  0.00    -0.353 N 
HETATM    3  C   UNL     1      -9.868   6.239 -31.312  1.00  0.00     0.019 C 
HETATM    4  C   UNL     1     -10.803   7.100 -30.493  1.00  0.00     0.069 C 
HETATM    5  C   UNL     1     -10.250   5.142 -32.005  1.00  0.00     0.046 C 
HETATM    6  C   UNL     1      -9.258   4.442 -32.932  1.00  0.00     0.104 C 
HETATM    7  C   UNL     1      -7.796   4.830 -32.648  1.00  0.00     0.055 C 
HETATM    8  C   UNL     1      -6.725   4.138 -33.476  1.00  0.00     0.019 C 
HETATM    9  N   UNL     1      -5.838   3.563 -34.164  1.00  0.00    -0.096 N 
HETATM   10  H   UNL     1      -8.300   7.307 -30.592  1.00  0.00     0.166 HD
ENDROOT
BRANCH   1  11
HETATM   11  S   UNL     1      -5.827   5.968 -31.222  1.00  0.00    -0.102 SA
BRANCH  11  12
HETATM   12  C   UNL     1      -5.670   4.961 -29.735  1.00  0.00     0.184 C 
BRANCH  12  13
HETATM   13  C   UNL     1      -5.812   3.447 -29.859  1.00  0.00     0.231 C 
HETATM   14  N   UNL     1      -4.738   2.762 -30.387  1.00  0.00    -0.327 N 
HETATM   15  H   UNL     1      -3.865   3.275 -30.452  1.00  0.00     0.169 HD
HETATM   16  O   UNL     1      -6.895   2.939 -29.567  1.00  0.00    -0.272 OA
BRANCH  14  17
HETATM   17  C   UNL     1      -4.773   1.517 -31.058  1.00  0.00     0.034 A 
HETATM   18  C   UNL     1      -5.760   0.551 -30.859  1.00  0.00     0.030 A 
HETATM   19  C   UNL     1      -5.851  -0.561 -31.706  1.00  0.00     0.009 A 
HETATM   20  C   UNL     1      -4.953  -0.728 -32.765  1.00  0.00    -0.058 A 
HETATM   21  C   UNL     1      -3.924   0.206 -32.924  1.00  0.00     0.009 A 
HETATM   22  C   UNL     1      -3.828   1.310 -32.069  1.00  0.00     0.030 A 
BRANCH  20  23
HETATM   23  C   UNL     1      -5.145  -1.840 -33.765  1.00  0.00     0.034 C 
HETATM   24  C   UNL     1      -6.583  -1.893 -34.269  1.00  0.00     0.010 C 
ENDBRANCH  20  23
ENDBRANCH  14  17
ENDBRANCH  12  13
ENDBRANCH  11  12
ENDBRANCH   1  11
BRANCH   6  25
HETATM   25  C   UNL     1      -9.428   2.925 -32.979  1.00  0.00    -0.044 A 
HETATM   26  C   UNL     1      -9.963   2.318 -34.130  1.00  0.00     0.008 A 
HETATM   27  C   UNL     1     -10.151   0.938 -34.184  1.00  0.00     0.001 A 
HETATM   28  C   UNL     1      -9.803   0.144 -33.095  1.00  0.00     0.000 A 
HETATM   29  C   UNL     1      -9.263   0.728 -31.952  1.00  0.00     0.001 A 
HETATM   30  C   UNL     1      -9.071   2.109 -31.892  1.00  0.00     0.008 A 
ENDBRANCH   6  25
BRANCH   5  31
HETATM   31  C   UNL     1     -11.525   4.483 -31.587  1.00  0.00     0.255 C 
HETATM   32  N   UNL     1     -12.511   4.431 -32.538  1.00  0.00    -0.321 N 
HETATM   33  H   UNL     1     -12.401   4.944 -33.404  1.00  0.00     0.169 HD
HETATM   34  O   UNL     1     -11.589   4.002 -30.459  1.00  0.00    -0.268 OA
BRANCH  32  35
HETATM   35  C   UNL     1     -13.690   3.643 -32.481  1.00  0.00     0.068 A 
HETATM   36  C   UNL     1     -14.855   4.248 -31.965  1.00  0.00     0.095 A 
HETATM   37  C   UNL     1     -16.057   3.528 -31.936  1.00  0.00     0.039 A 
HETATM   38  C   UNL     1     -16.106   2.214 -32.404  1.00  0.00     0.003 A 
HETATM   39  C   UNL     1     -14.958   1.612 -32.905  1.00  0.00     0.002 A 
HETATM   40  C   UNL     1     -13.758   2.324 -32.945  1.00  0.00     0.032 A 
BRANCH  36  41
HETATM   41  O   UNL     1     -14.710   5.545 -31.529  1.00  0.00    -0.354 OA
HETATM   42  C   UNL     1     -15.770   6.059 -30.729  1.00  0.00     0.210 C 
ENDBRANCH  36  41
ENDBRANCH  32  35
ENDBRANCH   5  31
TORSDOF 9
ENDMDL
MODEL 9
REMARK VINA RESULT:      -8.8      2.716      4.652
REMARK  9 active torsions:
REMARK  status: ('A' for Active; 'I' for Inactive)
REMARK    1  A    between atoms: C_2  and  C_3 
REMARK    2  A    between atoms: C_6  and  N_7 
REMARK       I    between atoms: N_7  and  C_8 
REMARK    3  A    between atoms: C_8  and  C_9 
REMARK    4  A    between atoms: C_9  and  S_10 
REMARK    5  A    between atoms: S_10  and  C_11 
REMARK    6  A    between atoms: C_15  and  C_16 
REMARK       I    between atoms: C_16  and  N_17 
REMARK    7  A    between atoms: N_17  and  C_18 
REMARK    8  A    between atoms: C_19  and  O_20 
REMARK    9  A    between atoms: C_27  and  C_28 
ROOT
HETATM    1  C   UNL     1      -5.550   5.809 -32.720  1.00  0.00     0.087 C 
HETATM    2  N   UNL     1      -6.789   6.323 -33.078  1.00  0.00    -0.353 N 
HETATM    3  C   UNL     1      -7.938   5.560 -33.231  1.00  0.00     0.019 C 
HETATM    4  C   UNL     1      -9.233   6.333 -33.339  1.00  0.00     0.069 C 
HETATM    5  C   UNL     1      -7.851   4.210 -33.238  1.00  0.00     0.046 C 
HETATM    6  C   UNL     1      -6.482   3.534 -33.291  1.00  0.00     0.104 C 
HETATM    7  C   UNL     1      -5.332   4.480 -32.906  1.00  0.00     0.055 C 
HETATM    8  C   UNL     1      -3.934   3.885 -32.866  1.00  0.00     0.019 C 
HETATM    9  N   UNL     1      -2.774   3.390 -32.833  1.00  0.00    -0.096 N 
HETATM   10  H   UNL     1      -6.961   7.302 -32.871  1.00  0.00     0.166 HD
ENDROOT
BRANCH   1  11
HETATM   11  S   UNL     1      -4.291   6.756 -31.933  1.00  0.00    -0.102 SA
BRANCH  11  12
HETATM   12  C   UNL     1      -4.245   6.248 -30.205  1.00  0.00     0.184 C 
BRANCH  12  13
HETATM   13  C   UNL     1      -3.380   7.044 -29.231  1.00  0.00     0.231 C 
HETATM   14  N   UNL     1      -2.154   7.472 -29.695  1.00  0.00    -0.327 N 
HETATM   15  H   UNL     1      -2.007   7.416 -30.697  1.00  0.00     0.169 HD
HETATM   16  O   UNL     1      -3.783   7.183 -28.076  1.00  0.00    -0.272 OA
BRANCH  14  17
HETATM   17  C   UNL     1      -1.006   7.754 -28.918  1.00  0.00     0.034 A 
HETATM   18  C   UNL     1      -0.768   8.980 -28.295  1.00  0.00     0.030 A 
HETATM   19  C   UNL     1       0.278   9.121 -27.373  1.00  0.00     0.009 A 
HETATM   20  C   UNL     1       1.107   8.038 -27.062  1.00  0.00    -0.058 A 
HETATM   21  C   UNL     1       0.908   6.828 -27.735  1.00  0.00     0.009 A 
HETATM   22  C   UNL     1      -0.129   6.693 -28.664  1.00  0.00     0.030 A 
BRANCH  20  23
HETATM   23  C   UNL     1       2.130   8.147 -25.960  1.00  0.00     0.034 C 
HETATM   24  C   UNL     1       2.024   9.483 -25.232  1.00  0.00     0.010 C 
ENDBRANCH  20  23
ENDBRANCH  14  17
ENDBRANCH  12  13
ENDBRANCH  11  12
ENDBRANCH   1  11
BRANCH   6  25
HETATM   25  C   UNL     1      -6.412   2.229 -32.500  1.00  0.00    -0.044 A 
HETATM   26  C   UNL     1      -6.451   0.998 -33.181  1.00  0.00     0.008 A 
HETATM   27  C   UNL     1      -6.414  -0.205 -32.478  1.00  0.00     0.001 A 
HETATM   28  C   UNL     1      -6.333  -0.198 -31.088  1.00  0.00     0.000 A 
HETATM   29  C   UNL     1      -6.284   1.012 -30.400  1.00  0.00     0.001 A 
HETATM   30  C   UNL     1      -6.319   2.220 -31.099  1.00  0.00     0.008 A 
ENDBRANCH   6  25
BRANCH   5  31
HETATM   31  C   UNL     1      -9.084   3.447 -32.874  1.00  0.00     0.255 C 
HETATM   32  N   UNL     1      -9.661   2.724 -33.885  1.00  0.00    -0.321 N 
HETATM   33  H   UNL     1      -9.332   2.839 -34.836  1.00  0.00     0.169 HD
HETATM   34  O   UNL     1      -9.467   3.482 -31.707  1.00  0.00    -0.268 OA
BRANCH  32  35
HETATM   35  C   UNL     1     -10.661   1.727 -33.739  1.00  0.00     0.068 A 
HETATM   36  C   UNL     1     -11.956   2.030 -34.206  1.00  0.00     0.095 A 
HETATM   37  C   UNL     1     -12.966   1.061 -34.131  1.00  0.00     0.039 A 
HETATM   38  C   UNL     1     -12.700  -0.197 -33.589  1.00  0.00     0.003 A 
HETATM   39  C   UNL     1     -11.427  -0.496 -33.120  1.00  0.00     0.002 A 
HETATM   40  C   UNL     1     -10.413   0.461 -33.197  1.00  0.00     0.032 A 
BRANCH  36  41
HETATM   41  O   UNL     1     -12.123   3.294 -34.726  1.00  0.00    -0.354 OA
HETATM   42  C   UNL     1     -12.334   3.370 -36.132  1.00  0.00     0.210 C 
ENDBRANCH  36  41
ENDBRANCH  32  35
ENDBRANCH   5  31
TORSDOF 9
ENDMDL
MODEL 10
REMARK VINA RESULT:      -8.7      2.676      5.160
REMARK  9 active torsions:
REMARK  status: ('A' for Active; 'I' for Inactive)
REMARK    1  A    between atoms: C_2  and  C_3 
REMARK    2  A    between atoms: C_6  and  N_7 
REMARK       I    between atoms: N_7  and  C_8 
REMARK    3  A    between atoms: C_8  and  C_9 
REMARK    4  A    between atoms: C_9  and  S_10 
REMARK    5  A    between atoms: S_10  and  C_11 
REMARK    6  A    between atoms: C_15  and  C_16 
REMARK       I    between atoms: C_16  and  N_17 
REMARK    7  A    between atoms: N_17  and  C_18 
REMARK    8  A    between atoms: C_19  and  O_20 
REMARK    9  A    between atoms: C_27  and  C_28 
ROOT
HETATM    1  C   UNL     1      -6.045   5.075 -32.023  1.00  0.00     0.087 C 
HETATM    2  N   UNL     1      -7.119   5.877 -32.385  1.00  0.00    -0.353 N 
HETATM    3  C   UNL     1      -8.187   5.451 -33.162  1.00  0.00     0.019 C 
HETATM    4  C   UNL     1      -9.382   6.376 -33.203  1.00  0.00     0.069 C 
HETATM    5  C   UNL     1      -8.124   4.255 -33.791  1.00  0.00     0.046 C 
HETATM    6  C   UNL     1      -6.810   3.477 -33.821  1.00  0.00     0.104 C 
HETATM    7  C   UNL     1      -5.805   3.959 -32.760  1.00  0.00     0.055 C 
HETATM    8  C   UNL     1      -4.488   3.205 -32.665  1.00  0.00     0.019 C 
HETATM    9  N   UNL     1      -3.396   2.579 -32.588  1.00  0.00    -0.096 N 
HETATM   10  H   UNL     1      -7.328   6.669 -31.785  1.00  0.00     0.166 HD
ENDROOT
BRANCH   1  11
HETATM   11  S   UNL     1      -5.052   5.358 -30.596  1.00  0.00    -0.102 SA
BRANCH  11  12
HETATM   12  C   UNL     1      -3.600   6.279 -31.134  1.00  0.00     0.184 C 
BRANCH  12  13
HETATM   13  C   UNL     1      -2.274   6.036 -30.418  1.00  0.00     0.231 C 
HETATM   14  N   UNL     1      -2.147   6.556 -29.148  1.00  0.00    -0.327 N 
HETATM   15  H   UNL     1      -3.003   6.870 -28.702  1.00  0.00     0.169 HD
HETATM   16  O   UNL     1      -1.373   5.471 -31.040  1.00  0.00    -0.272 OA
BRANCH  14  17
HETATM   17  C   UNL     1      -0.945   6.915 -28.495  1.00  0.00     0.034 A 
HETATM   18  C   UNL     1      -0.062   7.889 -28.965  1.00  0.00     0.030 A 
HETATM   19  C   UNL     1       0.994   8.342 -28.164  1.00  0.00     0.009 A 
HETATM   20  C   UNL     1       1.189   7.825 -26.879  1.00  0.00    -0.058 A 
HETATM   21  C   UNL     1       0.344   6.804 -26.434  1.00  0.00     0.009 A 
HETATM   22  C   UNL     1      -0.703   6.345 -27.240  1.00  0.00     0.030 A 
BRANCH  20  23
HETATM   23  C   UNL     1       2.228   8.419 -25.963  1.00  0.00     0.034 C 
HETATM   24  C   UNL     1       1.838   9.823 -25.515  1.00  0.00     0.010 C 
ENDBRANCH  20  23
ENDBRANCH  14  17
ENDBRANCH  12  13
ENDBRANCH  11  12
ENDBRANCH   1  11
BRANCH   6  25
HETATM   25  C   UNL     1      -6.993   1.962 -33.760  1.00  0.00    -0.044 A 
HETATM   26  C   UNL     1      -7.159   1.328 -32.514  1.00  0.00     0.008 A 
HETATM   27  C   UNL     1      -7.302  -0.056 -32.434  1.00  0.00     0.001 A 
HETATM   28  C   UNL     1      -7.286  -0.827 -33.593  1.00  0.00     0.000 A 
HETATM   29  C   UNL     1      -7.132  -0.214 -34.834  1.00  0.00     0.001 A 
HETATM   30  C   UNL     1      -6.991   1.171 -34.921  1.00  0.00     0.008 A 
ENDBRANCH   6  25
BRANCH   5  31
HETATM   31  C   UNL     1      -9.422   3.608 -34.153  1.00  0.00     0.255 C 
HETATM   32  N   UNL     1     -10.052   2.927 -33.144  1.00  0.00    -0.321 N 
HETATM   33  H   UNL     1      -9.571   2.770 -32.267  1.00  0.00     0.169 HD
HETATM   34  O   UNL     1      -9.852   3.762 -35.293  1.00  0.00    -0.268 OA
BRANCH  32  35
HETATM   35  C   UNL     1     -11.393   2.460 -33.156  1.00  0.00     0.068 A 
HETATM   36  C   UNL     1     -12.377   3.285 -32.574  1.00  0.00     0.095 A 
HETATM   37  C   UNL     1     -13.721   2.892 -32.607  1.00  0.00     0.039 A 
HETATM   38  C   UNL     1     -14.091   1.686 -33.203  1.00  0.00     0.003 A 
HETATM   39  C   UNL     1     -13.123   0.865 -33.770  1.00  0.00     0.002 A 
HETATM   40  C   UNL     1     -11.782   1.252 -33.748  1.00  0.00     0.032 A 
BRANCH  36  41
HETATM   41  O   UNL     1     -11.918   4.456 -32.013  1.00  0.00    -0.354 OA
HETATM   42  C   UNL     1     -12.914   5.350 -31.528  1.00  0.00     0.210 C 
ENDBRANCH  36  41
ENDBRANCH  32  35
ENDBRANCH   5  31
TORSDOF 9
ENDMDL
