MODEL 1
REMARK VINA RESULT:      -8.9      0.000      0.000
REMARK  7 active torsions:
REMARK  status: ('A' for Active; 'I' for Inactive)
REMARK    1  A    between atoms: C_2  and  N_3 
REMARK    2  A    between atoms: C_11  and  C_12 
REMARK    3  A    between atoms: C_14  and  O_15 
REMARK    4  A    between atoms: C_17  and  O_18 
REMARK    5  A    between atoms: O_18  and  C_19 
REMARK    6  A    between atoms: C_19  and  C_20 
REMARK    7  A    between atoms: C_31  and  O_32 
ROOT
HETATM    1  N   UNL     1       0.241   9.179 -26.481  1.00  0.00    -0.067 N 
HETATM    2  H   UNL     1       0.974   9.694 -25.978  1.00  0.00     0.280 HD
HETATM    3  C   UNL     1       0.970   8.073 -27.249  1.00  0.00     0.281 C 
HETATM    4  C   UNL     1       0.095   7.509 -28.314  1.00  0.00     0.018 A 
HETATM    5  C   UNL     1      -1.016   8.140 -28.846  1.00  0.00    -0.024 A 
HETATM    6  C   UNL     1      -1.650   7.319 -29.833  1.00  0.00     0.057 A 
HETATM    7  C   UNL     1      -0.993   6.123 -29.994  1.00  0.00     0.087 A 
HETATM    8  N   UNL     1      -1.435   5.170 -30.832  1.00  0.00    -0.357 N 
HETATM    9  C   UNL     1      -2.456   5.533 -31.803  1.00  0.00     0.243 C 
HETATM   10  N   UNL     1      -3.260   6.739 -31.536  1.00  0.00    -0.235 NA
HETATM   11  C   UNL     1      -2.832   7.527 -30.625  1.00  0.00     0.173 C 
HETATM   12  S   UNL     1       0.379   5.981 -29.006  1.00  0.00    -0.074 SA
HETATM   13  C   UNL     1      -1.464   9.487 -28.354  1.00  0.00     0.068 C 
HETATM   14  C   UNL     1      -0.399  10.158 -27.466  1.00  0.00     0.240 C 
HETATM   15  H   UNL     1      -0.868   4.362 -31.073  1.00  0.00     0.162 HD
ENDROOT
BRANCH   9  16
HETATM   16  C   UNL     1      -3.387   4.346 -31.996  1.00  0.00    -0.012 A 
HETATM   17  C   UNL     1      -4.638   4.511 -32.625  1.00  0.00     0.050 A 
HETATM   18  C   UNL     1      -5.470   3.414 -32.868  1.00  0.00     0.102 A 
HETATM   19  C   UNL     1      -5.029   2.133 -32.498  1.00  0.00     0.112 A 
HETATM   20  C   UNL     1      -3.806   1.955 -31.854  1.00  0.00     0.041 A 
HETATM   21  C   UNL     1      -2.987   3.059 -31.609  1.00  0.00     0.014 A 
BRANCH  18  22
HETATM   22  O   UNL     1      -6.698   3.479 -33.473  1.00  0.00    -0.353 OA
HETATM   23  C   UNL     1      -7.229   4.771 -33.734  1.00  0.00     0.210 C 
ENDBRANCH  18  22
BRANCH  19  24
HETATM   24  O   UNL     1      -5.899   1.061 -32.833  1.00  0.00    -0.272 OA
BRANCH  24  25
HETATM   25  C   UNL     1      -6.001  -0.142 -32.155  1.00  0.00     0.300 C 
HETATM   26  O   UNL     1      -6.306  -0.341 -30.991  1.00  0.00    -0.259 OA
BRANCH  25  27
HETATM   27  C   UNL     1      -5.781  -1.228 -33.124  1.00  0.00     0.061 A 
HETATM   28  C   UNL     1      -4.562  -1.906 -33.229  1.00  0.00     0.050 A 
HETATM   29 CL   UNL     1      -3.207  -1.566 -32.214  1.00  0.00    -0.083 Cl
HETATM   30  C   UNL     1      -4.429  -2.943 -34.159  1.00  0.00     0.025 A 
HETATM   31  C   UNL     1      -5.507  -3.306 -34.970  1.00  0.00     0.002 A 
HETATM   32  C   UNL     1      -6.727  -2.642 -34.850  1.00  0.00     0.001 A 
HETATM   33  C   UNL     1      -6.868  -1.607 -33.924  1.00  0.00     0.019 A 
ENDBRANCH  25  27
ENDBRANCH  24  25
ENDBRANCH  19  24
ENDBRANCH   9  16
BRANCH  11  34
HETATM   34  O   UNL     1      -3.538   8.642 -30.370  1.00  0.00    -0.344 OA
HETATM   35  H   UNL     1      -3.335   9.265 -31.092  1.00  0.00     0.219 HD
ENDBRANCH  11  34
BRANCH   1  36
HETATM   36  C   UNL     1      -0.688   8.608 -25.430  1.00  0.00     0.231 C 
HETATM   37  C   UNL     1      -1.226   9.699 -24.524  1.00  0.00     0.034 C 
ENDBRANCH   1  36
TORSDOF 7
ENDMDL
MODEL 2
REMARK VINA RESULT:      -8.9      2.446      3.052
REMARK  7 active torsions:
REMARK  status: ('A' for Active; 'I' for Inactive)
REMARK    1  A    between atoms: C_2  and  N_3 
REMARK    2  A    between atoms: C_11  and  C_12 
REMARK    3  A    between atoms: C_14  and  O_15 
REMARK    4  A    between atoms: C_17  and  O_18 
REMARK    5  A    between atoms: O_18  and  C_19 
REMARK    6  A    between atoms: C_19  and  C_20 
REMARK    7  A    between atoms: C_31  and  O_32 
ROOT
HETATM    1  N   UNL     1      -1.226   8.927 -27.370  1.00  0.00    -0.067 N 
HETATM    2  H   UNL     1      -0.727   9.806 -27.185  1.00  0.00     0.280 HD
HETATM    3  C   UNL     1      -1.734   9.038 -28.810  1.00  0.00     0.281 C 
HETATM    4  C   UNL     1      -2.793   8.024 -29.073  1.00  0.00     0.018 A 
HETATM    5  C   UNL     1      -3.533   7.378 -28.098  1.00  0.00    -0.024 A 
HETATM    6  C   UNL     1      -4.450   6.446 -28.682  1.00  0.00     0.057 A 
HETATM    7  C   UNL     1      -4.356   6.436 -30.053  1.00  0.00     0.087 A 
HETATM    8  N   UNL     1      -5.087   5.604 -30.814  1.00  0.00    -0.357 N 
HETATM    9  C   UNL     1      -6.209   4.916 -30.193  1.00  0.00     0.243 C 
HETATM   10  N   UNL     1      -6.215   4.799 -28.725  1.00  0.00    -0.235 NA
HETATM   11  C   UNL     1      -5.391   5.537 -28.084  1.00  0.00     0.173 C 
HETATM   12  S   UNL     1      -3.213   7.539 -30.648  1.00  0.00    -0.074 SA
HETATM   13  C   UNL     1      -3.301   7.636 -26.637  1.00  0.00     0.068 C 
HETATM   14  C   UNL     1      -2.411   8.872 -26.405  1.00  0.00     0.240 C 
HETATM   15  H   UNL     1      -5.140   5.708 -31.823  1.00  0.00     0.162 HD
ENDROOT
BRANCH   9  16
HETATM   16  C   UNL     1      -6.324   3.527 -30.803  1.00  0.00    -0.012 A 
HETATM   17  C   UNL     1      -7.584   2.919 -30.971  1.00  0.00     0.050 A 
HETATM   18  C   UNL     1      -7.704   1.673 -31.593  1.00  0.00     0.102 A 
HETATM   19  C   UNL     1      -6.547   1.041 -32.075  1.00  0.00     0.112 A 
HETATM   20  C   UNL     1      -5.290   1.616 -31.897  1.00  0.00     0.041 A 
HETATM   21  C   UNL     1      -5.182   2.858 -31.267  1.00  0.00     0.014 A 
BRANCH  18  22
HETATM   22  O   UNL     1      -8.886   1.010 -31.799  1.00  0.00    -0.353 OA
HETATM   23  C   UNL     1      -9.782   1.555 -32.758  1.00  0.00     0.210 C 
ENDBRANCH  18  22
BRANCH  19  24
HETATM   24  O   UNL     1      -6.754  -0.191 -32.751  1.00  0.00    -0.272 OA
BRANCH  24  25
HETATM   25  C   UNL     1      -6.608  -0.405 -34.111  1.00  0.00     0.300 C 
HETATM   26  O   UNL     1      -6.749   0.386 -35.029  1.00  0.00    -0.259 OA
BRANCH  25  27
HETATM   27  C   UNL     1      -6.125  -1.781 -34.304  1.00  0.00     0.061 A 
HETATM   28  C   UNL     1      -4.791  -2.147 -34.094  1.00  0.00     0.050 A 
HETATM   29 CL   UNL     1      -3.586  -1.034 -33.553  1.00  0.00    -0.083 Cl
HETATM   30  C   UNL     1      -4.405  -3.479 -34.277  1.00  0.00     0.025 A 
HETATM   31  C   UNL     1      -5.345  -4.440 -34.657  1.00  0.00     0.002 A 
HETATM   32  C   UNL     1      -6.678  -4.078 -34.846  1.00  0.00     0.001 A 
HETATM   33  C   UNL     1      -7.071  -2.751 -34.665  1.00  0.00     0.019 A 
ENDBRANCH  25  27
ENDBRANCH  24  25
ENDBRANCH  19  24
ENDBRANCH   9  16
BRANCH  11  34
HETATM   34  O   UNL     1      -5.385   5.462 -26.742  1.00  0.00    -0.344 OA
HETATM   35  H   UNL     1      -4.998   4.596 -26.518  1.00  0.00     0.219 HD
ENDBRANCH  11  34
BRANCH   1  36
HETATM   36  C   UNL     1      -0.210   7.812 -27.223  1.00  0.00     0.231 C 
HETATM   37  C   UNL     1       0.983   8.035 -28.133  1.00  0.00     0.034 C 
ENDBRANCH   1  36
TORSDOF 7
ENDMDL
MODEL 3
REMARK VINA RESULT:      -8.7      5.164     10.735
REMARK  7 active torsions:
REMARK  status: ('A' for Active; 'I' for Inactive)
REMARK    1  A    between atoms: C_2  and  N_3 
REMARK    2  A    between atoms: C_11  and  C_12 
REMARK    3  A    between atoms: C_14  and  O_15 
REMARK    4  A    between atoms: C_17  and  O_18 
REMARK    5  A    between atoms: O_18  and  C_19 
REMARK    6  A    between atoms: C_19  and  C_20 
REMARK    7  A    between atoms: C_31  and  O_32 
ROOT
HETATM    1  N   UNL     1     -14.089   1.983 -33.892  1.00  0.00    -0.067 N 
HETATM    2  H   UNL     1     -15.036   2.015 -34.290  1.00  0.00     0.280 HD
HETATM    3  C   UNL     1     -13.241   2.908 -34.769  1.00  0.00     0.281 C 
HETATM    4  C   UNL     1     -11.790   2.651 -34.553  1.00  0.00     0.018 A 
HETATM    5  C   UNL     1     -11.261   1.494 -34.007  1.00  0.00    -0.024 A 
HETATM    6  C   UNL     1      -9.834   1.577 -33.915  1.00  0.00     0.057 A 
HETATM    7  C   UNL     1      -9.365   2.778 -34.389  1.00  0.00     0.087 A 
HETATM    8  N   UNL     1      -8.060   3.100 -34.357  1.00  0.00    -0.357 N 
HETATM    9  C   UNL     1      -7.100   2.039 -34.091  1.00  0.00     0.243 C 
HETATM   10  N   UNL     1      -7.593   0.814 -33.438  1.00  0.00    -0.235 NA
HETATM   11  C   UNL     1      -8.861   0.653 -33.397  1.00  0.00     0.173 C 
HETATM   12  S   UNL     1     -10.596   3.791 -34.966  1.00  0.00    -0.074 SA
HETATM   13  C   UNL     1     -12.142   0.370 -33.546  1.00  0.00     0.068 C 
HETATM   14  C   UNL     1     -13.595   0.541 -34.029  1.00  0.00     0.240 C 
HETATM   15  H   UNL     1      -7.695   3.908 -34.851  1.00  0.00     0.162 HD
ENDROOT
BRANCH   9  16
HETATM   16  C   UNL     1      -5.956   2.615 -33.270  1.00  0.00    -0.012 A 
HETATM   17  C   UNL     1      -5.041   1.763 -32.618  1.00  0.00     0.050 A 
HETATM   18  C   UNL     1      -3.948   2.283 -31.919  1.00  0.00     0.102 A 
HETATM   19  C   UNL     1      -3.756   3.673 -31.897  1.00  0.00     0.112 A 
HETATM   20  C   UNL     1      -4.663   4.531 -32.515  1.00  0.00     0.041 A 
HETATM   21  C   UNL     1      -5.756   4.001 -33.204  1.00  0.00     0.014 A 
BRANCH  18  22
HETATM   22  O   UNL     1      -3.011   1.532 -31.258  1.00  0.00    -0.353 OA
HETATM   23  C   UNL     1      -3.183   0.121 -31.262  1.00  0.00     0.210 C 
ENDBRANCH  18  22
BRANCH  19  24
HETATM   24  O   UNL     1      -2.590   4.124 -31.221  1.00  0.00    -0.272 OA
BRANCH  24  25
HETATM   25  C   UNL     1      -1.602   4.930 -31.759  1.00  0.00     0.300 C 
HETATM   26  O   UNL     1      -1.168   4.952 -32.898  1.00  0.00    -0.259 OA
BRANCH  25  27
HETATM   27  C   UNL     1      -1.192   5.894 -30.726  1.00  0.00     0.061 A 
HETATM   28  C   UNL     1       0.090   5.896 -30.164  1.00  0.00     0.050 A 
HETATM   29 CL   UNL     1       1.329   4.794 -30.648  1.00  0.00    -0.083 Cl
HETATM   30  C   UNL     1       0.418   6.856 -29.200  1.00  0.00     0.025 A 
HETATM   31  C   UNL     1      -0.522   7.812 -28.809  1.00  0.00     0.002 A 
HETATM   32  C   UNL     1      -1.792   7.822 -29.385  1.00  0.00     0.001 A 
HETATM   33  C   UNL     1      -2.127   6.868 -30.347  1.00  0.00     0.019 A 
ENDBRANCH  25  27
ENDBRANCH  24  25
ENDBRANCH  19  24
ENDBRANCH   9  16
BRANCH  11  34
HETATM   34  O   UNL     1      -9.339  -0.464 -32.820  1.00  0.00    -0.344 OA
HETATM   35  H   UNL     1     -10.155  -0.203 -32.356  1.00  0.00     0.219 HD
ENDBRANCH  11  34
BRANCH   1  36
HETATM   36  C   UNL     1     -14.197   2.505 -32.474  1.00  0.00     0.231 C 
HETATM   37  C   UNL     1     -15.603   2.329 -31.932  1.00  0.00     0.034 C 
ENDBRANCH   1  36
TORSDOF 7
ENDMDL
MODEL 4
REMARK VINA RESULT:      -8.6      2.816      3.547
REMARK  7 active torsions:
REMARK  status: ('A' for Active; 'I' for Inactive)
REMARK    1  A    between atoms: C_2  and  N_3 
REMARK    2  A    between atoms: C_11  and  C_12 
REMARK    3  A    between atoms: C_14  and  O_15 
REMARK    4  A    between atoms: C_17  and  O_18 
REMARK    5  A    between atoms: O_18  and  C_19 
REMARK    6  A    between atoms: C_19  and  C_20 
REMARK    7  A    between atoms: C_31  and  O_32 
ROOT
HETATM    1  N   UNL     1      -0.758   8.507 -26.949  1.00  0.00    -0.067 N 
HETATM    2  H   UNL     1      -0.111   9.235 -26.621  1.00  0.00     0.280 HD
HETATM    3  C   UNL     1      -1.639   9.184 -28.002  1.00  0.00     0.281 C 
HETATM    4  C   UNL     1      -2.857   8.370 -28.268  1.00  0.00     0.018 A 
HETATM    5  C   UNL     1      -3.366   7.401 -27.421  1.00  0.00    -0.024 A 
HETATM    6  C   UNL     1      -4.532   6.788 -27.983  1.00  0.00     0.057 A 
HETATM    7  C   UNL     1      -4.840   7.319 -29.212  1.00  0.00     0.087 A 
HETATM    8  N   UNL     1      -5.866   6.865 -29.952  1.00  0.00    -0.357 N 
HETATM    9  C   UNL     1      -6.844   6.002 -29.307  1.00  0.00     0.243 C 
HETATM   10  N   UNL     1      -6.443   5.315 -28.067  1.00  0.00    -0.235 NA
HETATM   11  C   UNL     1      -5.376   5.729 -27.498  1.00  0.00     0.173 C 
HETATM   12  S   UNL     1      -3.777   8.552 -29.688  1.00  0.00    -0.074 SA
HETATM   13  C   UNL     1      -2.690   7.059 -26.125  1.00  0.00     0.068 C 
HETATM   14  C   UNL     1      -1.610   8.091 -25.749  1.00  0.00     0.240 C 
HETATM   15  H   UNL     1      -6.193   7.359 -30.777  1.00  0.00     0.162 HD
ENDROOT
BRANCH   9  16
HETATM   16  C   UNL     1      -7.320   4.968 -30.317  1.00  0.00    -0.012 A 
HETATM   17  C   UNL     1      -6.510   4.611 -31.414  1.00  0.00     0.050 A 
HETATM   18  C   UNL     1      -6.910   3.613 -32.308  1.00  0.00     0.102 A 
HETATM   19  C   UNL     1      -8.125   2.947 -32.081  1.00  0.00     0.112 A 
HETATM   20  C   UNL     1      -8.949   3.303 -31.015  1.00  0.00     0.041 A 
HETATM   21  C   UNL     1      -8.543   4.307 -30.134  1.00  0.00     0.014 A 
BRANCH  18  22
HETATM   22  O   UNL     1      -6.188   3.201 -33.398  1.00  0.00    -0.353 OA
HETATM   23  C   UNL     1      -5.632   4.209 -34.231  1.00  0.00     0.210 C 
ENDBRANCH  18  22
BRANCH  19  24
HETATM   24  O   UNL     1      -8.434   1.902 -32.994  1.00  0.00    -0.272 OA
BRANCH  24  25
HETATM   25  C   UNL     1      -8.634   0.572 -32.666  1.00  0.00     0.300 C 
HETATM   26  O   UNL     1      -9.632   0.037 -32.213  1.00  0.00    -0.259 OA
BRANCH  25  27
HETATM   27  C   UNL     1      -7.432  -0.178 -33.063  1.00  0.00     0.061 A 
HETATM   28  C   UNL     1      -6.343  -0.364 -32.205  1.00  0.00     0.050 A 
HETATM   29 CL   UNL     1      -6.312   0.232 -30.584  1.00  0.00    -0.083 Cl
HETATM   30  C   UNL     1      -5.241  -1.106 -32.642  1.00  0.00     0.025 A 
HETATM   31  C   UNL     1      -5.230  -1.666 -33.922  1.00  0.00     0.002 A 
HETATM   32  C   UNL     1      -6.324  -1.496 -34.769  1.00  0.00     0.001 A 
HETATM   33  C   UNL     1      -7.428  -0.758 -34.340  1.00  0.00     0.019 A 
ENDBRANCH  25  27
ENDBRANCH  24  25
ENDBRANCH  19  24
ENDBRANCH   9  16
BRANCH  11  34
HETATM   34  O   UNL     1      -4.994   5.130 -26.357  1.00  0.00    -0.344 OA
HETATM   35  H   UNL     1      -4.426   4.382 -26.617  1.00  0.00     0.219 HD
ENDBRANCH  11  34
BRANCH   1  36
HETATM   36  C   UNL     1       0.094   7.412 -27.557  1.00  0.00     0.231 C 
HETATM   37  C   UNL     1       0.755   7.882 -28.839  1.00  0.00     0.034 C 
ENDBRANCH   1  36
TORSDOF 7
ENDMDL
MODEL 5
REMARK VINA RESULT:      -8.2      4.977     10.184
REMARK  7 active torsions:
REMARK  status: ('A' for Active; 'I' for Inactive)
REMARK    1  A    between atoms: C_2  and  N_3 
REMARK    2  A    between atoms: C_11  and  C_12 
REMARK    3  A    between atoms: C_14  and  O_15 
REMARK    4  A    between atoms: C_17  and  O_18 
REMARK    5  A    between atoms: O_18  and  C_19 
REMARK    6  A    between atoms: C_19  and  C_20 
REMARK    7  A    between atoms: C_31  and  O_32 
ROOT
HETATM    1  N   UNL     1     -13.475   3.085 -34.037  1.00  0.00    -0.067 N 
HETATM    2  H   UNL     1     -14.396   2.782 -34.377  1.00  0.00     0.280 HD
HETATM    3  C   UNL     1     -12.622   1.816 -33.974  1.00  0.00     0.281 C 
HETATM    4  C   UNL     1     -11.410   2.039 -33.137  1.00  0.00     0.018 A 
HETATM    5  C   UNL     1     -11.267   3.048 -32.200  1.00  0.00    -0.024 A 
HETATM    6  C   UNL     1      -9.974   2.999 -31.587  1.00  0.00     0.057 A 
HETATM    7  C   UNL     1      -9.215   1.968 -32.086  1.00  0.00     0.087 A 
HETATM    8  N   UNL     1      -7.948   1.756 -31.694  1.00  0.00    -0.357 N 
HETATM    9  C   UNL     1      -7.475   2.448 -30.504  1.00  0.00     0.243 C 
HETATM   10  N   UNL     1      -8.211   3.648 -30.069  1.00  0.00    -0.235 NA
HETATM   11  C   UNL     1      -9.360   3.842 -30.596  1.00  0.00     0.173 C 
HETATM   12  S   UNL     1     -10.033   1.046 -33.252  1.00  0.00    -0.074 SA
HETATM   13  C   UNL     1     -12.353   4.056 -31.961  1.00  0.00     0.068 C 
HETATM   14  C   UNL     1     -13.679   3.643 -32.627  1.00  0.00     0.240 C 
HETATM   15  H   UNL     1      -7.446   0.907 -31.936  1.00  0.00     0.162 HD
ENDROOT
BRANCH   9  16
HETATM   16  C   UNL     1      -6.010   2.807 -30.701  1.00  0.00    -0.012 A 
HETATM   17  C   UNL     1      -5.056   1.806 -30.970  1.00  0.00     0.050 A 
HETATM   18  C   UNL     1      -3.720   2.135 -31.220  1.00  0.00     0.102 A 
HETATM   19  C   UNL     1      -3.344   3.488 -31.226  1.00  0.00     0.112 A 
HETATM   20  C   UNL     1      -4.269   4.489 -30.938  1.00  0.00     0.041 A 
HETATM   21  C   UNL     1      -5.599   4.148 -30.682  1.00  0.00     0.014 A 
BRANCH  18  22
HETATM   22  O   UNL     1      -2.727   1.230 -31.492  1.00  0.00    -0.353 OA
HETATM   23  C   UNL     1      -3.010  -0.142 -31.250  1.00  0.00     0.210 C 
ENDBRANCH  18  22
BRANCH  19  24
HETATM   24  O   UNL     1      -1.985   3.748 -31.549  1.00  0.00    -0.272 OA
BRANCH  24  25
HETATM   25  C   UNL     1      -1.489   4.930 -32.071  1.00  0.00     0.300 C 
HETATM   26  O   UNL     1      -1.559   5.352 -33.213  1.00  0.00    -0.259 OA
BRANCH  25  27
HETATM   27  C   UNL     1      -0.917   5.710 -30.962  1.00  0.00     0.061 A 
HETATM   28  C   UNL     1      -1.365   6.995 -30.636  1.00  0.00     0.050 A 
HETATM   29 CL   UNL     1      -2.653   7.782 -31.476  1.00  0.00    -0.083 Cl
HETATM   30  C   UNL     1      -0.790   7.671 -29.555  1.00  0.00     0.025 A 
HETATM   31  C   UNL     1       0.216   7.065 -28.798  1.00  0.00     0.002 A 
HETATM   32  C   UNL     1       0.647   5.776 -29.111  1.00  0.00     0.001 A 
HETATM   33  C   UNL     1       0.078   5.095 -30.188  1.00  0.00     0.019 A 
ENDBRANCH  25  27
ENDBRANCH  24  25
ENDBRANCH  19  24
ENDBRANCH   9  16
BRANCH  11  34
HETATM   34  O   UNL     1     -10.061   4.921 -30.207  1.00  0.00    -0.344 OA
HETATM   35  H   UNL     1     -10.960   4.806 -30.564  1.00  0.00     0.219 HD
ENDBRANCH  11  34
BRANCH   1  36
HETATM   36  C   UNL     1     -12.938   4.068 -35.057  1.00  0.00     0.231 C 
HETATM   37  C   UNL     1     -12.295   3.346 -36.226  1.00  0.00     0.034 C 
ENDBRANCH   1  36
TORSDOF 7
ENDMDL
MODEL 6
REMARK VINA RESULT:      -8.2      7.079      9.197
REMARK  7 active torsions:
REMARK  status: ('A' for Active; 'I' for Inactive)
REMARK    1  A    between atoms: C_2  and  N_3 
REMARK    2  A    between atoms: C_11  and  C_12 
REMARK    3  A    between atoms: C_14  and  O_15 
REMARK    4  A    between atoms: C_17  and  O_18 
REMARK    5  A    between atoms: O_18  and  C_19 
REMARK    6  A    between atoms: C_19  and  C_20 
REMARK    7  A    between atoms: C_31  and  O_32 
ROOT
HETATM    1  N   UNL     1     -13.465   7.998 -33.739  1.00  0.00    -0.067 N 
HETATM    2  H   UNL     1     -14.010   8.810 -34.052  1.00  0.00     0.280 HD
HETATM    3  C   UNL     1     -12.673   7.536 -34.966  1.00  0.00     0.281 C 
HETATM    4  C   UNL     1     -12.155   6.154 -34.767  1.00  0.00     0.018 A 
HETATM    5  C   UNL     1     -12.650   5.245 -33.848  1.00  0.00    -0.024 A 
HETATM    6  C   UNL     1     -11.916   4.017 -33.893  1.00  0.00     0.057 A 
HETATM    7  C   UNL     1     -10.914   4.061 -34.833  1.00  0.00     0.087 A 
HETATM    8  N   UNL     1     -10.063   3.039 -35.020  1.00  0.00    -0.357 N 
HETATM    9  C   UNL     1     -10.395   1.753 -34.425  1.00  0.00     0.243 C 
HETATM   10  N   UNL     1     -11.358   1.741 -33.310  1.00  0.00    -0.235 NA
HETATM   11  C   UNL     1     -12.036   2.809 -33.122  1.00  0.00     0.173 C 
HETATM   12  S   UNL     1     -10.859   5.532 -35.676  1.00  0.00    -0.074 SA
HETATM   13  C   UNL     1     -13.777   5.601 -32.921  1.00  0.00     0.068 C 
HETATM   14  C   UNL     1     -14.467   6.916 -33.332  1.00  0.00     0.240 C 
HETATM   15  H   UNL     1      -9.433   3.003 -35.817  1.00  0.00     0.162 HD
ENDROOT
BRANCH   9  16
HETATM   16  C   UNL     1      -9.108   1.077 -33.978  1.00  0.00    -0.012 A 
HETATM   17  C   UNL     1      -8.743   1.058 -32.617  1.00  0.00     0.050 A 
HETATM   18  C   UNL     1      -7.598   0.380 -32.189  1.00  0.00     0.102 A 
HETATM   19  C   UNL     1      -6.824  -0.309 -33.136  1.00  0.00     0.112 A 
HETATM   20  C   UNL     1      -7.157  -0.281 -34.490  1.00  0.00     0.041 A 
HETATM   21  C   UNL     1      -8.299   0.406 -34.906  1.00  0.00     0.014 A 
BRANCH  18  22
HETATM   22  O   UNL     1      -7.168   0.308 -30.889  1.00  0.00    -0.353 OA
HETATM   23  C   UNL     1      -6.611   1.484 -30.320  1.00  0.00     0.210 C 
ENDBRANCH  18  22
BRANCH  19  24
HETATM   24  O   UNL     1      -5.712  -1.027 -32.620  1.00  0.00    -0.272 OA
BRANCH  24  25
HETATM   25  C   UNL     1      -4.527  -1.277 -33.290  1.00  0.00     0.300 C 
HETATM   26  O   UNL     1      -3.586  -0.527 -33.488  1.00  0.00    -0.259 OA
BRANCH  25  27
HETATM   27  C   UNL     1      -4.510  -2.700 -33.664  1.00  0.00     0.061 A 
HETATM   28  C   UNL     1      -3.695  -3.638 -33.021  1.00  0.00     0.050 A 
HETATM   29 CL   UNL     1      -2.655  -3.232 -31.703  1.00  0.00    -0.083 Cl
HETATM   30  C   UNL     1      -3.746  -4.980 -33.415  1.00  0.00     0.025 A 
HETATM   31  C   UNL     1      -4.611  -5.383 -34.435  1.00  0.00     0.002 A 
HETATM   32  C   UNL     1      -5.438  -4.451 -35.061  1.00  0.00     0.001 A 
HETATM   33  C   UNL     1      -5.393  -3.111 -34.674  1.00  0.00     0.019 A 
ENDBRANCH  25  27
ENDBRANCH  24  25
ENDBRANCH  19  24
ENDBRANCH   9  16
BRANCH  11  34
HETATM   34  O   UNL     1     -12.933   2.821 -32.121  1.00  0.00    -0.344 OA
HETATM   35  H   UNL     1     -13.636   2.196 -32.376  1.00  0.00     0.219 HD
ENDBRANCH  11  34
BRANCH   1  36
HETATM   36  C   UNL     1     -12.548   8.488 -32.638  1.00  0.00     0.231 C 
HETATM   37  C   UNL     1     -13.036   9.807 -32.067  1.00  0.00     0.034 C 
ENDBRANCH   1  36
TORSDOF 7
ENDMDL
MODEL 7
REMARK VINA RESULT:      -8.0      6.625      9.199
REMARK  7 active torsions:
REMARK  status: ('A' for Active; 'I' for Inactive)
REMARK    1  A    between atoms: C_2  and  N_3 
REMARK    2  A    between atoms: C_11  and  C_12 
REMARK    3  A    between atoms: C_14  and  O_15 
REMARK    4  A    between atoms: C_17  and  O_18 
REMARK    5  A    between atoms: O_18  and  C_19 
REMARK    6  A    between atoms: C_19  and  C_20 
REMARK    7  A    between atoms: C_31  and  O_32 
ROOT
HETATM    1  N   UNL     1     -12.908   8.272 -35.987  1.00  0.00    -0.067 N 
HETATM    2  H   UNL     1     -13.632   8.876 -36.396  1.00  0.00     0.280 HD
HETATM    3  C   UNL     1     -13.453   6.845 -36.098  1.00  0.00     0.281 C 
HETATM    4  C   UNL     1     -12.698   5.924 -35.203  1.00  0.00     0.018 A 
HETATM    5  C   UNL     1     -11.935   6.320 -34.117  1.00  0.00    -0.024 A 
HETATM    6  C   UNL     1     -11.322   5.192 -33.483  1.00  0.00     0.057 A 
HETATM    7  C   UNL     1     -11.648   4.016 -34.114  1.00  0.00     0.087 A 
HETATM    8  N   UNL     1     -11.149   2.832 -33.724  1.00  0.00    -0.357 N 
HETATM    9  C   UNL     1     -10.490   2.760 -32.429  1.00  0.00     0.243 C 
HETATM   10  N   UNL     1     -10.005   4.018 -31.834  1.00  0.00    -0.235 NA
HETATM   11  C   UNL     1     -10.432   5.104 -32.356  1.00  0.00     0.173 C 
HETATM   12  S   UNL     1     -12.694   4.238 -35.431  1.00  0.00    -0.074 SA
HETATM   13  C   UNL     1     -11.778   7.769 -33.756  1.00  0.00     0.068 C 
HETATM   14  C   UNL     1     -12.776   8.664 -34.514  1.00  0.00     0.240 C 
HETATM   15  H   UNL     1     -11.513   1.953 -34.081  1.00  0.00     0.162 HD
ENDROOT
BRANCH   9  16
HETATM   16  C   UNL     1      -9.333   1.778 -32.526  1.00  0.00    -0.012 A 
HETATM   17  C   UNL     1      -8.379   1.686 -31.492  1.00  0.00     0.050 A 
HETATM   18  C   UNL     1      -7.353   0.739 -31.542  1.00  0.00     0.102 A 
HETATM   19  C   UNL     1      -7.298  -0.145 -32.632  1.00  0.00     0.112 A 
HETATM   20  C   UNL     1      -8.218  -0.053 -33.675  1.00  0.00     0.041 A 
HETATM   21  C   UNL     1      -9.234   0.902 -33.618  1.00  0.00     0.014 A 
BRANCH  18  22
HETATM   22  O   UNL     1      -6.386   0.579 -30.584  1.00  0.00    -0.353 OA
HETATM   23  C   UNL     1      -6.051   1.714 -29.798  1.00  0.00     0.210 C 
ENDBRANCH  18  22
BRANCH  19  24
HETATM   24  O   UNL     1      -6.266  -1.120 -32.583  1.00  0.00    -0.272 OA
BRANCH  24  25
HETATM   25  C   UNL     1      -5.192  -1.208 -33.452  1.00  0.00     0.300 C 
HETATM   26  O   UNL     1      -4.393  -0.343 -33.772  1.00  0.00    -0.259 OA
BRANCH  25  27
HETATM   27  C   UNL     1      -5.073  -2.609 -33.886  1.00  0.00     0.061 A 
HETATM   28  C   UNL     1      -4.121  -3.484 -33.353  1.00  0.00     0.050 A 
HETATM   29 CL   UNL     1      -3.013  -3.023 -32.111  1.00  0.00    -0.083 Cl
HETATM   30  C   UNL     1      -4.079  -4.810 -33.798  1.00  0.00     0.025 A 
HETATM   31  C   UNL     1      -4.987  -5.260 -34.759  1.00  0.00     0.002 A 
HETATM   32  C   UNL     1      -5.949  -4.393 -35.274  1.00  0.00     0.001 A 
HETATM   33  C   UNL     1      -5.998  -3.069 -34.835  1.00  0.00     0.019 A 
ENDBRANCH  25  27
ENDBRANCH  24  25
ENDBRANCH  19  24
ENDBRANCH   9  16
BRANCH  11  34
HETATM   34  O   UNL     1     -10.017   6.267 -31.825  1.00  0.00    -0.344 OA
HETATM   35  H   UNL     1      -9.393   6.036 -31.113  1.00  0.00     0.219 HD
ENDBRANCH  11  34
BRANCH   1  36
HETATM   36  C   UNL     1     -11.661   8.458 -36.827  1.00  0.00     0.231 C 
HETATM   37  C   UNL     1     -12.015   8.729 -38.278  1.00  0.00     0.034 C 
ENDBRANCH   1  36
TORSDOF 7
ENDMDL
MODEL 8
REMARK VINA RESULT:      -8.0      2.477      3.042
REMARK  7 active torsions:
REMARK  status: ('A' for Active; 'I' for Inactive)
REMARK    1  A    between atoms: C_2  and  N_3 
REMARK    2  A    between atoms: C_11  and  C_12 
REMARK    3  A    between atoms: C_14  and  O_15 
REMARK    4  A    between atoms: C_17  and  O_18 
REMARK    5  A    between atoms: O_18  and  C_19 
REMARK    6  A    between atoms: C_19  and  C_20 
REMARK    7  A    between atoms: C_31  and  O_32 
ROOT
HETATM    1  N   UNL     1      -0.027   9.801 -25.808  1.00  0.00    -0.067 N 
HETATM    2  H   UNL     1       0.548  10.608 -25.536  1.00  0.00     0.280 HD
HETATM    3  C   UNL     1      -0.356  10.011 -27.289  1.00  0.00     0.281 C 
HETATM    4  C   UNL     1      -1.491   9.140 -27.703  1.00  0.00     0.018 A 
HETATM    5  C   UNL     1      -2.405   8.563 -26.839  1.00  0.00    -0.024 A 
HETATM    6  C   UNL     1      -3.355   7.765 -27.555  1.00  0.00     0.057 A 
HETATM    7  C   UNL     1      -3.112   7.781 -28.907  1.00  0.00     0.087 A 
HETATM    8  N   UNL     1      -3.846   7.064 -29.774  1.00  0.00    -0.357 N 
HETATM    9  C   UNL     1      -5.103   6.500 -29.305  1.00  0.00     0.243 C 
HETATM   10  N   UNL     1      -5.286   6.346 -27.851  1.00  0.00    -0.235 NA
HETATM   11  C   UNL     1      -4.456   6.961 -27.097  1.00  0.00     0.173 C 
HETATM   12  S   UNL     1      -1.789   8.752 -29.332  1.00  0.00    -0.074 SA
HETATM   13  C   UNL     1      -2.308   8.752 -25.352  1.00  0.00     0.068 C 
HETATM   14  C   UNL     1      -1.310   9.864 -24.978  1.00  0.00     0.240 C 
HETATM   15  H   UNL     1      -3.774   7.200 -30.778  1.00  0.00     0.162 HD
ENDROOT
BRANCH   9  16
HETATM   16  C   UNL     1      -5.312   5.152 -29.978  1.00  0.00    -0.012 A 
HETATM   17  C   UNL     1      -6.532   4.460 -29.836  1.00  0.00     0.050 A 
HETATM   18  C   UNL     1      -6.757   3.255 -30.506  1.00  0.00     0.102 A 
HETATM   19  C   UNL     1      -5.755   2.751 -31.352  1.00  0.00     0.112 A 
HETATM   20  C   UNL     1      -4.534   3.409 -31.485  1.00  0.00     0.041 A 
HETATM   21  C   UNL     1      -4.317   4.609 -30.804  1.00  0.00     0.014 A 
BRANCH  18  22
HETATM   22  O   UNL     1      -7.909   2.517 -30.428  1.00  0.00    -0.353 OA
HETATM   23  C   UNL     1      -8.969   2.866 -31.308  1.00  0.00     0.210 C 
ENDBRANCH  18  22
BRANCH  19  24
HETATM   24  O   UNL     1      -6.079   1.556 -32.048  1.00  0.00    -0.272 OA
BRANCH  24  25
HETATM   25  C   UNL     1      -6.117   1.404 -33.423  1.00  0.00     0.300 C 
HETATM   26  O   UNL     1      -6.290   2.252 -34.282  1.00  0.00    -0.259 OA
BRANCH  25  27
HETATM   27  C   UNL     1      -5.792   0.002 -33.733  1.00  0.00     0.061 A 
HETATM   28  C   UNL     1      -6.563  -0.774 -34.605  1.00  0.00     0.050 A 
HETATM   29 CL   UNL     1      -7.949  -0.161 -35.432  1.00  0.00    -0.083 Cl
HETATM   30  C   UNL     1      -6.183  -2.094 -34.870  1.00  0.00     0.025 A 
HETATM   31  C   UNL     1      -5.037  -2.631 -34.278  1.00  0.00     0.002 A 
HETATM   32  C   UNL     1      -4.258  -1.849 -33.426  1.00  0.00     0.001 A 
HETATM   33  C   UNL     1      -4.630  -0.532 -33.156  1.00  0.00     0.019 A 
ENDBRANCH  25  27
ENDBRANCH  24  25
ENDBRANCH  19  24
ENDBRANCH   9  16
BRANCH  11  34
HETATM   34  O   UNL     1      -4.608   6.850 -25.766  1.00  0.00    -0.344 OA
HETATM   35  H   UNL     1      -3.899   7.384 -25.365  1.00  0.00     0.219 HD
ENDBRANCH  11  34
BRANCH   1  36
HETATM   36  C   UNL     1       0.828   8.568 -25.598  1.00  0.00     0.231 C 
HETATM   37  C   UNL     1       1.723   8.313 -26.795  1.00  0.00     0.034 C 
ENDBRANCH   1  36
TORSDOF 7
ENDMDL
MODEL 9
REMARK VINA RESULT:      -8.0      3.384     10.440
REMARK  7 active torsions:
REMARK  status: ('A' for Active; 'I' for Inactive)
REMARK    1  A    between atoms: C_2  and  N_3 
REMARK    2  A    between atoms: C_11  and  C_12 
REMARK    3  A    between atoms: C_14  and  O_15 
REMARK    4  A    between atoms: C_17  and  O_18 
REMARK    5  A    between atoms: O_18  and  C_19 
REMARK    6  A    between atoms: C_19  and  C_20 
REMARK    7  A    between atoms: C_31  and  O_32 
ROOT
HETATM    1  N   UNL     1      -7.262  -1.200 -34.163  1.00  0.00    -0.067 N 
HETATM    2  H   UNL     1      -7.917  -1.984 -34.268  1.00  0.00     0.280 HD
HETATM    3  C   UNL     1      -7.384  -0.755 -32.703  1.00  0.00     0.281 C 
HETATM    4  C   UNL     1      -6.797   0.601 -32.516  1.00  0.00     0.018 A 
HETATM    5  C   UNL     1      -6.576   1.517 -33.530  1.00  0.00    -0.024 A 
HETATM    6  C   UNL     1      -5.978   2.714 -33.020  1.00  0.00     0.057 A 
HETATM    7  C   UNL     1      -5.779   2.641 -31.662  1.00  0.00     0.087 A 
HETATM    8  N   UNL     1      -5.186   3.629 -30.971  1.00  0.00    -0.357 N 
HETATM    9  C   UNL     1      -5.023   4.919 -31.624  1.00  0.00     0.243 C 
HETATM   10  N   UNL     1      -5.085   4.956 -33.096  1.00  0.00    -0.235 NA
HETATM   11  C   UNL     1      -5.543   3.915 -33.680  1.00  0.00     0.173 C 
HETATM   12  S   UNL     1      -6.320   1.181 -30.989  1.00  0.00    -0.074 SA
HETATM   13  C   UNL     1      -6.898   1.196 -34.961  1.00  0.00     0.068 C 
HETATM   14  C   UNL     1      -7.748  -0.083 -35.088  1.00  0.00     0.240 C 
HETATM   15  H   UNL     1      -5.186   3.648 -29.955  1.00  0.00     0.162 HD
ENDROOT
BRANCH   9  16
HETATM   16  C   UNL     1      -3.710   5.533 -31.166  1.00  0.00    -0.012 A 
HETATM   17  C   UNL     1      -3.699   6.727 -30.417  1.00  0.00     0.050 A 
HETATM   18  C   UNL     1      -2.501   7.262 -29.933  1.00  0.00     0.102 A 
HETATM   19  C   UNL     1      -1.302   6.574 -30.182  1.00  0.00     0.112 A 
HETATM   20  C   UNL     1      -1.291   5.406 -30.941  1.00  0.00     0.041 A 
HETATM   21  C   UNL     1      -2.493   4.886 -31.426  1.00  0.00     0.014 A 
BRANCH  18  22
HETATM   22  O   UNL     1      -2.396   8.413 -29.197  1.00  0.00    -0.353 OA
HETATM   23  C   UNL     1      -3.509   8.777 -28.392  1.00  0.00     0.210 C 
ENDBRANCH  18  22
BRANCH  19  24
HETATM   24  O   UNL     1      -0.135   7.144 -29.607  1.00  0.00    -0.272 OA
BRANCH  24  25
HETATM   25  C   UNL     1       0.546   6.655 -28.504  1.00  0.00     0.300 C 
HETATM   26  O   UNL     1       1.135   5.595 -28.377  1.00  0.00    -0.259 OA
BRANCH  25  27
HETATM   27  C   UNL     1       0.554   7.706 -27.474  1.00  0.00     0.061 A 
HETATM   28  C   UNL     1      -0.375   7.741 -26.429  1.00  0.00     0.050 A 
HETATM   29 CL   UNL     1      -1.599   6.541 -26.218  1.00  0.00    -0.083 Cl
HETATM   30  C   UNL     1      -0.296   8.759 -25.472  1.00  0.00     0.025 A 
HETATM   31  C   UNL     1       0.708   9.727 -25.553  1.00  0.00     0.002 A 
HETATM   32  C   UNL     1       1.645   9.679 -26.584  1.00  0.00     0.001 A 
HETATM   33  C   UNL     1       1.574   8.667 -27.542  1.00  0.00     0.019 A 
ENDBRANCH  25  27
ENDBRANCH  24  25
ENDBRANCH  19  24
ENDBRANCH   9  16
BRANCH  11  34
HETATM   34  O   UNL     1      -5.624   3.927 -35.022  1.00  0.00    -0.344 OA
HETATM   35  H   UNL     1      -5.892   4.830 -35.272  1.00  0.00     0.219 HD
ENDBRANCH  11  34
BRANCH   1  36
HETATM   36  C   UNL     1      -5.880  -1.744 -34.465  1.00  0.00     0.231 C 
HETATM   37  C   UNL     1      -5.953  -3.176 -34.960  1.00  0.00     0.034 C 
ENDBRANCH   1  36
TORSDOF 7
ENDMDL
MODEL 10
REMARK VINA RESULT:      -7.9      1.677      2.442
REMARK  7 active torsions:
REMARK  status: ('A' for Active; 'I' for Inactive)
REMARK    1  A    between atoms: C_2  and  N_3 
REMARK    2  A    between atoms: C_11  and  C_12 
REMARK    3  A    between atoms: C_14  and  O_15 
REMARK    4  A    between atoms: C_17  and  O_18 
REMARK    5  A    between atoms: O_18  and  C_19 
REMARK    6  A    between atoms: C_19  and  C_20 
REMARK    7  A    between atoms: C_31  and  O_32 
ROOT
HETATM    1  N   UNL     1      -0.115   9.279 -25.357  1.00  0.00    -0.067 N 
HETATM    2  H   UNL     1       0.494   9.566 -24.580  1.00  0.00     0.280 HD
HETATM    3  C   UNL     1       0.555   8.048 -25.972  1.00  0.00     0.281 C 
HETATM    4  C   UNL     1       0.002   7.772 -27.327  1.00  0.00     0.018 A 
HETATM    5  C   UNL     1      -0.670   8.692 -28.113  1.00  0.00    -0.024 A 
HETATM    6  C   UNL     1      -1.091   8.102 -29.348  1.00  0.00     0.057 A 
HETATM    7  C   UNL     1      -0.720   6.781 -29.430  1.00  0.00     0.087 A 
HETATM    8  N   UNL     1      -1.051   6.009 -30.479  1.00  0.00    -0.357 N 
HETATM    9  C   UNL     1      -1.550   6.662 -31.680  1.00  0.00     0.243 C 
HETATM   10  N   UNL     1      -2.089   8.026 -31.545  1.00  0.00    -0.235 NA
HETATM   11  C   UNL     1      -1.836   8.642 -30.454  1.00  0.00     0.173 C 
HETATM   12  S   UNL     1       0.143   6.248 -28.071  1.00  0.00    -0.074 SA
HETATM   13  C   UNL     1      -0.931  10.091 -27.634  1.00  0.00     0.068 C 
HETATM   14  C   UNL     1      -0.120  10.427 -26.368  1.00  0.00     0.240 C 
HETATM   15  H   UNL     1      -0.643   5.089 -30.617  1.00  0.00     0.162 HD
ENDROOT
BRANCH   9  16
HETATM   16  C   UNL     1      -2.606   5.770 -32.315  1.00  0.00    -0.012 A 
HETATM   17  C   UNL     1      -2.516   4.367 -32.212  1.00  0.00     0.050 A 
HETATM   18  C   UNL     1      -3.518   3.543 -32.733  1.00  0.00     0.102 A 
HETATM   19  C   UNL     1      -4.636   4.136 -33.342  1.00  0.00     0.112 A 
HETATM   20  C   UNL     1      -4.729   5.520 -33.474  1.00  0.00     0.041 A 
HETATM   21  C   UNL     1      -3.719   6.333 -32.956  1.00  0.00     0.014 A 
BRANCH  18  22
HETATM   22  O   UNL     1      -3.514   2.173 -32.678  1.00  0.00    -0.353 OA
HETATM   23  C   UNL     1      -3.318   1.572 -31.406  1.00  0.00     0.210 C 
ENDBRANCH  18  22
BRANCH  19  24
HETATM   24  O   UNL     1      -5.641   3.238 -33.791  1.00  0.00    -0.272 OA
BRANCH  24  25
HETATM   25  C   UNL     1      -6.567   2.591 -32.991  1.00  0.00     0.300 C 
HETATM   26  O   UNL     1      -7.241   3.045 -32.081  1.00  0.00    -0.259 OA
BRANCH  25  27
HETATM   27  C   UNL     1      -6.714   1.215 -33.489  1.00  0.00     0.061 A 
HETATM   28  C   UNL     1      -6.668   0.100 -32.645  1.00  0.00     0.050 A 
HETATM   29 CL   UNL     1      -6.471   0.224 -30.934  1.00  0.00    -0.083 Cl
HETATM   30  C   UNL     1      -6.836  -1.180 -33.185  1.00  0.00     0.025 A 
HETATM   31  C   UNL     1      -7.058  -1.344 -34.555  1.00  0.00     0.002 A 
HETATM   32  C   UNL     1      -7.124  -0.231 -35.391  1.00  0.00     0.001 A 
HETATM   33  C   UNL     1      -6.958   1.049 -34.860  1.00  0.00     0.019 A 
ENDBRANCH  25  27
ENDBRANCH  24  25
ENDBRANCH  19  24
ENDBRANCH   9  16
BRANCH  11  34
HETATM   34  O   UNL     1      -2.303   9.894 -30.310  1.00  0.00    -0.344 OA
HETATM   35  H   UNL     1      -2.186  10.331 -31.173  1.00  0.00     0.219 HD
ENDBRANCH  11  34
BRANCH   1  36
HETATM   36  C   UNL     1      -1.460   8.937 -24.751  1.00  0.00     0.231 C 
HETATM   37  C   UNL     1      -2.001  10.093 -23.932  1.00  0.00     0.034 C 
ENDBRANCH   1  36
TORSDOF 7
ENDMDL
