MODEL 1
REMARK VINA RESULT:      -9.4      0.000      0.000
REMARK  8 active torsions:
REMARK  status: ('A' for Active; 'I' for Inactive)
REMARK    1  A    between atoms: O_2  and  C_3 
REMARK    2  A    between atoms: C_5  and  C_6 
REMARK    3  A    between atoms: N_7  and  N_8 
REMARK    4  A    between atoms: C_19  and  C_20 
REMARK       I    between atoms: C_20  and  N_21 
REMARK    5  A    between atoms: N_21  and  C_22 
REMARK    6  A    between atoms: C_22  and  C_23 
REMARK    7  A    between atoms: C_23  and  C_24 
REMARK    8  A    between atoms: C_31  and  N_32 
ROOT
HETATM    1  N   UNL     1      -4.479   1.751 -30.905  1.00  0.00    -0.197 N 
HETATM    2  C   UNL     1      -3.930   2.979 -31.245  1.00  0.00     0.183 A 
HETATM    3  C   UNL     1      -4.934   3.929 -31.092  1.00  0.00     0.125 A 
HETATM    4  N   UNL     1      -4.748   5.227 -31.453  1.00  0.00    -0.242 NA
HETATM    5  C   UNL     1      -3.517   5.511 -31.904  1.00  0.00     0.086 A 
HETATM    6  C   UNL     1      -2.498   4.529 -32.032  1.00  0.00     0.088 A 
HETATM    7  N   UNL     1      -2.686   3.236 -31.719  1.00  0.00    -0.225 NA
HETATM    8  C   UNL     1      -3.242   6.821 -32.272  1.00  0.00     0.034 A 
HETATM    9  C   UNL     1      -1.990   7.194 -32.761  1.00  0.00     0.002 A 
HETATM   10  C   UNL     1      -0.992   6.238 -32.884  1.00  0.00     0.002 A 
HETATM   11  C   UNL     1      -1.256   4.917 -32.519  1.00  0.00     0.034 A 
HETATM   12  C   UNL     1      -6.098   3.288 -30.605  1.00  0.00     0.110 C 
HETATM   13  C   UNL     1      -5.730   1.980 -30.338  1.00  0.00     0.143 C 
ENDROOT
BRANCH  12  14
HETATM   14  C   UNL     1      -7.457   3.792 -30.522  1.00  0.00     0.257 C 
HETATM   15  N   UNL     1      -7.756   4.726 -31.495  1.00  0.00    -0.356 N 
HETATM   16  H   UNL     1      -6.962   5.083 -32.021  1.00  0.00     0.162 HD
HETATM   17  O   UNL     1      -8.307   3.314 -29.777  1.00  0.00    -0.267 OA
BRANCH  15  18
HETATM   18  C   UNL     1      -8.993   4.573 -32.236  1.00  0.00     0.127 C 
BRANCH  18  19
HETATM   19  C   UNL     1      -8.764   3.932 -33.617  1.00  0.00     0.053 C 
BRANCH  19  20
HETATM   20  C   UNL     1      -8.672   2.414 -33.619  1.00  0.00    -0.082 C 
HETATM   21  C   UNL     1      -7.512   1.786 -34.360  1.00  0.00     0.034 C 
HETATM   22  C   UNL     1      -7.655   0.273 -34.565  1.00  0.00     0.005 C 
HETATM   23  C   UNL     1      -8.173  -0.416 -33.307  1.00  0.00     0.004 C 
HETATM   24  C   UNL     1      -9.523   0.160 -32.885  1.00  0.00     0.027 C 
HETATM   25  C   UNL     1      -9.577   1.658 -32.967  1.00  0.00    -0.024 C 
ENDBRANCH  19  20
ENDBRANCH  18  19
ENDBRANCH  15  18
ENDBRANCH  12  14
BRANCH  13  26
HETATM   26  N   UNL     1      -6.450   0.960 -29.809  1.00  0.00    -0.383 N 
HETATM   27  H   UNL     1      -7.457   0.900 -29.962  1.00  0.00     0.157 HD
HETATM   28  H   UNL     1      -6.081   0.416 -29.032  1.00  0.00     0.157 HD
ENDBRANCH  13  26
BRANCH   1  29
HETATM   29  N   UNL     1      -4.073   0.466 -31.171  1.00  0.00    -0.176 NA
HETATM   30  C   UNL     1      -4.311   0.027 -32.363  1.00  0.00     0.150 C 
BRANCH  30  31
HETATM   31  C   UNL     1      -4.183  -1.415 -32.667  1.00  0.00    -0.014 A 
HETATM   32  C   UNL     1      -4.827  -1.954 -33.789  1.00  0.00     0.049 A 
HETATM   33  C   UNL     1      -4.577  -3.272 -34.165  1.00  0.00     0.069 A 
HETATM   34  C   UNL     1      -3.706  -4.049 -33.396  1.00  0.00     0.037 A 
HETATM   35  C   UNL     1      -3.072  -3.514 -32.272  1.00  0.00     0.004 A 
HETATM   36  C   UNL     1      -3.305  -2.188 -31.908  1.00  0.00     0.013 A 
BRANCH  33  37
HETATM   37  O   UNL     1      -5.103  -3.905 -35.259  1.00  0.00    -0.356 OA
HETATM   38  C   UNL     1      -6.343  -4.578 -35.070  1.00  0.00     0.210 C 
ENDBRANCH  33  37
ENDBRANCH  30  31
ENDBRANCH   1  29
TORSDOF 8
ENDMDL
MODEL 2
REMARK VINA RESULT:      -9.3      2.807      5.318
REMARK  8 active torsions:
REMARK  status: ('A' for Active; 'I' for Inactive)
REMARK    1  A    between atoms: O_2  and  C_3 
REMARK    2  A    between atoms: C_5  and  C_6 
REMARK    3  A    between atoms: N_7  and  N_8 
REMARK    4  A    between atoms: C_19  and  C_20 
REMARK       I    between atoms: C_20  and  N_21 
REMARK    5  A    between atoms: N_21  and  C_22 
REMARK    6  A    between atoms: C_22  and  C_23 
REMARK    7  A    between atoms: C_23  and  C_24 
REMARK    8  A    between atoms: C_31  and  N_32 
ROOT
HETATM    1  N   UNL     1      -5.185   2.387 -31.391  1.00  0.00    -0.197 N 
HETATM    2  C   UNL     1      -4.328   3.410 -31.772  1.00  0.00     0.183 A 
HETATM    3  C   UNL     1      -4.487   4.438 -30.850  1.00  0.00     0.125 A 
HETATM    4  N   UNL     1      -3.864   5.636 -31.003  1.00  0.00    -0.242 NA
HETATM    5  C   UNL     1      -3.054   5.713 -32.070  1.00  0.00     0.086 A 
HETATM    6  C   UNL     1      -2.888   4.643 -32.988  1.00  0.00     0.088 A 
HETATM    7  N   UNL     1      -3.532   3.470 -32.868  1.00  0.00    -0.225 NA
HETATM    8  C   UNL     1      -2.364   6.899 -32.283  1.00  0.00     0.034 A 
HETATM    9  C   UNL     1      -1.512   7.061 -33.375  1.00  0.00     0.002 A 
HETATM   10  C   UNL     1      -1.345   6.016 -34.272  1.00  0.00     0.002 A 
HETATM   11  C   UNL     1      -2.033   4.818 -34.070  1.00  0.00     0.034 A 
HETATM   12  C   UNL     1      -5.415   4.025 -29.863  1.00  0.00     0.110 C 
HETATM   13  C   UNL     1      -5.692   2.695 -30.132  1.00  0.00     0.143 C 
ENDROOT
BRANCH  12  14
HETATM   14  C   UNL     1      -6.089   4.816 -28.850  1.00  0.00     0.257 C 
HETATM   15  N   UNL     1      -5.228   5.374 -27.925  1.00  0.00    -0.356 N 
HETATM   16  H   UNL     1      -4.273   5.022 -27.945  1.00  0.00     0.162 HD
HETATM   17  O   UNL     1      -7.281   5.106 -28.907  1.00  0.00    -0.267 OA
BRANCH  15  18
HETATM   18  C   UNL     1      -5.382   6.779 -27.603  1.00  0.00     0.127 C 
BRANCH  18  19
HETATM   19  C   UNL     1      -4.351   7.250 -26.561  1.00  0.00     0.053 C 
BRANCH  19  20
HETATM   20  C   UNL     1      -2.896   7.050 -26.954  1.00  0.00    -0.082 C 
HETATM   21  C   UNL     1      -2.459   7.580 -28.302  1.00  0.00     0.034 C 
HETATM   22  C   UNL     1      -1.076   7.082 -28.744  1.00  0.00     0.005 C 
HETATM   23  C   UNL     1      -0.077   7.109 -27.593  1.00  0.00     0.004 C 
HETATM   24  C   UNL     1      -0.566   6.255 -26.425  1.00  0.00     0.027 C 
HETATM   25  C   UNL     1      -2.025   6.444 -26.125  1.00  0.00    -0.024 C 
ENDBRANCH  19  20
ENDBRANCH  18  19
ENDBRANCH  15  18
ENDBRANCH  12  14
BRANCH  13  26
HETATM   26  N   UNL     1      -6.474   1.813 -29.463  1.00  0.00    -0.383 N 
HETATM   27  H   UNL     1      -7.460   2.018 -29.291  1.00  0.00     0.157 HD
HETATM   28  H   UNL     1      -6.058   1.092 -28.879  1.00  0.00     0.157 HD
ENDBRANCH  13  26
BRANCH   1  29
HETATM   29  N   UNL     1      -5.677   1.306 -32.082  1.00  0.00    -0.176 NA
HETATM   30  C   UNL     1      -4.857   0.324 -32.267  1.00  0.00     0.150 C 
BRANCH  30  31
HETATM   31  C   UNL     1      -5.183  -0.748 -33.232  1.00  0.00    -0.014 A 
HETATM   32  C   UNL     1      -4.262  -1.777 -33.472  1.00  0.00     0.049 A 
HETATM   33  C   UNL     1      -4.632  -2.869 -34.256  1.00  0.00     0.069 A 
HETATM   34  C   UNL     1      -5.912  -2.907 -34.816  1.00  0.00     0.037 A 
HETATM   35  C   UNL     1      -6.825  -1.875 -34.584  1.00  0.00     0.004 A 
HETATM   36  C   UNL     1      -6.464  -0.793 -33.783  1.00  0.00     0.013 A 
BRANCH  33  37
HETATM   37  O   UNL     1      -3.849  -3.957 -34.530  1.00  0.00    -0.356 OA
HETATM   38  C   UNL     1      -3.715  -4.923 -33.493  1.00  0.00     0.210 C 
ENDBRANCH  33  37
ENDBRANCH  30  31
ENDBRANCH   1  29
TORSDOF 8
ENDMDL
MODEL 3
REMARK VINA RESULT:      -9.1      1.234      1.820
REMARK  8 active torsions:
REMARK  status: ('A' for Active; 'I' for Inactive)
REMARK    1  A    between atoms: O_2  and  C_3 
REMARK    2  A    between atoms: C_5  and  C_6 
REMARK    3  A    between atoms: N_7  and  N_8 
REMARK    4  A    between atoms: C_19  and  C_20 
REMARK       I    between atoms: C_20  and  N_21 
REMARK    5  A    between atoms: N_21  and  C_22 
REMARK    6  A    between atoms: C_22  and  C_23 
REMARK    7  A    between atoms: C_23  and  C_24 
REMARK    8  A    between atoms: C_31  and  N_32 
ROOT
HETATM    1  N   UNL     1      -4.460   2.372 -30.959  1.00  0.00    -0.197 N 
HETATM    2  C   UNL     1      -3.809   3.565 -31.239  1.00  0.00     0.183 A 
HETATM    3  C   UNL     1      -4.620   4.591 -30.766  1.00  0.00     0.125 A 
HETATM    4  N   UNL     1      -4.316   5.898 -30.983  1.00  0.00    -0.242 NA
HETATM    5  C   UNL     1      -3.159   6.103 -31.630  1.00  0.00     0.086 A 
HETATM    6  C   UNL     1      -2.334   5.041 -32.086  1.00  0.00     0.088 A 
HETATM    7  N   UNL     1      -2.647   3.746 -31.913  1.00  0.00    -0.225 NA
HETATM    8  C   UNL     1      -2.768   7.414 -31.870  1.00  0.00     0.034 A 
HETATM    9  C   UNL     1      -1.584   7.709 -32.547  1.00  0.00     0.002 A 
HETATM   10  C   UNL     1      -0.774   6.674 -32.990  1.00  0.00     0.002 A 
HETATM   11  C   UNL     1      -1.156   5.352 -32.755  1.00  0.00     0.034 A 
HETATM   12  C   UNL     1      -5.758   4.022 -30.144  1.00  0.00     0.110 C 
HETATM   13  C   UNL     1      -5.541   2.655 -30.129  1.00  0.00     0.143 C 
ENDROOT
BRANCH  12  14
HETATM   14  C   UNL     1      -6.992   4.663 -29.726  1.00  0.00     0.257 C 
HETATM   15  N   UNL     1      -7.862   4.912 -30.769  1.00  0.00    -0.356 N 
HETATM   16  H   UNL     1      -7.474   4.797 -31.703  1.00  0.00     0.162 HD
HETATM   17  O   UNL     1      -7.307   4.811 -28.549  1.00  0.00    -0.267 OA
BRANCH  15  18
HETATM   18  C   UNL     1      -9.253   4.535 -30.608  1.00  0.00     0.127 C 
BRANCH  18  19
HETATM   19  C   UNL     1      -9.424   3.015 -30.433  1.00  0.00     0.053 C 
BRANCH  19  20
HETATM   20  C   UNL     1      -9.471   2.216 -31.726  1.00  0.00    -0.082 C 
HETATM   21  C   UNL     1      -9.909   2.942 -32.979  1.00  0.00     0.034 C 
HETATM   22  C   UNL     1     -10.213   2.011 -34.159  1.00  0.00     0.005 C 
HETATM   23  C   UNL     1      -9.169   0.906 -34.285  1.00  0.00     0.004 C 
HETATM   24  C   UNL     1      -9.092   0.080 -33.003  1.00  0.00     0.027 C 
HETATM   25  C   UNL     1      -9.117   0.917 -31.757  1.00  0.00    -0.024 C 
ENDBRANCH  19  20
ENDBRANCH  18  19
ENDBRANCH  15  18
ENDBRANCH  12  14
BRANCH  13  26
HETATM   26  N   UNL     1      -6.294   1.656 -29.604  1.00  0.00    -0.383 N 
HETATM   27  H   UNL     1      -6.271   0.720 -30.010  1.00  0.00     0.157 HD
HETATM   28  H   UNL     1      -7.091   1.868 -29.009  1.00  0.00     0.157 HD
ENDBRANCH  13  26
BRANCH   1  29
HETATM   29  N   UNL     1      -4.299   1.106 -31.466  1.00  0.00    -0.176 NA
HETATM   30  C   UNL     1      -4.556   0.958 -32.725  1.00  0.00     0.150 C 
BRANCH  30  31
HETATM   31  C   UNL     1      -4.696  -0.396 -33.304  1.00  0.00    -0.014 A 
HETATM   32  C   UNL     1      -3.854  -1.432 -32.876  1.00  0.00     0.049 A 
HETATM   33  C   UNL     1      -4.091  -2.737 -33.301  1.00  0.00     0.069 A 
HETATM   34  C   UNL     1      -5.151  -2.991 -34.175  1.00  0.00     0.037 A 
HETATM   35  C   UNL     1      -5.984  -1.956 -34.609  1.00  0.00     0.004 A 
HETATM   36  C   UNL     1      -5.761  -0.653 -34.168  1.00  0.00     0.013 A 
BRANCH  33  37
HETATM   37  O   UNL     1      -3.376  -3.842 -32.924  1.00  0.00    -0.356 OA
HETATM   38  C   UNL     1      -3.519  -5.001 -33.739  1.00  0.00     0.210 C 
ENDBRANCH  33  37
ENDBRANCH  30  31
ENDBRANCH   1  29
TORSDOF 8
ENDMDL
MODEL 4
REMARK VINA RESULT:      -9.1      2.558      8.035
REMARK  8 active torsions:
REMARK  status: ('A' for Active; 'I' for Inactive)
REMARK    1  A    between atoms: O_2  and  C_3 
REMARK    2  A    between atoms: C_5  and  C_6 
REMARK    3  A    between atoms: N_7  and  N_8 
REMARK    4  A    between atoms: C_19  and  C_20 
REMARK       I    between atoms: C_20  and  N_21 
REMARK    5  A    between atoms: N_21  and  C_22 
REMARK    6  A    between atoms: C_22  and  C_23 
REMARK    7  A    between atoms: C_23  and  C_24 
REMARK    8  A    between atoms: C_31  and  N_32 
ROOT
HETATM    1  N   UNL     1      -8.355   0.968 -32.230  1.00  0.00    -0.197 N 
HETATM    2  C   UNL     1      -7.491  -0.020 -32.682  1.00  0.00     0.183 A 
HETATM    3  C   UNL     1      -6.269   0.191 -32.052  1.00  0.00     0.125 A 
HETATM    4  N   UNL     1      -5.171  -0.547 -32.363  1.00  0.00    -0.242 NA
HETATM    5  C   UNL     1      -5.383  -1.512 -33.270  1.00  0.00     0.086 A 
HETATM    6  C   UNL     1      -6.646  -1.725 -33.885  1.00  0.00     0.088 A 
HETATM    7  N   UNL     1      -7.726  -0.974 -33.616  1.00  0.00    -0.225 NA
HETATM    8  C   UNL     1      -4.314  -2.324 -33.624  1.00  0.00     0.034 A 
HETATM    9  C   UNL     1      -4.452  -3.342 -34.568  1.00  0.00     0.002 A 
HETATM   10  C   UNL     1      -5.684  -3.554 -35.168  1.00  0.00     0.002 A 
HETATM   11  C   UNL     1      -6.768  -2.745 -34.821  1.00  0.00     0.034 A 
HETATM   12  C   UNL     1      -6.396   1.288 -31.166  1.00  0.00     0.110 C 
HETATM   13  C   UNL     1      -7.737   1.632 -31.174  1.00  0.00     0.143 C 
ENDROOT
BRANCH  12  14
HETATM   14  C   UNL     1      -5.359   2.039 -30.482  1.00  0.00     0.257 C 
HETATM   15  N   UNL     1      -4.080   1.652 -30.831  1.00  0.00    -0.356 N 
HETATM   16  H   UNL     1      -4.011   0.787 -31.362  1.00  0.00     0.162 HD
HETATM   17  O   UNL     1      -5.589   3.033 -29.798  1.00  0.00    -0.267 OA
BRANCH  15  18
HETATM   18  C   UNL     1      -3.117   2.683 -31.167  1.00  0.00     0.127 C 
BRANCH  18  19
HETATM   19  C   UNL     1      -3.324   3.223 -32.594  1.00  0.00     0.053 C 
BRANCH  19  20
HETATM   20  C   UNL     1      -2.411   4.373 -32.990  1.00  0.00    -0.082 C 
HETATM   21  C   UNL     1      -2.351   4.744 -34.456  1.00  0.00     0.034 C 
HETATM   22  C   UNL     1      -1.202   5.697 -34.806  1.00  0.00     0.005 C 
HETATM   23  C   UNL     1      -1.057   6.805 -33.768  1.00  0.00     0.004 C 
HETATM   24  C   UNL     1      -0.816   6.222 -32.378  1.00  0.00     0.027 C 
HETATM   25  C   UNL     1      -1.699   5.048 -32.068  1.00  0.00    -0.024 C 
ENDBRANCH  19  20
ENDBRANCH  18  19
ENDBRANCH  15  18
ENDBRANCH  12  14
BRANCH  13  26
HETATM   26  N   UNL     1      -8.401   2.578 -30.465  1.00  0.00    -0.383 N 
HETATM   27  H   UNL     1      -9.171   2.320 -29.848  1.00  0.00     0.157 HD
HETATM   28  H   UNL     1      -8.353   3.557 -30.738  1.00  0.00     0.157 HD
ENDBRANCH  13  26
BRANCH   1  29
HETATM   29  N   UNL     1      -9.543   1.439 -32.734  1.00  0.00    -0.176 NA
HETATM   30  C   UNL     1      -9.475   2.069 -33.861  1.00  0.00     0.150 C 
BRANCH  30  31
HETATM   31  C   UNL     1     -10.628   2.859 -34.345  1.00  0.00    -0.014 A 
HETATM   32  C   UNL     1     -10.562   4.259 -34.358  1.00  0.00     0.049 A 
HETATM   33  C   UNL     1     -11.579   4.996 -34.961  1.00  0.00     0.069 A 
HETATM   34  C   UNL     1     -12.670   4.325 -35.520  1.00  0.00     0.037 A 
HETATM   35  C   UNL     1     -12.741   2.930 -35.498  1.00  0.00     0.004 A 
HETATM   36  C   UNL     1     -11.713   2.190 -34.914  1.00  0.00     0.013 A 
BRANCH  33  37
HETATM   37  O   UNL     1     -11.615   6.358 -35.081  1.00  0.00    -0.356 OA
HETATM   38  C   UNL     1     -10.479   6.975 -35.677  1.00  0.00     0.210 C 
ENDBRANCH  33  37
ENDBRANCH  30  31
ENDBRANCH   1  29
TORSDOF 8
ENDMDL
MODEL 5
REMARK VINA RESULT:      -9.0      2.961      8.420
REMARK  8 active torsions:
REMARK  status: ('A' for Active; 'I' for Inactive)
REMARK    1  A    between atoms: O_2  and  C_3 
REMARK    2  A    between atoms: C_5  and  C_6 
REMARK    3  A    between atoms: N_7  and  N_8 
REMARK    4  A    between atoms: C_19  and  C_20 
REMARK       I    between atoms: C_20  and  N_21 
REMARK    5  A    between atoms: N_21  and  C_22 
REMARK    6  A    between atoms: C_22  and  C_23 
REMARK    7  A    between atoms: C_23  and  C_24 
REMARK    8  A    between atoms: C_31  and  N_32 
ROOT
HETATM    1  N   UNL     1      -7.049   0.938 -33.333  1.00  0.00    -0.197 N 
HETATM    2  C   UNL     1      -6.512  -0.324 -33.540  1.00  0.00     0.183 A 
HETATM    3  C   UNL     1      -5.206  -0.293 -33.063  1.00  0.00     0.125 A 
HETATM    4  N   UNL     1      -4.365  -1.350 -33.218  1.00  0.00    -0.242 NA
HETATM    5  C   UNL     1      -4.916  -2.421 -33.807  1.00  0.00     0.086 A 
HETATM    6  C   UNL     1      -6.260  -2.441 -34.267  1.00  0.00     0.088 A 
HETATM    7  N   UNL     1      -7.085  -1.386 -34.157  1.00  0.00    -0.225 NA
HETATM    8  C   UNL     1      -4.126  -3.550 -33.982  1.00  0.00     0.034 A 
HETATM    9  C   UNL     1      -4.623  -4.700 -34.596  1.00  0.00     0.002 A 
HETATM   10  C   UNL     1      -5.936  -4.723 -35.043  1.00  0.00     0.002 A 
HETATM   11  C   UNL     1      -6.740  -3.595 -34.875  1.00  0.00     0.034 A 
HETATM   12  C   UNL     1      -4.952   0.986 -32.512  1.00  0.00     0.110 C 
HETATM   13  C   UNL     1      -6.161   1.660 -32.540  1.00  0.00     0.143 C 
ENDROOT
BRANCH  12  14
HETATM   14  C   UNL     1      -3.687   1.583 -32.123  1.00  0.00     0.257 C 
HETATM   15  N   UNL     1      -3.440   2.795 -32.738  1.00  0.00    -0.356 N 
HETATM   16  H   UNL     1      -4.058   3.031 -33.511  1.00  0.00     0.162 HD
HETATM   17  O   UNL     1      -2.990   1.146 -31.212  1.00  0.00    -0.267 OA
BRANCH  15  18
HETATM   18  C   UNL     1      -2.997   3.905 -31.916  1.00  0.00     0.127 C 
BRANCH  18  19
HETATM   19  C   UNL     1      -1.856   4.697 -32.581  1.00  0.00     0.053 C 
BRANCH  19  20
HETATM   20  C   UNL     1      -0.913   5.403 -31.620  1.00  0.00    -0.082 C 
HETATM   21  C   UNL     1      -0.451   6.795 -31.991  1.00  0.00     0.034 C 
HETATM   22  C   UNL     1       0.713   7.310 -31.135  1.00  0.00     0.005 C 
HETATM   23  C   UNL     1       0.513   6.979 -29.661  1.00  0.00     0.004 C 
HETATM   24  C   UNL     1       0.369   5.473 -29.453  1.00  0.00     0.027 C 
HETATM   25  C   UNL     1      -0.520   4.819 -30.471  1.00  0.00    -0.024 C 
ENDBRANCH  19  20
ENDBRANCH  18  19
ENDBRANCH  15  18
ENDBRANCH  12  14
BRANCH  13  26
HETATM   26  N   UNL     1      -6.483   2.896 -32.085  1.00  0.00    -0.383 N 
HETATM   27  H   UNL     1      -6.867   3.022 -31.148  1.00  0.00     0.157 HD
HETATM   28  H   UNL     1      -6.628   3.665 -32.736  1.00  0.00     0.157 HD
ENDBRANCH  13  26
BRANCH   1  29
HETATM   29  N   UNL     1      -8.142   1.564 -33.880  1.00  0.00    -0.176 NA
HETATM   30  C   UNL     1      -9.278   1.337 -33.306  1.00  0.00     0.150 C 
BRANCH  30  31
HETATM   31  C   UNL     1     -10.542   1.718 -33.973  1.00  0.00    -0.014 A 
HETATM   32  C   UNL     1     -11.672   0.898 -33.855  1.00  0.00     0.049 A 
HETATM   33  C   UNL     1     -12.900   1.335 -34.346  1.00  0.00     0.069 A 
HETATM   34  C   UNL     1     -12.980   2.578 -34.979  1.00  0.00     0.037 A 
HETATM   35  C   UNL     1     -11.851   3.391 -35.106  1.00  0.00     0.004 A 
HETATM   36  C   UNL     1     -10.626   2.964 -34.595  1.00  0.00     0.013 A 
BRANCH  33  37
HETATM   37  O   UNL     1     -14.084   0.655 -34.256  1.00  0.00    -0.356 OA
HETATM   38  C   UNL     1     -15.107   1.259 -33.471  1.00  0.00     0.210 C 
ENDBRANCH  33  37
ENDBRANCH  30  31
ENDBRANCH   1  29
TORSDOF 8
ENDMDL
MODEL 6
REMARK VINA RESULT:      -8.9      1.986      2.700
REMARK  8 active torsions:
REMARK  status: ('A' for Active; 'I' for Inactive)
REMARK    1  A    between atoms: O_2  and  C_3 
REMARK    2  A    between atoms: C_5  and  C_6 
REMARK    3  A    between atoms: N_7  and  N_8 
REMARK    4  A    between atoms: C_19  and  C_20 
REMARK       I    between atoms: C_20  and  N_21 
REMARK    5  A    between atoms: N_21  and  C_22 
REMARK    6  A    between atoms: C_22  and  C_23 
REMARK    7  A    between atoms: C_23  and  C_24 
REMARK    8  A    between atoms: C_31  and  N_32 
ROOT
HETATM    1  N   UNL     1      -5.964   1.192 -31.973  1.00  0.00    -0.197 N 
HETATM    2  C   UNL     1      -5.284   2.390 -32.136  1.00  0.00     0.183 A 
HETATM    3  C   UNL     1      -6.200   3.411 -31.906  1.00  0.00     0.125 A 
HETATM    4  N   UNL     1      -5.873   4.717 -32.094  1.00  0.00    -0.242 NA
HETATM    5  C   UNL     1      -4.599   4.929 -32.457  1.00  0.00     0.086 A 
HETATM    6  C   UNL     1      -3.673   3.872 -32.665  1.00  0.00     0.088 A 
HETATM    7  N   UNL     1      -3.998   2.576 -32.523  1.00  0.00    -0.225 NA
HETATM    8  C   UNL     1      -4.182   6.239 -32.647  1.00  0.00     0.034 A 
HETATM    9  C   UNL     1      -2.877   6.541 -33.036  1.00  0.00     0.002 A 
HETATM   10  C   UNL     1      -1.969   5.511 -33.237  1.00  0.00     0.002 A 
HETATM   11  C   UNL     1      -2.375   4.188 -33.050  1.00  0.00     0.034 A 
HETATM   12  C   UNL     1      -7.444   2.836 -31.549  1.00  0.00     0.110 C 
HETATM   13  C   UNL     1      -7.215   1.476 -31.433  1.00  0.00     0.143 C 
ENDROOT
BRANCH  12  14
HETATM   14  C   UNL     1      -8.751   3.462 -31.458  1.00  0.00     0.257 C 
HETATM   15  N   UNL     1      -8.988   4.385 -32.458  1.00  0.00    -0.356 N 
HETATM   16  H   UNL     1      -8.178   4.653 -33.011  1.00  0.00     0.162 HD
HETATM   17  O   UNL     1      -9.623   3.085 -30.680  1.00  0.00    -0.267 OA
BRANCH  15  18
HETATM   18  C   UNL     1     -10.250   4.317 -33.169  1.00  0.00     0.127 C 
BRANCH  18  19
HETATM   19  C   UNL     1     -10.264   3.187 -34.216  1.00  0.00     0.053 C 
BRANCH  19  20
HETATM   20  C   UNL     1     -11.441   2.230 -34.119  1.00  0.00    -0.082 C 
HETATM   21  C   UNL     1     -12.771   2.702 -34.663  1.00  0.00     0.034 C 
HETATM   22  C   UNL     1     -13.955   1.811 -34.264  1.00  0.00     0.005 C 
HETATM   23  C   UNL     1     -13.605   0.332 -34.378  1.00  0.00     0.004 C 
HETATM   24  C   UNL     1     -12.402  -0.015 -33.505  1.00  0.00     0.027 C 
HETATM   25  C   UNL     1     -11.299   1.000 -33.589  1.00  0.00    -0.024 C 
ENDBRANCH  19  20
ENDBRANCH  18  19
ENDBRANCH  15  18
ENDBRANCH  12  14
BRANCH  13  26
HETATM   26  N   UNL     1      -8.056   0.477 -31.064  1.00  0.00    -0.383 N 
HETATM   27  H   UNL     1      -8.920   0.308 -31.579  1.00  0.00     0.157 HD
HETATM   28  H   UNL     1      -8.005   0.078 -30.129  1.00  0.00     0.157 HD
ENDBRANCH  13  26
BRANCH   1  29
HETATM   29  N   UNL     1      -5.669  -0.086 -32.381  1.00  0.00    -0.176 NA
HETATM   30  C   UNL     1      -5.744  -0.312 -33.651  1.00  0.00     0.150 C 
BRANCH  30  31
HETATM   31  C   UNL     1      -5.732  -1.700 -34.165  1.00  0.00    -0.014 A 
HETATM   32  C   UNL     1      -4.591  -2.496 -34.003  1.00  0.00     0.049 A 
HETATM   33  C   UNL     1      -4.635  -3.848 -34.341  1.00  0.00     0.069 A 
HETATM   34  C   UNL     1      -5.815  -4.383 -34.866  1.00  0.00     0.037 A 
HETATM   35  C   UNL     1      -6.949  -3.586 -35.036  1.00  0.00     0.004 A 
HETATM   36  C   UNL     1      -6.913  -2.239 -34.678  1.00  0.00     0.013 A 
BRANCH  33  37
HETATM   37  O   UNL     1      -3.611  -4.742 -34.192  1.00  0.00    -0.356 OA
HETATM   38  C   UNL     1      -2.939  -4.737 -32.936  1.00  0.00     0.210 C 
ENDBRANCH  33  37
ENDBRANCH  30  31
ENDBRANCH   1  29
TORSDOF 8
ENDMDL
MODEL 7
REMARK VINA RESULT:      -8.7      2.548      6.914
REMARK  8 active torsions:
REMARK  status: ('A' for Active; 'I' for Inactive)
REMARK    1  A    between atoms: O_2  and  C_3 
REMARK    2  A    between atoms: C_5  and  C_6 
REMARK    3  A    between atoms: N_7  and  N_8 
REMARK    4  A    between atoms: C_19  and  C_20 
REMARK       I    between atoms: C_20  and  N_21 
REMARK    5  A    between atoms: N_21  and  C_22 
REMARK    6  A    between atoms: C_22  and  C_23 
REMARK    7  A    between atoms: C_23  and  C_24 
REMARK    8  A    between atoms: C_31  and  N_32 
ROOT
HETATM    1  N   UNL     1      -8.226   1.909 -31.404  1.00  0.00    -0.197 N 
HETATM    2  C   UNL     1      -7.020   1.223 -31.427  1.00  0.00     0.183 A 
HETATM    3  C   UNL     1      -6.117   1.964 -30.673  1.00  0.00     0.125 A 
HETATM    4  N   UNL     1      -4.806   1.615 -30.587  1.00  0.00    -0.242 NA
HETATM    5  C   UNL     1      -4.484   0.485 -31.232  1.00  0.00     0.086 A 
HETATM    6  C   UNL     1      -5.427  -0.271 -31.979  1.00  0.00     0.088 A 
HETATM    7  N   UNL     1      -6.716   0.089 -32.105  1.00  0.00    -0.225 NA
HETATM    8  C   UNL     1      -3.166   0.050 -31.173  1.00  0.00     0.034 A 
HETATM    9  C   UNL     1      -2.751  -1.110 -31.827  1.00  0.00     0.002 A 
HETATM   10  C   UNL     1      -3.671  -1.851 -32.554  1.00  0.00     0.002 A 
HETATM   11  C   UNL     1      -4.999  -1.425 -32.623  1.00  0.00     0.034 A 
HETATM   12  C   UNL     1      -6.786   3.093 -30.140  1.00  0.00     0.110 C 
HETATM   13  C   UNL     1      -8.121   2.934 -30.468  1.00  0.00     0.143 C 
ENDROOT
BRANCH  12  14
HETATM   14  C   UNL     1      -6.229   4.275 -29.508  1.00  0.00     0.257 C 
HETATM   15  N   UNL     1      -4.920   4.527 -29.871  1.00  0.00    -0.356 N 
HETATM   16  H   UNL     1      -4.450   3.776 -30.372  1.00  0.00     0.162 HD
HETATM   17  O   UNL     1      -6.902   5.068 -28.856  1.00  0.00    -0.267 OA
BRANCH  15  18
HETATM   18  C   UNL     1      -4.565   5.876 -30.267  1.00  0.00     0.127 C 
BRANCH  18  19
HETATM   19  C   UNL     1      -5.057   6.210 -31.688  1.00  0.00     0.053 C 
BRANCH  19  20
HETATM   20  C   UNL     1      -3.987   6.182 -32.767  1.00  0.00    -0.082 C 
HETATM   21  C   UNL     1      -2.738   7.002 -32.532  1.00  0.00     0.034 C 
HETATM   22  C   UNL     1      -1.856   7.157 -33.778  1.00  0.00     0.005 C 
HETATM   23  C   UNL     1      -1.731   5.843 -34.542  1.00  0.00     0.004 C 
HETATM   24  C   UNL     1      -3.104   5.324 -34.963  1.00  0.00     0.027 C 
HETATM   25  C   UNL     1      -4.137   5.438 -33.880  1.00  0.00    -0.024 C 
ENDBRANCH  19  20
ENDBRANCH  18  19
ENDBRANCH  15  18
ENDBRANCH  12  14
BRANCH  13  26
HETATM   26  N   UNL     1      -9.195   3.702 -30.156  1.00  0.00    -0.383 N 
HETATM   27  H   UNL     1      -9.532   4.414 -30.806  1.00  0.00     0.157 HD
HETATM   28  H   UNL     1      -9.499   3.796 -29.190  1.00  0.00     0.157 HD
ENDBRANCH  13  26
BRANCH   1  29
HETATM   29  N   UNL     1      -9.335   1.829 -32.210  1.00  0.00    -0.176 NA
HETATM   30  C   UNL     1      -9.197   2.270 -33.418  1.00  0.00     0.150 C 
BRANCH  30  31
HETATM   31  C   UNL     1     -10.385   2.498 -34.269  1.00  0.00    -0.014 A 
HETATM   32  C   UNL     1     -11.416   1.549 -34.302  1.00  0.00     0.049 A 
HETATM   33  C   UNL     1     -12.601   1.837 -34.976  1.00  0.00     0.069 A 
HETATM   34  C   UNL     1     -12.733   3.062 -35.636  1.00  0.00     0.037 A 
HETATM   35  C   UNL     1     -11.700   4.003 -35.612  1.00  0.00     0.004 A 
HETATM   36  C   UNL     1     -10.522   3.725 -34.920  1.00  0.00     0.013 A 
BRANCH  33  37
HETATM   37  O   UNL     1     -13.698   1.022 -35.048  1.00  0.00    -0.356 OA
HETATM   38  C   UNL     1     -14.536   0.980 -33.898  1.00  0.00     0.210 C 
ENDBRANCH  33  37
ENDBRANCH  30  31
ENDBRANCH   1  29
TORSDOF 8
ENDMDL
MODEL 8
REMARK VINA RESULT:      -8.6      2.755      6.677
REMARK  8 active torsions:
REMARK  status: ('A' for Active; 'I' for Inactive)
REMARK    1  A    between atoms: O_2  and  C_3 
REMARK    2  A    between atoms: C_5  and  C_6 
REMARK    3  A    between atoms: N_7  and  N_8 
REMARK    4  A    between atoms: C_19  and  C_20 
REMARK       I    between atoms: C_20  and  N_21 
REMARK    5  A    between atoms: N_21  and  C_22 
REMARK    6  A    between atoms: C_22  and  C_23 
REMARK    7  A    between atoms: C_23  and  C_24 
REMARK    8  A    between atoms: C_31  and  N_32 
ROOT
HETATM    1  N   UNL     1      -8.913   1.933 -34.092  1.00  0.00    -0.197 N 
HETATM    2  C   UNL     1     -10.286   1.973 -33.895  1.00  0.00     0.183 A 
HETATM    3  C   UNL     1     -10.562   3.137 -33.186  1.00  0.00     0.125 A 
HETATM    4  N   UNL     1     -11.813   3.420 -32.737  1.00  0.00    -0.242 NA
HETATM    5  C   UNL     1     -12.747   2.522 -33.083  1.00  0.00     0.086 A 
HETATM    6  C   UNL     1     -12.449   1.349 -33.828  1.00  0.00     0.088 A 
HETATM    7  N   UNL     1     -11.208   1.040 -34.239  1.00  0.00    -0.225 NA
HETATM    8  C   UNL     1     -14.056   2.751 -32.680  1.00  0.00     0.034 A 
HETATM    9  C   UNL     1     -15.082   1.858 -32.991  1.00  0.00     0.002 A 
HETATM   10  C   UNL     1     -14.794   0.714 -33.720  1.00  0.00     0.002 A 
HETATM   11  C   UNL     1     -13.483   0.471 -34.131  1.00  0.00     0.034 A 
HETATM   12  C   UNL     1      -9.352   3.847 -32.987  1.00  0.00     0.110 C 
HETATM   13  C   UNL     1      -8.387   3.163 -33.707  1.00  0.00     0.143 C 
ENDROOT
BRANCH  12  14
HETATM   14  C   UNL     1      -9.081   4.969 -32.107  1.00  0.00     0.257 C 
HETATM   15  N   UNL     1      -9.315   4.691 -30.775  1.00  0.00    -0.356 N 
HETATM   16  H   UNL     1      -9.816   3.825 -30.587  1.00  0.00     0.162 HD
HETATM   17  O   UNL     1      -8.534   6.002 -32.484  1.00  0.00    -0.267 OA
BRANCH  15  18
HETATM   18  C   UNL     1      -8.300   5.061 -29.808  1.00  0.00     0.127 C 
BRANCH  18  19
HETATM   19  C   UNL     1      -7.385   3.876 -29.447  1.00  0.00     0.053 C 
BRANCH  19  20
HETATM   20  C   UNL     1      -6.116   3.762 -30.277  1.00  0.00    -0.082 C 
HETATM   21  C   UNL     1      -5.519   5.043 -30.819  1.00  0.00     0.034 C 
HETATM   22  C   UNL     1      -4.431   4.820 -31.876  1.00  0.00     0.005 C 
HETATM   23  C   UNL     1      -3.489   3.689 -31.479  1.00  0.00     0.004 C 
HETATM   24  C   UNL     1      -4.257   2.386 -31.271  1.00  0.00     0.027 C 
HETATM   25  C   UNL     1      -5.534   2.569 -30.503  1.00  0.00    -0.024 C 
ENDBRANCH  19  20
ENDBRANCH  18  19
ENDBRANCH  15  18
ENDBRANCH  12  14
BRANCH  13  26
HETATM   26  N   UNL     1      -7.074   3.446 -33.896  1.00  0.00    -0.383 N 
HETATM   27  H   UNL     1      -6.524   3.882 -33.155  1.00  0.00     0.157 HD
HETATM   28  H   UNL     1      -6.689   3.507 -34.835  1.00  0.00     0.157 HD
ENDBRANCH  13  26
BRANCH   1  29
HETATM   29  N   UNL     1      -8.070   0.901 -34.424  1.00  0.00    -0.176 NA
HETATM   30  C   UNL     1      -7.716   0.120 -33.458  1.00  0.00     0.150 C 
BRANCH  30  31
HETATM   31  C   UNL     1      -6.599  -0.834 -33.640  1.00  0.00    -0.014 A 
HETATM   32  C   UNL     1      -6.829  -2.072 -34.255  1.00  0.00     0.049 A 
HETATM   33  C   UNL     1      -5.753  -2.899 -34.571  1.00  0.00     0.069 A 
HETATM   34  C   UNL     1      -4.457  -2.492 -34.241  1.00  0.00     0.037 A 
HETATM   35  C   UNL     1      -4.230  -1.262 -33.619  1.00  0.00     0.004 A 
HETATM   36  C   UNL     1      -5.304  -0.424 -33.322  1.00  0.00     0.013 A 
BRANCH  33  37
HETATM   37  O   UNL     1      -5.834  -4.107 -35.209  1.00  0.00    -0.356 OA
HETATM   38  C   UNL     1      -5.081  -5.176 -34.646  1.00  0.00     0.210 C 
ENDBRANCH  33  37
ENDBRANCH  30  31
ENDBRANCH   1  29
TORSDOF 8
ENDMDL
MODEL 9
REMARK VINA RESULT:      -8.4      2.752      8.079
REMARK  8 active torsions:
REMARK  status: ('A' for Active; 'I' for Inactive)
REMARK    1  A    between atoms: O_2  and  C_3 
REMARK    2  A    between atoms: C_5  and  C_6 
REMARK    3  A    between atoms: N_7  and  N_8 
REMARK    4  A    between atoms: C_19  and  C_20 
REMARK       I    between atoms: C_20  and  N_21 
REMARK    5  A    between atoms: N_21  and  C_22 
REMARK    6  A    between atoms: C_22  and  C_23 
REMARK    7  A    between atoms: C_23  and  C_24 
REMARK    8  A    between atoms: C_31  and  N_32 
ROOT
HETATM    1  N   UNL     1      -7.010   0.484 -32.820  1.00  0.00    -0.197 N 
HETATM    2  C   UNL     1      -6.523  -0.751 -33.226  1.00  0.00     0.183 A 
HETATM    3  C   UNL     1      -5.191  -0.811 -32.832  1.00  0.00     0.125 A 
HETATM    4  N   UNL     1      -4.392  -1.855 -33.178  1.00  0.00    -0.242 NA
HETATM    5  C   UNL     1      -5.008  -2.826 -33.869  1.00  0.00     0.086 A 
HETATM    6  C   UNL     1      -6.376  -2.755 -34.243  1.00  0.00     0.088 A 
HETATM    7  N   UNL     1      -7.163  -1.708 -33.942  1.00  0.00    -0.225 NA
HETATM    8  C   UNL     1      -4.263  -3.937 -34.241  1.00  0.00     0.034 A 
HETATM    9  C   UNL     1      -4.828  -4.984 -34.970  1.00  0.00     0.002 A 
HETATM   10  C   UNL     1      -6.166  -4.918 -35.334  1.00  0.00     0.002 A 
HETATM   11  C   UNL     1      -6.925  -3.806 -34.967  1.00  0.00     0.034 A 
HETATM   12  C   UNL     1      -4.868   0.377 -32.132  1.00  0.00     0.110 C 
HETATM   13  C   UNL     1      -6.057   1.073 -31.995  1.00  0.00     0.143 C 
ENDROOT
BRANCH  12  14
HETATM   14  C   UNL     1      -3.566   0.889 -31.747  1.00  0.00     0.257 C 
HETATM   15  N   UNL     1      -3.323   2.170 -32.203  1.00  0.00    -0.356 N 
HETATM   16  H   UNL     1      -3.980   2.523 -32.894  1.00  0.00     0.162 HD
HETATM   17  O   UNL     1      -2.826   0.316 -30.951  1.00  0.00    -0.267 OA
BRANCH  15  18
HETATM   18  C   UNL     1      -2.799   3.145 -31.266  1.00  0.00     0.127 C 
BRANCH  18  19
HETATM   19  C   UNL     1      -3.482   4.517 -31.418  1.00  0.00     0.053 C 
BRANCH  19  20
HETATM   20  C   UNL     1      -2.710   5.537 -32.239  1.00  0.00    -0.082 C 
HETATM   21  C   UNL     1      -2.252   5.118 -33.619  1.00  0.00     0.034 C 
HETATM   22  C   UNL     1      -1.239   6.080 -34.253  1.00  0.00     0.005 C 
HETATM   23  C   UNL     1      -1.632   7.536 -34.027  1.00  0.00     0.004 C 
HETATM   24  C   UNL     1      -1.748   7.845 -32.536  1.00  0.00     0.027 C 
HETATM   25  C   UNL     1      -2.461   6.772 -31.764  1.00  0.00    -0.024 C 
ENDBRANCH  19  20
ENDBRANCH  18  19
ENDBRANCH  15  18
ENDBRANCH  12  14
BRANCH  13  26
HETATM   26  N   UNL     1      -6.315   2.244 -31.361  1.00  0.00    -0.383 N 
HETATM   27  H   UNL     1      -5.567   2.915 -31.183  1.00  0.00     0.157 HD
HETATM   28  H   UNL     1      -7.159   2.354 -30.803  1.00  0.00     0.157 HD
ENDBRANCH  13  26
BRANCH   1  29
HETATM   29  N   UNL     1      -8.115   1.200 -33.210  1.00  0.00    -0.176 NA
HETATM   30  C   UNL     1      -9.204   0.976 -32.550  1.00  0.00     0.150 C 
BRANCH  30  31
HETATM   31  C   UNL     1     -10.502   1.467 -33.063  1.00  0.00    -0.014 A 
HETATM   32  C   UNL     1     -11.439   0.562 -33.578  1.00  0.00     0.049 A 
HETATM   33  C   UNL     1     -12.718   1.002 -33.910  1.00  0.00     0.069 A 
HETATM   34  C   UNL     1     -13.039   2.353 -33.751  1.00  0.00     0.037 A 
HETATM   35  C   UNL     1     -12.101   3.257 -33.247  1.00  0.00     0.004 A 
HETATM   36  C   UNL     1     -10.827   2.813 -32.894  1.00  0.00     0.013 A 
BRANCH  33  37
HETATM   37  O   UNL     1     -13.737   0.218 -34.379  1.00  0.00    -0.356 OA
HETATM   38  C   UNL     1     -15.055   0.739 -34.244  1.00  0.00     0.210 C 
ENDBRANCH  33  37
ENDBRANCH  30  31
ENDBRANCH   1  29
TORSDOF 8
ENDMDL
MODEL 10
REMARK VINA RESULT:      -8.4      2.180      4.548
REMARK  8 active torsions:
REMARK  status: ('A' for Active; 'I' for Inactive)
REMARK    1  A    between atoms: O_2  and  C_3 
REMARK    2  A    between atoms: C_5  and  C_6 
REMARK    3  A    between atoms: N_7  and  N_8 
REMARK    4  A    between atoms: C_19  and  C_20 
REMARK       I    between atoms: C_20  and  N_21 
REMARK    5  A    between atoms: N_21  and  C_22 
REMARK    6  A    between atoms: C_22  and  C_23 
REMARK    7  A    between atoms: C_23  and  C_24 
REMARK    8  A    between atoms: C_31  and  N_32 
ROOT
HETATM    1  N   UNL     1      -4.807   1.470 -31.165  1.00  0.00    -0.197 N 
HETATM    2  C   UNL     1      -4.133   2.676 -31.300  1.00  0.00     0.183 A 
HETATM    3  C   UNL     1      -4.894   3.641 -30.649  1.00  0.00     0.125 A 
HETATM    4  N   UNL     1      -4.560   4.958 -30.690  1.00  0.00    -0.242 NA
HETATM    5  C   UNL     1      -3.425   5.228 -31.352  1.00  0.00     0.086 A 
HETATM    6  C   UNL     1      -2.650   4.223 -31.991  1.00  0.00     0.088 A 
HETATM    7  N   UNL     1      -2.995   2.924 -31.992  1.00  0.00    -0.225 NA
HETATM    8  C   UNL     1      -3.005   6.549 -31.419  1.00  0.00     0.034 A 
HETATM    9  C   UNL     1      -1.841   6.912 -32.098  1.00  0.00     0.002 A 
HETATM   10  C   UNL     1      -1.081   5.932 -32.721  1.00  0.00     0.002 A 
HETATM   11  C   UNL     1      -1.492   4.599 -32.662  1.00  0.00     0.034 A 
HETATM   12  C   UNL     1      -6.022   3.016 -30.065  1.00  0.00     0.110 C 
HETATM   13  C   UNL     1      -5.845   1.656 -30.256  1.00  0.00     0.143 C 
ENDROOT
BRANCH  12  14
HETATM   14  C   UNL     1      -7.218   3.619 -29.505  1.00  0.00     0.257 C 
HETATM   15  N   UNL     1      -6.957   4.714 -28.705  1.00  0.00    -0.356 N 
HETATM   16  H   UNL     1      -5.981   4.853 -28.453  1.00  0.00     0.162 HD
HETATM   17  O   UNL     1      -8.353   3.299 -29.845  1.00  0.00    -0.267 OA
BRANCH  15  18
HETATM   18  C   UNL     1      -7.738   5.918 -28.915  1.00  0.00     0.127 C 
BRANCH  18  19
HETATM   19  C   UNL     1      -7.259   7.080 -28.025  1.00  0.00     0.053 C 
BRANCH  19  20
HETATM   20  C   UNL     1      -6.061   7.851 -28.556  1.00  0.00    -0.082 C 
HETATM   21  C   UNL     1      -6.312   8.857 -29.659  1.00  0.00     0.034 C 
HETATM   22  C   UNL     1      -5.032   9.365 -30.335  1.00  0.00     0.005 C 
HETATM   23  C   UNL     1      -3.939   9.662 -29.314  1.00  0.00     0.004 C 
HETATM   24  C   UNL     1      -3.609   8.419 -28.491  1.00  0.00     0.027 C 
HETATM   25  C   UNL     1      -4.827   7.661 -28.050  1.00  0.00    -0.024 C 
ENDBRANCH  19  20
ENDBRANCH  18  19
ENDBRANCH  15  18
ENDBRANCH  12  14
BRANCH  13  26
HETATM   26  N   UNL     1      -6.605   0.610 -29.847  1.00  0.00    -0.383 N 
HETATM   27  H   UNL     1      -7.586   0.541 -30.121  1.00  0.00     0.157 HD
HETATM   28  H   UNL     1      -6.322   0.046 -29.048  1.00  0.00     0.157 HD
ENDBRANCH  13  26
BRANCH   1  29
HETATM   29  N   UNL     1      -4.705   0.287 -31.855  1.00  0.00    -0.176 NA
HETATM   30  C   UNL     1      -5.190   0.281 -33.053  1.00  0.00     0.150 C 
BRANCH  30  31
HETATM   31  C   UNL     1      -5.394  -0.997 -33.769  1.00  0.00    -0.014 A 
HETATM   32  C   UNL     1      -4.373  -1.956 -33.797  1.00  0.00     0.049 A 
HETATM   33  C   UNL     1      -4.621  -3.218 -34.331  1.00  0.00     0.069 A 
HETATM   34  C   UNL     1      -5.883  -3.501 -34.861  1.00  0.00     0.037 A 
HETATM   35  C   UNL     1      -6.898  -2.542 -34.842  1.00  0.00     0.004 A 
HETATM   36  C   UNL     1      -6.657  -1.285 -34.289  1.00  0.00     0.013 A 
BRANCH  33  37
HETATM   37  O   UNL     1      -3.729  -4.255 -34.378  1.00  0.00    -0.356 OA
HETATM   38  C   UNL     1      -3.304  -4.787 -33.127  1.00  0.00     0.210 C 
ENDBRANCH  33  37
ENDBRANCH  30  31
ENDBRANCH   1  29
TORSDOF 8
ENDMDL
