MODEL 1
REMARK VINA RESULT:     -10.0      0.000      0.000
REMARK  3 active torsions:
REMARK  status: ('A' for Active; 'I' for Inactive)
REMARK    1  A    between atoms: N_7  and  N_8 
REMARK       I    between atoms: N_8  and  C_9 
REMARK    2  A    between atoms: C_9  and  C_10 
REMARK    3  A    between atoms: C_14  and  C_15 
ROOT
HETATM    1  C   UNL     1      -5.282   3.044 -31.616  1.00  0.00     0.121 A 
HETATM    2  N   UNL     1      -5.770   3.870 -30.641  1.00  0.00    -0.272 N 
HETATM    3  H   UNL     1      -6.616   3.731 -30.096  1.00  0.00     0.189 HD
HETATM    4  N   UNL     1      -5.019   4.961 -30.417  1.00  0.00    -0.178 NA
HETATM    5  C   UNL     1      -3.999   4.844 -31.277  1.00  0.00     0.066 A 
HETATM    6  C   UNL     1      -4.125   3.659 -32.050  1.00  0.00     0.066 A 
ENDROOT
BRANCH   1   7
HETATM    7  C   UNL     1      -5.957   1.823 -31.984  1.00  0.00     0.289 C 
HETATM    8  N   UNL     1      -5.564   1.307 -33.206  1.00  0.00    -0.241 N 
HETATM    9  H   UNL     1      -4.859   1.792 -33.761  1.00  0.00     0.192 HD
HETATM   10  O   UNL     1      -6.802   1.313 -31.252  1.00  0.00    -0.264 OA
BRANCH   8  11
HETATM   11  N   UNL     1      -6.098   0.146 -33.696  1.00  0.00    -0.165 NA
HETATM   12  C   UNL     1      -5.316  -0.886 -33.685  1.00  0.00     0.157 A 
HETATM   13  C   UNL     1      -5.659  -2.225 -34.148  1.00  0.00     0.027 A 
HETATM   14  C   UNL     1      -3.864  -0.972 -33.197  1.00  0.00     0.277 A 
HETATM   15  C   UNL     1      -6.827  -2.723 -34.683  1.00  0.00     0.016 A 
HETATM   16  C   UNL     1      -4.525  -3.015 -33.954  1.00  0.00     0.048 A 
HETATM   17  C   UNL     1      -6.837  -4.077 -35.030  1.00  0.00     0.001 A 
HETATM   18  C   UNL     1      -5.694  -4.882 -34.837  1.00  0.00     0.002 A 
HETATM   19  C   UNL     1      -4.518  -4.351 -34.292  1.00  0.00     0.030 A 
HETATM   20  N   UNL     1      -3.481  -2.279 -33.399  1.00  0.00    -0.321 N 
HETATM   21  H   UNL     1      -2.565  -2.633 -33.169  1.00  0.00     0.169 HD
HETATM   22  O   UNL     1      -3.235  -0.043 -32.735  1.00  0.00    -0.266 OA
ENDBRANCH   8  11
ENDBRANCH   1   7
BRANCH   5  23
HETATM   23  C   UNL     1      -2.892   5.878 -31.355  1.00  0.00     0.007 C 
HETATM   24  C   UNL     1      -2.799   6.756 -30.073  1.00  0.00     0.020 C 
HETATM   25  C   UNL     1      -1.664   7.789 -30.190  1.00  0.00    -0.013 C 
HETATM   26  C   UNL     1      -1.930   8.700 -31.398  1.00  0.00     0.009 C 
HETATM   27  C   UNL     1      -0.329   7.055 -30.389  1.00  0.00     0.009 C 
HETATM   28  C   UNL     1      -1.992   7.859 -32.683  1.00  0.00    -0.013 C 
HETATM   29  C   UNL     1      -3.128   6.829 -32.563  1.00  0.00     0.020 C 
HETATM   30  C   UNL     1      -0.657   7.122 -32.874  1.00  0.00     0.009 C 
HETATM   31  C   UNL     1      -0.383   6.208 -31.669  1.00  0.00    -0.013 C 
HETATM   32  C   UNL     1      -1.518   5.177 -31.548  1.00  0.00     0.020 C 
ENDBRANCH   5  23
TORSDOF 3
ENDMDL
MODEL 2
REMARK VINA RESULT:      -9.8      2.875      4.461
REMARK  3 active torsions:
REMARK  status: ('A' for Active; 'I' for Inactive)
REMARK    1  A    between atoms: N_7  and  N_8 
REMARK       I    between atoms: N_8  and  C_9 
REMARK    2  A    between atoms: C_9  and  C_10 
REMARK    3  A    between atoms: C_14  and  C_15 
ROOT
HETATM    1  C   UNL     1      -1.692   5.166 -31.725  1.00  0.00     0.121 A 
HETATM    2  N   UNL     1      -0.335   5.169 -31.895  1.00  0.00    -0.272 N 
HETATM    3  H   UNL     1       0.182   4.750 -32.662  1.00  0.00     0.189 HD
HETATM    4  N   UNL     1       0.339   5.805 -30.922  1.00  0.00    -0.178 NA
HETATM    5  C   UNL     1      -0.614   6.235 -30.085  1.00  0.00     0.066 A 
HETATM    6  C   UNL     1      -1.901   5.855 -30.548  1.00  0.00     0.066 A 
ENDROOT
BRANCH   1   7
HETATM    7  C   UNL     1      -2.573   4.533 -32.677  1.00  0.00     0.289 C 
HETATM    8  N   UNL     1      -3.706   3.972 -32.112  1.00  0.00    -0.241 N 
HETATM    9  H   UNL     1      -3.851   4.024 -31.104  1.00  0.00     0.192 HD
HETATM   10  O   UNL     1      -2.311   4.512 -33.877  1.00  0.00    -0.264 OA
BRANCH   8  11
HETATM   11  N   UNL     1      -4.650   3.345 -32.879  1.00  0.00    -0.165 NA
HETATM   12  C   UNL     1      -4.702   2.055 -32.771  1.00  0.00     0.157 A 
HETATM   13  C   UNL     1      -5.622   1.173 -33.479  1.00  0.00     0.027 A 
HETATM   14  C   UNL     1      -3.836   1.140 -31.895  1.00  0.00     0.277 A 
HETATM   15  C   UNL     1      -6.618   1.452 -34.389  1.00  0.00     0.016 A 
HETATM   16  C   UNL     1      -5.325  -0.126 -33.063  1.00  0.00     0.048 A 
HETATM   17  C   UNL     1      -7.337   0.364 -34.892  1.00  0.00     0.001 A 
HETATM   18  C   UNL     1      -7.042  -0.952 -34.477  1.00  0.00     0.002 A 
HETATM   19  C   UNL     1      -6.024  -1.209 -33.550  1.00  0.00     0.030 A 
HETATM   20  N   UNL     1      -4.283  -0.139 -32.140  1.00  0.00    -0.321 N 
HETATM   21  H   UNL     1      -3.893  -0.959 -31.699  1.00  0.00     0.169 HD
HETATM   22  O   UNL     1      -2.954   1.524 -31.157  1.00  0.00    -0.266 OA
ENDBRANCH   8  11
ENDBRANCH   1   7
BRANCH   5  23
HETATM   23  C   UNL     1      -0.285   7.023 -28.830  1.00  0.00     0.007 C 
HETATM   24  C   UNL     1       1.011   7.871 -28.977  1.00  0.00     0.020 C 
HETATM   25  C   UNL     1       1.309   8.656 -27.687  1.00  0.00    -0.013 C 
HETATM   26  C   UNL     1       1.490   7.668 -26.523  1.00  0.00     0.009 C 
HETATM   27  C   UNL     1       0.132   9.594 -27.380  1.00  0.00     0.009 C 
HETATM   28  C   UNL     1       0.209   6.841 -26.336  1.00  0.00    -0.013 C 
HETATM   29  C   UNL     1      -0.085   6.058 -27.627  1.00  0.00     0.020 C 
HETATM   30  C   UNL     1      -0.967   7.785 -26.036  1.00  0.00     0.009 C 
HETATM   31  C   UNL     1      -1.155   8.776 -27.196  1.00  0.00    -0.013 C 
HETATM   32  C   UNL     1      -1.449   7.994 -28.487  1.00  0.00     0.020 C 
ENDBRANCH   5  23
TORSDOF 3
ENDMDL
MODEL 3
REMARK VINA RESULT:      -9.3      3.136      9.960
REMARK  3 active torsions:
REMARK  status: ('A' for Active; 'I' for Inactive)
REMARK    1  A    between atoms: N_7  and  N_8 
REMARK       I    between atoms: N_8  and  C_9 
REMARK    2  A    between atoms: C_9  and  C_10 
REMARK    3  A    between atoms: C_14  and  C_15 
ROOT
HETATM    1  C   UNL     1      -2.934   4.222 -32.195  1.00  0.00     0.121 A 
HETATM    2  N   UNL     1      -3.818   4.912 -32.979  1.00  0.00    -0.272 N 
HETATM    3  H   UNL     1      -3.743   5.882 -33.269  1.00  0.00     0.189 HD
HETATM    4  N   UNL     1      -4.875   4.188 -33.383  1.00  0.00    -0.178 NA
HETATM    5  C   UNL     1      -4.675   2.978 -32.844  1.00  0.00     0.066 A 
HETATM    6  C   UNL     1      -3.472   2.956 -32.090  1.00  0.00     0.066 A 
ENDROOT
BRANCH   1   7
HETATM    7  C   UNL     1      -1.739   4.841 -31.676  1.00  0.00     0.289 C 
HETATM    8  N   UNL     1      -1.915   5.478 -30.460  1.00  0.00    -0.241 N 
HETATM    9  H   UNL     1      -2.833   5.485 -30.017  1.00  0.00     0.192 HD
HETATM   10  O   UNL     1      -0.673   4.789 -32.286  1.00  0.00    -0.264 OA
BRANCH   8  11
HETATM   11  N   UNL     1      -0.877   6.104 -29.825  1.00  0.00    -0.165 NA
HETATM   12  C   UNL     1      -1.177   7.187 -29.180  1.00  0.00     0.157 A 
HETATM   13  C   UNL     1      -0.249   8.021 -28.427  1.00  0.00     0.027 A 
HETATM   14  C   UNL     1      -2.549   7.860 -29.042  1.00  0.00     0.277 A 
HETATM   15  C   UNL     1       1.106   7.891 -28.208  1.00  0.00     0.016 A 
HETATM   16  C   UNL     1      -0.997   9.075 -27.902  1.00  0.00     0.048 A 
HETATM   17  C   UNL     1       1.716   8.874 -27.425  1.00  0.00     0.001 A 
HETATM   18  C   UNL     1       0.966   9.943 -26.891  1.00  0.00     0.002 A 
HETATM   19  C   UNL     1      -0.410  10.053 -27.128  1.00  0.00     0.030 A 
HETATM   20  N   UNL     1      -2.338   8.976 -28.264  1.00  0.00    -0.321 N 
HETATM   21  H   UNL     1      -3.070   9.620 -28.004  1.00  0.00     0.169 HD
HETATM   22  O   UNL     1      -3.575   7.444 -29.538  1.00  0.00    -0.266 OA
ENDBRANCH   8  11
ENDBRANCH   1   7
BRANCH   5  23
HETATM   23  C   UNL     1      -5.645   1.832 -33.060  1.00  0.00     0.007 C 
HETATM   24  C   UNL     1      -6.460   1.975 -34.378  1.00  0.00     0.020 C 
HETATM   25  C   UNL     1      -7.430   0.794 -34.561  1.00  0.00    -0.013 C 
HETATM   26  C   UNL     1      -8.406   0.751 -33.375  1.00  0.00     0.009 C 
HETATM   27  C   UNL     1      -6.630  -0.516 -34.610  1.00  0.00     0.009 C 
HETATM   28  C   UNL     1      -7.626   0.575 -32.062  1.00  0.00    -0.013 C 
HETATM   29  C   UNL     1      -6.659   1.758 -31.883  1.00  0.00     0.020 C 
HETATM   30  C   UNL     1      -6.822  -0.734 -32.120  1.00  0.00     0.009 C 
HETATM   31  C   UNL     1      -5.843  -0.698 -33.303  1.00  0.00    -0.013 C 
HETATM   32  C   UNL     1      -4.875   0.483 -33.125  1.00  0.00     0.020 C 
ENDBRANCH   5  23
TORSDOF 3
ENDMDL
MODEL 4
REMARK VINA RESULT:      -8.8      3.695      5.102
REMARK  3 active torsions:
REMARK  status: ('A' for Active; 'I' for Inactive)
REMARK    1  A    between atoms: N_7  and  N_8 
REMARK       I    between atoms: N_8  and  C_9 
REMARK    2  A    between atoms: C_9  and  C_10 
REMARK    3  A    between atoms: C_14  and  C_15 
ROOT
HETATM    1  C   UNL     1      -5.145   2.396 -32.512  1.00  0.00     0.121 A 
HETATM    2  N   UNL     1      -3.992   1.822 -32.053  1.00  0.00    -0.272 N 
HETATM    3  H   UNL     1      -3.837   0.835 -31.868  1.00  0.00     0.189 HD
HETATM    4  N   UNL     1      -2.990   2.692 -31.843  1.00  0.00    -0.178 NA
HETATM    5  C   UNL     1      -3.507   3.881 -32.178  1.00  0.00     0.066 A 
HETATM    6  C   UNL     1      -4.856   3.743 -32.601  1.00  0.00     0.066 A 
ENDROOT
BRANCH   1   7
HETATM    7  C   UNL     1      -6.321   1.611 -32.798  1.00  0.00     0.289 C 
HETATM    8  N   UNL     1      -7.510   2.222 -32.438  1.00  0.00    -0.241 N 
HETATM    9  H   UNL     1      -7.497   3.146 -32.006  1.00  0.00     0.192 HD
HETATM   10  O   UNL     1      -6.240   0.500 -33.316  1.00  0.00    -0.264 OA
BRANCH   8  11
HETATM   11  N   UNL     1      -8.718   1.617 -32.654  1.00  0.00    -0.165 NA
HETATM   12  C   UNL     1      -9.540   2.252 -33.427  1.00  0.00     0.157 A 
HETATM   13  C   UNL     1     -10.876   1.809 -33.807  1.00  0.00     0.027 A 
HETATM   14  C   UNL     1      -9.333   3.600 -34.130  1.00  0.00     0.277 A 
HETATM   15  C   UNL     1     -11.577   0.671 -33.471  1.00  0.00     0.016 A 
HETATM   16  C   UNL     1     -11.399   2.795 -34.643  1.00  0.00     0.048 A 
HETATM   17  C   UNL     1     -12.859   0.537 -34.011  1.00  0.00     0.001 A 
HETATM   18  C   UNL     1     -13.395   1.530 -34.858  1.00  0.00     0.002 A 
HETATM   19  C   UNL     1     -12.662   2.678 -35.183  1.00  0.00     0.030 A 
HETATM   20  N   UNL     1     -10.495   3.838 -34.828  1.00  0.00    -0.321 N 
HETATM   21  H   UNL     1     -10.648   4.661 -35.391  1.00  0.00     0.169 HD
HETATM   22  O   UNL     1      -8.326   4.273 -34.050  1.00  0.00    -0.266 OA
ENDBRANCH   8  11
ENDBRANCH   1   7
BRANCH   5  23
HETATM   23  C   UNL     1      -2.697   5.161 -32.095  1.00  0.00     0.007 C 
HETATM   24  C   UNL     1      -1.164   4.900 -32.053  1.00  0.00     0.020 C 
HETATM   25  C   UNL     1      -0.378   6.220 -31.972  1.00  0.00    -0.013 C 
HETATM   26  C   UNL     1      -0.790   6.977 -30.699  1.00  0.00     0.009 C 
HETATM   27  C   UNL     1      -0.703   7.080 -33.203  1.00  0.00     0.009 C 
HETATM   28  C   UNL     1      -2.296   7.279 -30.733  1.00  0.00    -0.013 C 
HETATM   29  C   UNL     1      -3.077   5.956 -30.813  1.00  0.00     0.020 C 
HETATM   30  C   UNL     1      -2.616   8.133 -31.971  1.00  0.00     0.009 C 
HETATM   31  C   UNL     1      -2.208   7.382 -33.248  1.00  0.00    -0.013 C 
HETATM   32  C   UNL     1      -2.989   6.060 -33.330  1.00  0.00     0.020 C 
ENDBRANCH   5  23
TORSDOF 3
ENDMDL
MODEL 5
REMARK VINA RESULT:      -8.8      3.111      9.810
REMARK  3 active torsions:
REMARK  status: ('A' for Active; 'I' for Inactive)
REMARK    1  A    between atoms: N_7  and  N_8 
REMARK       I    between atoms: N_8  and  C_9 
REMARK    2  A    between atoms: C_9  and  C_10 
REMARK    3  A    between atoms: C_14  and  C_15 
ROOT
HETATM    1  C   UNL     1      -4.096   4.747 -31.647  1.00  0.00     0.121 A 
HETATM    2  N   UNL     1      -3.133   3.867 -32.058  1.00  0.00    -0.272 N 
HETATM    3  H   UNL     1      -2.127   3.996 -31.997  1.00  0.00     0.189 HD
HETATM    4  N   UNL     1      -3.616   2.731 -32.587  1.00  0.00    -0.178 NA
HETATM    5  C   UNL     1      -4.946   2.872 -32.519  1.00  0.00     0.066 A 
HETATM    6  C   UNL     1      -5.291   4.121 -31.938  1.00  0.00     0.066 A 
ENDROOT
BRANCH   1   7
HETATM    7  C   UNL     1      -3.758   6.016 -31.049  1.00  0.00     0.289 C 
HETATM    8  N   UNL     1      -3.033   5.913 -29.875  1.00  0.00    -0.241 N 
HETATM    9  H   UNL     1      -2.791   4.994 -29.505  1.00  0.00     0.192 HD
HETATM   10  O   UNL     1      -4.100   7.078 -31.564  1.00  0.00    -0.264 OA
BRANCH   8  11
HETATM   11  N   UNL     1      -2.621   7.023 -29.190  1.00  0.00    -0.165 NA
HETATM   12  C   UNL     1      -1.350   7.105 -28.955  1.00  0.00     0.157 A 
HETATM   13  C   UNL     1      -0.677   8.190 -28.250  1.00  0.00     0.027 A 
HETATM   14  C   UNL     1      -0.247   6.113 -29.343  1.00  0.00     0.277 A 
HETATM   15  C   UNL     1      -1.176   9.344 -27.685  1.00  0.00     0.016 A 
HETATM   16  C   UNL     1       0.680   7.867 -28.226  1.00  0.00     0.048 A 
HETATM   17  C   UNL     1      -0.253  10.198 -27.075  1.00  0.00     0.001 A 
HETATM   18  C   UNL     1       1.121   9.877 -27.046  1.00  0.00     0.002 A 
HETATM   19  C   UNL     1       1.602   8.697 -27.628  1.00  0.00     0.030 A 
HETATM   20  N   UNL     1       0.926   6.654 -28.865  1.00  0.00    -0.321 N 
HETATM   21  H   UNL     1       1.827   6.215 -28.975  1.00  0.00     0.169 HD
HETATM   22  O   UNL     1      -0.431   5.079 -29.951  1.00  0.00    -0.266 OA
ENDBRANCH   8  11
ENDBRANCH   1   7
BRANCH   5  23
HETATM   23  C   UNL     1      -5.895   1.795 -33.011  1.00  0.00     0.007 C 
HETATM   24  C   UNL     1      -6.664   2.215 -34.297  1.00  0.00     0.020 C 
HETATM   25  C   UNL     1      -7.613   1.098 -34.765  1.00  0.00    -0.013 C 
HETATM   26  C   UNL     1      -8.630   0.797 -33.653  1.00  0.00     0.009 C 
HETATM   27  C   UNL     1      -6.796  -0.168 -35.065  1.00  0.00     0.009 C 
HETATM   28  C   UNL     1      -7.895   0.346 -32.381  1.00  0.00    -0.013 C 
HETATM   29  C   UNL     1      -6.949   1.466 -31.916  1.00  0.00     0.020 C 
HETATM   30  C   UNL     1      -7.074  -0.917 -32.688  1.00  0.00     0.009 C 
HETATM   31  C   UNL     1      -6.054  -0.624 -33.799  1.00  0.00    -0.013 C 
HETATM   32  C   UNL     1      -5.107   0.495 -33.336  1.00  0.00     0.020 C 
ENDBRANCH   5  23
TORSDOF 3
ENDMDL
MODEL 6
REMARK VINA RESULT:      -8.5      3.533      9.670
REMARK  3 active torsions:
REMARK  status: ('A' for Active; 'I' for Inactive)
REMARK    1  A    between atoms: N_7  and  N_8 
REMARK       I    between atoms: N_8  and  C_9 
REMARK    2  A    between atoms: C_9  and  C_10 
REMARK    3  A    between atoms: C_14  and  C_15 
ROOT
HETATM    1  C   UNL     1      -4.035   5.127 -32.902  1.00  0.00     0.121 A 
HETATM    2  N   UNL     1      -4.633   5.390 -34.104  1.00  0.00    -0.272 N 
HETATM    3  H   UNL     1      -4.375   6.118 -34.764  1.00  0.00     0.189 HD
HETATM    4  N   UNL     1      -5.658   4.573 -34.397  1.00  0.00    -0.178 NA
HETATM    5  C   UNL     1      -5.734   3.744 -33.348  1.00  0.00     0.066 A 
HETATM    6  C   UNL     1      -4.737   4.057 -32.386  1.00  0.00     0.066 A 
ENDROOT
BRANCH   1   7
HETATM    7  C   UNL     1      -2.913   5.902 -32.429  1.00  0.00     0.289 C 
HETATM    8  N   UNL     1      -2.388   5.459 -31.227  1.00  0.00    -0.241 N 
HETATM    9  H   UNL     1      -2.802   4.655 -30.756  1.00  0.00     0.192 HD
HETATM   10  O   UNL     1      -2.485   6.864 -33.063  1.00  0.00    -0.264 OA
BRANCH   8  11
HETATM   11  N   UNL     1      -1.313   6.076 -30.647  1.00  0.00    -0.165 NA
HETATM   12  C   UNL     1      -1.570   6.803 -29.606  1.00  0.00     0.157 A 
HETATM   13  C   UNL     1      -0.596   7.549 -28.820  1.00  0.00     0.027 A 
HETATM   14  C   UNL     1      -2.929   7.063 -28.942  1.00  0.00     0.277 A 
HETATM   15  C   UNL     1       0.770   7.674 -28.960  1.00  0.00     0.016 A 
HETATM   16  C   UNL     1      -1.308   8.184 -27.802  1.00  0.00     0.048 A 
HETATM   17  C   UNL     1       1.430   8.475 -28.024  1.00  0.00     0.001 A 
HETATM   18  C   UNL     1       0.716   9.120 -26.992  1.00  0.00     0.002 A 
HETATM   19  C   UNL     1      -0.672   8.978 -26.872  1.00  0.00     0.030 A 
HETATM   20  N   UNL     1      -2.669   7.897 -27.878  1.00  0.00    -0.321 N 
HETATM   21  H   UNL     1      -3.382   8.240 -27.252  1.00  0.00     0.169 HD
HETATM   22  O   UNL     1      -3.983   6.599 -29.323  1.00  0.00    -0.266 OA
ENDBRANCH   8  11
ENDBRANCH   1   7
BRANCH   5  23
HETATM   23  C   UNL     1      -6.770   2.639 -33.270  1.00  0.00     0.007 C 
HETATM   24  C   UNL     1      -6.569   1.713 -32.036  1.00  0.00     0.020 C 
HETATM   25  C   UNL     1      -7.638   0.608 -31.990  1.00  0.00    -0.013 C 
HETATM   26  C   UNL     1      -7.545  -0.240 -33.269  1.00  0.00     0.009 C 
HETATM   27  C   UNL     1      -9.030   1.253 -31.908  1.00  0.00     0.009 C 
HETATM   28  C   UNL     1      -7.775   0.646 -34.502  1.00  0.00    -0.013 C 
HETATM   29  C   UNL     1      -6.704   1.749 -34.544  1.00  0.00     0.020 C 
HETATM   30  C   UNL     1      -9.166   1.294 -34.411  1.00  0.00     0.009 C 
HETATM   31  C   UNL     1      -9.268   2.145 -33.135  1.00  0.00    -0.013 C 
HETATM   32  C   UNL     1      -8.197   3.248 -33.176  1.00  0.00     0.020 C 
ENDBRANCH   5  23
TORSDOF 3
ENDMDL
MODEL 7
REMARK VINA RESULT:      -8.5      4.785      6.962
REMARK  3 active torsions:
REMARK  status: ('A' for Active; 'I' for Inactive)
REMARK    1  A    between atoms: N_7  and  N_8 
REMARK       I    between atoms: N_8  and  C_9 
REMARK    2  A    between atoms: C_9  and  C_10 
REMARK    3  A    between atoms: C_14  and  C_15 
ROOT
HETATM    1  C   UNL     1      -7.049   3.219 -33.459  1.00  0.00     0.121 A 
HETATM    2  N   UNL     1      -6.788   4.468 -33.952  1.00  0.00    -0.272 N 
HETATM    3  H   UNL     1      -5.873   4.882 -34.102  1.00  0.00     0.189 HD
HETATM    4  N   UNL     1      -7.886   5.180 -34.254  1.00  0.00    -0.178 NA
HETATM    5  C   UNL     1      -8.905   4.366 -33.949  1.00  0.00     0.066 A 
HETATM    6  C   UNL     1      -8.426   3.127 -33.445  1.00  0.00     0.066 A 
ENDROOT
BRANCH   1   7
HETATM    7  C   UNL     1      -5.988   2.314 -33.087  1.00  0.00     0.289 C 
HETATM    8  N   UNL     1      -6.398   1.003 -32.916  1.00  0.00    -0.241 N 
HETATM    9  H   UNL     1      -7.378   0.755 -33.048  1.00  0.00     0.192 HD
HETATM   10  O   UNL     1      -4.833   2.706 -32.943  1.00  0.00    -0.264 OA
BRANCH   8  11
HETATM   11  N   UNL     1      -5.513   0.017 -32.575  1.00  0.00    -0.165 NA
HETATM   12  C   UNL     1      -5.501  -1.024 -33.346  1.00  0.00     0.157 A 
HETATM   13  C   UNL     1      -4.646  -2.195 -33.190  1.00  0.00     0.027 A 
HETATM   14  C   UNL     1      -6.357  -1.295 -34.590  1.00  0.00     0.277 A 
HETATM   15  C   UNL     1      -3.684  -2.490 -32.248  1.00  0.00     0.016 A 
HETATM   16  C   UNL     1      -4.969  -3.064 -34.233  1.00  0.00     0.048 A 
HETATM   17  C   UNL     1      -3.028  -3.717 -32.380  1.00  0.00     0.001 A 
HETATM   18  C   UNL     1      -3.349  -4.601 -33.432  1.00  0.00     0.002 A 
HETATM   19  C   UNL     1      -4.332  -4.277 -34.376  1.00  0.00     0.030 A 
HETATM   20  N   UNL     1      -5.967  -2.534 -35.047  1.00  0.00    -0.321 N 
HETATM   21  H   UNL     1      -6.364  -2.977 -35.861  1.00  0.00     0.169 HD
HETATM   22  O   UNL     1      -7.190  -0.532 -35.033  1.00  0.00    -0.266 OA
ENDBRANCH   8  11
ENDBRANCH   1   7
BRANCH   5  23
HETATM   23  C   UNL     1     -10.351   4.779 -34.147  1.00  0.00     0.007 C 
HETATM   24  C   UNL     1     -10.497   6.041 -35.046  1.00  0.00     0.020 C 
HETATM   25  C   UNL     1     -11.976   6.426 -35.225  1.00  0.00    -0.013 C 
HETATM   26  C   UNL     1     -12.592   6.722 -33.848  1.00  0.00     0.009 C 
HETATM   27  C   UNL     1     -12.729   5.258 -35.879  1.00  0.00     0.009 C 
HETATM   28  C   UNL     1     -12.492   5.478 -32.952  1.00  0.00    -0.013 C 
HETATM   29  C   UNL     1     -11.012   5.097 -32.775  1.00  0.00     0.020 C 
HETATM   30  C   UNL     1     -13.241   4.311 -33.615  1.00  0.00     0.009 C 
HETATM   31  C   UNL     1     -12.630   4.008 -34.992  1.00  0.00    -0.013 C 
HETATM   32  C   UNL     1     -11.150   3.626 -34.817  1.00  0.00     0.020 C 
ENDBRANCH   5  23
TORSDOF 3
ENDMDL
MODEL 8
REMARK VINA RESULT:      -8.4      4.995      6.296
REMARK  3 active torsions:
REMARK  status: ('A' for Active; 'I' for Inactive)
REMARK    1  A    between atoms: N_7  and  N_8 
REMARK       I    between atoms: N_8  and  C_9 
REMARK    2  A    between atoms: C_9  and  C_10 
REMARK    3  A    between atoms: C_14  and  C_15 
ROOT
HETATM    1  C   UNL     1      -7.543   4.511 -32.490  1.00  0.00     0.121 A 
HETATM    2  N   UNL     1      -7.313   4.502 -33.838  1.00  0.00    -0.272 N 
HETATM    3  H   UNL     1      -7.982   4.267 -34.566  1.00  0.00     0.189 HD
HETATM    4  N   UNL     1      -6.063   4.848 -34.185  1.00  0.00    -0.178 NA
HETATM    5  C   UNL     1      -5.450   5.094 -33.020  1.00  0.00     0.066 A 
HETATM    6  C   UNL     1      -6.340   4.893 -31.931  1.00  0.00     0.066 A 
ENDROOT
BRANCH   1   7
HETATM    7  C   UNL     1      -8.832   4.171 -31.937  1.00  0.00     0.289 C 
HETATM    8  N   UNL     1      -9.894   4.422 -32.788  1.00  0.00    -0.241 N 
HETATM    9  H   UNL     1      -9.724   4.819 -33.712  1.00  0.00     0.192 HD
HETATM   10  O   UNL     1      -8.941   3.702 -30.807  1.00  0.00    -0.264 OA
BRANCH   8  11
HETATM   11  N   UNL     1     -11.183   4.143 -32.422  1.00  0.00    -0.165 NA
HETATM   12  C   UNL     1     -11.793   3.249 -33.134  1.00  0.00     0.157 A 
HETATM   13  C   UNL     1     -13.161   2.784 -32.936  1.00  0.00     0.027 A 
HETATM   14  C   UNL     1     -11.256   2.466 -34.339  1.00  0.00     0.277 A 
HETATM   15  C   UNL     1     -14.108   3.141 -32.001  1.00  0.00     0.016 A 
HETATM   16  C   UNL     1     -13.402   1.828 -33.923  1.00  0.00     0.048 A 
HETATM   17  C   UNL     1     -15.346   2.496 -32.078  1.00  0.00     0.001 A 
HETATM   18  C   UNL     1     -15.597   1.528 -33.074  1.00  0.00     0.002 A 
HETATM   19  C   UNL     1     -14.617   1.184 -34.013  1.00  0.00     0.030 A 
HETATM   20  N   UNL     1     -12.288   1.646 -34.739  1.00  0.00    -0.321 N 
HETATM   21  H   UNL     1     -12.222   1.010 -35.519  1.00  0.00     0.169 HD
HETATM   22  O   UNL     1     -10.140   2.587 -34.798  1.00  0.00    -0.266 OA
ENDBRANCH   8  11
ENDBRANCH   1   7
BRANCH   5  23
HETATM   23  C   UNL     1      -3.998   5.530 -32.951  1.00  0.00     0.007 C 
HETATM   24  C   UNL     1      -3.805   6.844 -32.139  1.00  0.00     0.020 C 
HETATM   25  C   UNL     1      -2.322   7.252 -32.090  1.00  0.00    -0.013 C 
HETATM   26  C   UNL     1      -1.810   7.472 -33.522  1.00  0.00     0.009 C 
HETATM   27  C   UNL     1      -1.509   6.131 -31.425  1.00  0.00     0.009 C 
HETATM   28  C   UNL     1      -1.958   6.176 -34.336  1.00  0.00    -0.013 C 
HETATM   29  C   UNL     1      -3.442   5.773 -34.383  1.00  0.00     0.020 C 
HETATM   30  C   UNL     1      -1.149   5.057 -33.662  1.00  0.00     0.009 C 
HETATM   31  C   UNL     1      -1.656   4.830 -32.229  1.00  0.00    -0.013 C 
HETATM   32  C   UNL     1      -3.139   4.426 -32.274  1.00  0.00     0.020 C 
ENDBRANCH   5  23
TORSDOF 3
ENDMDL
MODEL 9
REMARK VINA RESULT:      -8.3      1.479      2.308
REMARK  3 active torsions:
REMARK  status: ('A' for Active; 'I' for Inactive)
REMARK    1  A    between atoms: N_7  and  N_8 
REMARK       I    between atoms: N_8  and  C_9 
REMARK    2  A    between atoms: C_9  and  C_10 
REMARK    3  A    between atoms: C_14  and  C_15 
ROOT
HETATM    1  C   UNL     1      -6.074   3.865 -32.812  1.00  0.00     0.121 A 
HETATM    2  N   UNL     1      -6.168   4.979 -33.601  1.00  0.00    -0.272 N 
HETATM    3  H   UNL     1      -6.661   5.056 -34.485  1.00  0.00     0.189 HD
HETATM    4  N   UNL     1      -5.528   6.054 -33.112  1.00  0.00    -0.178 NA
HETATM    5  C   UNL     1      -4.996   5.629 -31.959  1.00  0.00     0.066 A 
HETATM    6  C   UNL     1      -5.311   4.262 -31.733  1.00  0.00     0.066 A 
ENDROOT
BRANCH   1   7
HETATM    7  C   UNL     1      -6.706   2.621 -33.179  1.00  0.00     0.289 C 
HETATM    8  N   UNL     1      -5.828   1.658 -33.646  1.00  0.00    -0.241 N 
HETATM    9  H   UNL     1      -4.832   1.866 -33.710  1.00  0.00     0.192 HD
HETATM   10  O   UNL     1      -7.920   2.463 -33.073  1.00  0.00    -0.264 OA
BRANCH   8  11
HETATM   11  N   UNL     1      -6.264   0.417 -34.023  1.00  0.00    -0.165 NA
HETATM   12  C   UNL     1      -5.422  -0.554 -33.859  1.00  0.00     0.157 A 
HETATM   13  C   UNL     1      -5.658  -1.956 -34.180  1.00  0.00     0.027 A 
HETATM   14  C   UNL     1      -3.995  -0.488 -33.299  1.00  0.00     0.277 A 
HETATM   15  C   UNL     1      -6.764  -2.586 -34.707  1.00  0.00     0.016 A 
HETATM   16  C   UNL     1      -4.490  -2.642 -33.846  1.00  0.00     0.048 A 
HETATM   17  C   UNL     1      -6.673  -3.968 -34.897  1.00  0.00     0.001 A 
HETATM   18  C   UNL     1      -5.495  -4.669 -34.561  1.00  0.00     0.002 A 
HETATM   19  C   UNL     1      -4.384  -4.004 -34.027  1.00  0.00     0.030 A 
HETATM   20  N   UNL     1      -3.523  -1.781 -33.332  1.00  0.00    -0.321 N 
HETATM   21  H   UNL     1      -2.600  -2.045 -33.021  1.00  0.00     0.169 HD
HETATM   22  O   UNL     1      -3.449   0.526 -32.918  1.00  0.00    -0.266 OA
ENDBRANCH   8  11
ENDBRANCH   1   7
BRANCH   5  23
HETATM   23  C   UNL     1      -4.180   6.544 -31.065  1.00  0.00     0.007 C 
HETATM   24  C   UNL     1      -2.647   6.375 -31.272  1.00  0.00     0.020 C 
HETATM   25  C   UNL     1      -1.856   7.320 -30.350  1.00  0.00    -0.013 C 
HETATM   26  C   UNL     1      -2.198   7.002 -28.886  1.00  0.00     0.009 C 
HETATM   27  C   UNL     1      -2.244   8.774 -30.660  1.00  0.00     0.009 C 
HETATM   28  C   UNL     1      -3.704   7.195 -28.646  1.00  0.00    -0.013 C 
HETATM   29  C   UNL     1      -4.490   6.248 -29.569  1.00  0.00     0.020 C 
HETATM   30  C   UNL     1      -4.088   8.649 -28.965  1.00  0.00     0.009 C 
HETATM   31  C   UNL     1      -3.749   8.974 -30.428  1.00  0.00    -0.013 C 
HETATM   32  C   UNL     1      -4.536   8.029 -31.352  1.00  0.00     0.020 C 
ENDBRANCH   5  23
TORSDOF 3
ENDMDL
MODEL 10
REMARK VINA RESULT:      -8.3      3.388      4.774
REMARK  3 active torsions:
REMARK  status: ('A' for Active; 'I' for Inactive)
REMARK    1  A    between atoms: N_7  and  N_8 
REMARK       I    between atoms: N_8  and  C_9 
REMARK    2  A    between atoms: C_9  and  C_10 
REMARK    3  A    between atoms: C_14  and  C_15 
ROOT
HETATM    1  C   UNL     1      -3.251   5.891 -31.804  1.00  0.00     0.121 A 
HETATM    2  N   UNL     1      -2.108   6.344 -32.402  1.00  0.00    -0.272 N 
HETATM    3  H   UNL     1      -1.889   6.316 -33.393  1.00  0.00     0.189 HD
HETATM    4  N   UNL     1      -1.213   6.872 -31.550  1.00  0.00    -0.178 NA
HETATM    5  C   UNL     1      -1.794   6.761 -30.348  1.00  0.00     0.066 A 
HETATM    6  C   UNL     1      -3.071   6.150 -30.460  1.00  0.00     0.066 A 
ENDROOT
BRANCH   1   7
HETATM    7  C   UNL     1      -4.323   5.299 -32.567  1.00  0.00     0.289 C 
HETATM    8  N   UNL     1      -4.415   3.924 -32.439  1.00  0.00    -0.241 N 
HETATM    9  H   UNL     1      -3.752   3.422 -31.849  1.00  0.00     0.192 HD
HETATM   10  O   UNL     1      -5.070   5.985 -33.260  1.00  0.00    -0.264 OA
BRANCH   8  11
HETATM   11  N   UNL     1      -5.385   3.210 -33.088  1.00  0.00    -0.165 NA
HETATM   12  C   UNL     1      -6.218   2.569 -32.331  1.00  0.00     0.157 A 
HETATM   13  C   UNL     1      -7.333   1.748 -32.786  1.00  0.00     0.027 A 
HETATM   14  C   UNL     1      -6.252   2.504 -30.798  1.00  0.00     0.277 A 
HETATM   15  C   UNL     1      -7.775   1.453 -34.058  1.00  0.00     0.016 A 
HETATM   16  C   UNL     1      -7.955   1.251 -31.641  1.00  0.00     0.048 A 
HETATM   17  C   UNL     1      -8.894   0.623 -34.161  1.00  0.00     0.001 A 
HETATM   18  C   UNL     1      -9.529   0.117 -33.007  1.00  0.00     0.002 A 
HETATM   19  C   UNL     1      -9.059   0.431 -31.725  1.00  0.00     0.030 A 
HETATM   20  N   UNL     1      -7.321   1.696 -30.484  1.00  0.00    -0.321 N 
HETATM   21  H   UNL     1      -7.589   1.470 -29.537  1.00  0.00     0.169 HD
HETATM   22  O   UNL     1      -5.470   3.074 -30.066  1.00  0.00    -0.266 OA
ENDBRANCH   8  11
ENDBRANCH   1   7
BRANCH   5  23
HETATM   23  C   UNL     1      -1.119   7.251 -29.081  1.00  0.00     0.007 C 
HETATM   24  C   UNL     1       0.351   6.755 -28.954  1.00  0.00     0.020 C 
HETATM   25  C   UNL     1       1.001   7.273 -27.659  1.00  0.00    -0.013 C 
HETATM   26  C   UNL     1       0.199   6.766 -26.451  1.00  0.00     0.009 C 
HETATM   27  C   UNL     1       0.993   8.810 -27.668  1.00  0.00     0.009 C 
HETATM   28  C   UNL     1      -1.250   7.273 -26.535  1.00  0.00    -0.013 C 
HETATM   29  C   UNL     1      -1.896   6.751 -27.830  1.00  0.00     0.020 C 
HETATM   30  C   UNL     1      -1.251   8.810 -26.550  1.00  0.00     0.009 C 
HETATM   31  C   UNL     1      -0.451   9.325 -27.756  1.00  0.00    -0.013 C 
HETATM   32  C   UNL     1      -1.096   8.805 -29.052  1.00  0.00     0.020 C 
ENDBRANCH   5  23
TORSDOF 3
ENDMDL
