MODEL 1
REMARK VINA RESULT:      -8.2      0.000      0.000
REMARK  3 active torsions:
REMARK  status: ('A' for Active; 'I' for Inactive)
REMARK    1  A    between atoms: C_7  and  C_8 
REMARK       I    between atoms: C_8  and  N_9 
REMARK    2  A    between atoms: N_9  and  C_10 
REMARK    3  A    between atoms: C_13  and  C_14 
REMARK       I    between atoms: C_14  and  N_15 
ROOT
HETATM    1  C   UNL     1      -7.148  -0.134 -34.604  1.00  0.00     0.257 C 
HETATM    2  N   UNL     1      -8.041   0.190 -33.599  1.00  0.00    -0.323 N 
HETATM    3  O   UNL     1      -7.240   0.205 -35.777  1.00  0.00    -0.267 OA
HETATM    4  H   UNL     1      -7.776  -0.083 -32.661  1.00  0.00     0.169 HD
ENDROOT
BRANCH   2   5
HETATM    5  C   UNL     1      -9.240   0.923 -33.710  1.00  0.00     0.035 A 
HETATM    6  C   UNL     1      -9.313   2.243 -34.161  1.00  0.00     0.030 A 
HETATM    7  C   UNL     1     -10.544   2.911 -34.226  1.00  0.00     0.019 A 
HETATM    8  C   UNL     1     -11.725   2.260 -33.856  1.00  0.00     0.032 A 
HETATM    9  C   UNL     1     -11.652   0.936 -33.408  1.00  0.00     0.019 A 
HETATM   10  C   UNL     1     -10.421   0.275 -33.333  1.00  0.00     0.030 A 
BRANCH   8  11
HETATM   11  C   UNL     1     -13.067   2.910 -33.895  1.00  0.00     0.249 C 
HETATM   12  N   UNL     1     -13.265   3.954 -34.754  1.00  0.00    -0.366 N 
HETATM   13  H   UNL     1     -12.601   4.274 -35.440  1.00  0.00     0.159 HD
HETATM   14  H   UNL     1     -14.198   4.346 -34.781  1.00  0.00     0.159 HD
HETATM   15  O   UNL     1     -13.986   2.519 -33.183  1.00  0.00    -0.268 OA
ENDBRANCH   8  11
ENDBRANCH   2   5
BRANCH   1  16
HETATM   16  C   UNL     1      -5.979  -0.892 -34.136  1.00  0.00     0.050 A 
HETATM   17  C   UNL     1      -5.681  -2.306 -34.308  1.00  0.00    -0.003 A 
HETATM   18  C   UNL     1      -6.359  -3.337 -35.015  1.00  0.00     0.014 A 
HETATM   19  C   UNL     1      -4.497  -2.660 -33.650  1.00  0.00     0.016 A 
HETATM   20  C   UNL     1      -5.886  -4.655 -35.002  1.00  0.00     0.001 A 
HETATM   21  C   UNL     1      -4.731  -4.975 -34.309  1.00  0.00     0.001 A 
HETATM   22  C   UNL     1      -4.017  -3.985 -33.633  1.00  0.00     0.019 A 
HETATM   23  S   UNL     1      -3.743  -1.299 -32.918  1.00  0.00    -0.100 SA
HETATM   24  C   UNL     1      -4.964  -0.248 -33.454  1.00  0.00     0.068 A 
ENDBRANCH   1  16
TORSDOF 3
ENDMDL
MODEL 2
REMARK VINA RESULT:      -8.1      4.321      7.807
REMARK  3 active torsions:
REMARK  status: ('A' for Active; 'I' for Inactive)
REMARK    1  A    between atoms: C_7  and  C_8 
REMARK       I    between atoms: C_8  and  N_9 
REMARK    2  A    between atoms: N_9  and  C_10 
REMARK    3  A    between atoms: C_13  and  C_14 
REMARK       I    between atoms: C_14  and  N_15 
ROOT
HETATM    1  C   UNL     1      -5.779   1.481 -32.233  1.00  0.00     0.257 C 
HETATM    2  N   UNL     1      -5.611   0.917 -33.485  1.00  0.00    -0.323 N 
HETATM    3  O   UNL     1      -5.954   0.864 -31.190  1.00  0.00    -0.267 OA
HETATM    4  H   UNL     1      -5.379   1.555 -34.235  1.00  0.00     0.169 HD
ENDROOT
BRANCH   2   5
HETATM    5  C   UNL     1      -5.646  -0.450 -33.829  1.00  0.00     0.035 A 
HETATM    6  C   UNL     1      -6.768  -1.100 -34.345  1.00  0.00     0.030 A 
HETATM    7  C   UNL     1      -6.728  -2.470 -34.646  1.00  0.00     0.019 A 
HETATM    8  C   UNL     1      -5.555  -3.206 -34.449  1.00  0.00     0.032 A 
HETATM    9  C   UNL     1      -4.429  -2.552 -33.936  1.00  0.00     0.019 A 
HETATM   10  C   UNL     1      -4.475  -1.188 -33.625  1.00  0.00     0.030 A 
BRANCH   8  11
HETATM   11  C   UNL     1      -5.442  -4.663 -34.742  1.00  0.00     0.249 C 
HETATM   12  N   UNL     1      -4.385  -5.356 -34.223  1.00  0.00    -0.366 N 
HETATM   13  H   UNL     1      -3.709  -4.984 -33.576  1.00  0.00     0.159 HD
HETATM   14  H   UNL     1      -4.361  -6.350 -34.410  1.00  0.00     0.159 HD
HETATM   15  O   UNL     1      -6.280  -5.243 -35.424  1.00  0.00    -0.268 OA
ENDBRANCH   8  11
ENDBRANCH   2   5
BRANCH   1  16
HETATM   16  C   UNL     1      -5.658   2.945 -32.223  1.00  0.00     0.050 A 
HETATM   17  C   UNL     1      -4.465   3.763 -32.386  1.00  0.00    -0.003 A 
HETATM   18  C   UNL     1      -3.114   3.420 -32.668  1.00  0.00     0.014 A 
HETATM   19  C   UNL     1      -4.758   5.125 -32.241  1.00  0.00     0.016 A 
HETATM   20  C   UNL     1      -2.119   4.402 -32.743  1.00  0.00     0.001 A 
HETATM   21  C   UNL     1      -2.440   5.736 -32.557  1.00  0.00     0.001 A 
HETATM   22  C   UNL     1      -3.759   6.116 -32.314  1.00  0.00     0.019 A 
HETATM   23  S   UNL     1      -6.438   5.393 -31.993  1.00  0.00    -0.100 SA
HETATM   24  C   UNL     1      -6.785   3.732 -32.068  1.00  0.00     0.068 A 
ENDBRANCH   1  16
TORSDOF 3
ENDMDL
MODEL 3
REMARK VINA RESULT:      -7.9      2.987      7.932
REMARK  3 active torsions:
REMARK  status: ('A' for Active; 'I' for Inactive)
REMARK    1  A    between atoms: C_7  and  C_8 
REMARK       I    between atoms: C_8  and  N_9 
REMARK    2  A    between atoms: N_9  and  C_10 
REMARK    3  A    between atoms: C_13  and  C_14 
REMARK       I    between atoms: C_14  and  N_15 
ROOT
HETATM    1  C   UNL     1      -8.226   0.755 -33.342  1.00  0.00     0.257 C 
HETATM    2  N   UNL     1      -7.299   0.310 -34.268  1.00  0.00    -0.323 N 
HETATM    3  O   UNL     1      -8.531   0.179 -32.305  1.00  0.00    -0.267 OA
HETATM    4  H   UNL     1      -7.085   0.946 -35.026  1.00  0.00     0.169 HD
ENDROOT
BRANCH   2   5
HETATM    5  C   UNL     1      -6.557  -0.888 -34.242  1.00  0.00     0.035 A 
HETATM    6  C   UNL     1      -5.241  -0.985 -33.787  1.00  0.00     0.030 A 
HETATM    7  C   UNL     1      -4.562  -2.212 -33.811  1.00  0.00     0.019 A 
HETATM    8  C   UNL     1      -5.200  -3.367 -34.276  1.00  0.00     0.032 A 
HETATM    9  C   UNL     1      -6.522  -3.269 -34.729  1.00  0.00     0.019 A 
HETATM   10  C   UNL     1      -7.192  -2.041 -34.715  1.00  0.00     0.030 A 
BRANCH   8  11
HETATM   11  C   UNL     1      -4.540  -4.702 -34.335  1.00  0.00     0.249 C 
HETATM   12  N   UNL     1      -3.258  -4.820 -33.875  1.00  0.00    -0.366 N 
HETATM   13  H   UNL     1      -2.739  -4.093 -33.411  1.00  0.00     0.159 HD
HETATM   14  H   UNL     1      -2.855  -5.748 -33.896  1.00  0.00     0.159 HD
HETATM   15  O   UNL     1      -5.126  -5.685 -34.774  1.00  0.00    -0.268 OA
ENDBRANCH   8  11
ENDBRANCH   2   5
BRANCH   1  16
HETATM   16  C   UNL     1      -8.801   2.068 -33.663  1.00  0.00     0.050 A 
HETATM   17  C   UNL     1     -10.089   2.377 -34.266  1.00  0.00    -0.003 A 
HETATM   18  C   UNL     1     -11.178   1.547 -34.649  1.00  0.00     0.014 A 
HETATM   19  C   UNL     1     -10.236   3.754 -34.474  1.00  0.00     0.016 A 
HETATM   20  C   UNL     1     -12.319   2.085 -35.256  1.00  0.00     0.001 A 
HETATM   21  C   UNL     1     -12.414   3.448 -35.480  1.00  0.00     0.001 A 
HETATM   22  C   UNL     1     -11.383   4.300 -35.086  1.00  0.00     0.019 A 
HETATM   23  S   UNL     1      -8.884   4.636 -33.883  1.00  0.00    -0.100 SA
HETATM   24  C   UNL     1      -8.102   3.222 -33.361  1.00  0.00     0.068 A 
ENDBRANCH   1  16
TORSDOF 3
ENDMDL
MODEL 4
REMARK VINA RESULT:      -7.7     13.838     14.671
REMARK  3 active torsions:
REMARK  status: ('A' for Active; 'I' for Inactive)
REMARK    1  A    between atoms: C_7  and  C_8 
REMARK       I    between atoms: C_8  and  N_9 
REMARK    2  A    between atoms: N_9  and  C_10 
REMARK    3  A    between atoms: C_13  and  C_14 
REMARK       I    between atoms: C_14  and  N_15 
ROOT
HETATM    1  C   UNL     1      -4.127 -12.911 -38.232  1.00  0.00     0.257 C 
HETATM    2  N   UNL     1      -5.183 -13.769 -38.483  1.00  0.00    -0.323 N 
HETATM    3  O   UNL     1      -4.150 -11.694 -38.363  1.00  0.00    -0.267 OA
HETATM    4  H   UNL     1      -5.040 -14.740 -38.235  1.00  0.00     0.169 HD
ENDROOT
BRANCH   2   5
HETATM    5  C   UNL     1      -6.465 -13.443 -38.970  1.00  0.00     0.035 A 
HETATM    6  C   UNL     1      -6.701 -12.790 -40.182  1.00  0.00     0.030 A 
HETATM    7  C   UNL     1      -8.008 -12.483 -40.589  1.00  0.00     0.019 A 
HETATM    8  C   UNL     1      -9.101 -12.842 -39.794  1.00  0.00     0.032 A 
HETATM    9  C   UNL     1      -8.864 -13.500 -38.581  1.00  0.00     0.019 A 
HETATM   10  C   UNL     1      -7.559 -13.794 -38.172  1.00  0.00     0.030 A 
BRANCH   8  11
HETATM   11  C   UNL     1     -10.515 -12.543 -40.161  1.00  0.00     0.249 C 
HETATM   12  N   UNL     1     -10.821 -11.298 -40.632  1.00  0.00    -0.366 N 
HETATM   13  H   UNL     1     -10.151 -10.576 -40.841  1.00  0.00     0.159 HD
HETATM   14  H   UNL     1     -11.783 -11.142 -40.907  1.00  0.00     0.159 HD
HETATM   15  O   UNL     1     -11.393 -13.393 -40.058  1.00  0.00    -0.268 OA
ENDBRANCH   8  11
ENDBRANCH   2   5
BRANCH   1  16
HETATM   16  C   UNL     1      -2.933 -13.583 -37.702  1.00  0.00     0.050 A 
HETATM   17  C   UNL     1      -1.715 -13.964 -38.402  1.00  0.00    -0.003 A 
HETATM   18  C   UNL     1      -1.286 -13.750 -39.741  1.00  0.00     0.014 A 
HETATM   19  C   UNL     1      -0.836 -14.651 -37.556  1.00  0.00     0.016 A 
HETATM   20  C   UNL     1      -0.063 -14.255 -40.198  1.00  0.00     0.001 A 
HETATM   21  C   UNL     1       0.764 -14.963 -39.342  1.00  0.00     0.001 A 
HETATM   22  C   UNL     1       0.396 -15.162 -38.012  1.00  0.00     0.019 A 
HETATM   23  S   UNL     1      -1.446 -14.756 -35.952  1.00  0.00    -0.100 SA
HETATM   24  C   UNL     1      -2.860 -13.910 -36.361  1.00  0.00     0.068 A 
ENDBRANCH   1  16
TORSDOF 3
ENDMDL
MODEL 5
REMARK VINA RESULT:      -7.7      3.284      7.799
REMARK  3 active torsions:
REMARK  status: ('A' for Active; 'I' for Inactive)
REMARK    1  A    between atoms: C_7  and  C_8 
REMARK       I    between atoms: C_8  and  N_9 
REMARK    2  A    between atoms: N_9  and  C_10 
REMARK    3  A    between atoms: C_13  and  C_14 
REMARK       I    between atoms: C_14  and  N_15 
ROOT
HETATM    1  C   UNL     1      -8.878   1.853 -33.838  1.00  0.00     0.257 C 
HETATM    2  N   UNL     1      -8.589   0.508 -33.973  1.00  0.00    -0.323 N 
HETATM    3  O   UNL     1      -8.096   2.717 -33.460  1.00  0.00    -0.267 OA
HETATM    4  H   UNL     1      -9.312  -0.065 -34.389  1.00  0.00     0.169 HD
ENDROOT
BRANCH   2   5
HETATM    5  C   UNL     1      -7.379  -0.151 -33.674  1.00  0.00     0.035 A 
HETATM    6  C   UNL     1      -6.690  -0.971 -34.571  1.00  0.00     0.030 A 
HETATM    7  C   UNL     1      -5.499  -1.608 -34.191  1.00  0.00     0.019 A 
HETATM    8  C   UNL     1      -4.971  -1.419 -32.910  1.00  0.00     0.032 A 
HETATM    9  C   UNL     1      -5.660  -0.594 -32.013  1.00  0.00     0.019 A 
HETATM   10  C   UNL     1      -6.854   0.031 -32.390  1.00  0.00     0.030 A 
BRANCH   8  11
HETATM   11  C   UNL     1      -3.714  -2.067 -32.438  1.00  0.00     0.249 C 
HETATM   12  N   UNL     1      -2.889  -1.367 -31.603  1.00  0.00    -0.366 N 
HETATM   13  H   UNL     1      -3.098  -0.468 -31.201  1.00  0.00     0.159 HD
HETATM   14  H   UNL     1      -2.064  -1.852 -31.273  1.00  0.00     0.159 HD
HETATM   15  O   UNL     1      -3.420  -3.209 -32.774  1.00  0.00    -0.268 OA
ENDBRANCH   8  11
ENDBRANCH   2   5
BRANCH   1  16
HETATM   16  C   UNL     1     -10.236   2.213 -34.266  1.00  0.00     0.050 A 
HETATM   17  C   UNL     1     -11.470   1.457 -34.115  1.00  0.00    -0.003 A 
HETATM   18  C   UNL     1     -11.751   0.222 -33.469  1.00  0.00     0.014 A 
HETATM   19  C   UNL     1     -12.547   2.115 -34.723  1.00  0.00     0.016 A 
HETATM   20  C   UNL     1     -13.037  -0.330 -33.491  1.00  0.00     0.001 A 
HETATM   21  C   UNL     1     -14.070   0.331 -34.135  1.00  0.00     0.001 A 
HETATM   22  C   UNL     1     -13.843   1.562 -34.749  1.00  0.00     0.019 A 
HETATM   23  S   UNL     1     -12.078   3.632 -35.383  1.00  0.00    -0.100 SA
HETATM   24  C   UNL     1     -10.468   3.430 -34.882  1.00  0.00     0.068 A 
ENDBRANCH   1  16
TORSDOF 3
ENDMDL
MODEL 6
REMARK VINA RESULT:      -7.6      5.305      7.421
REMARK  3 active torsions:
REMARK  status: ('A' for Active; 'I' for Inactive)
REMARK    1  A    between atoms: C_7  and  C_8 
REMARK       I    between atoms: C_8  and  N_9 
REMARK    2  A    between atoms: N_9  and  C_10 
REMARK    3  A    between atoms: C_13  and  C_14 
REMARK       I    between atoms: C_14  and  N_15 
ROOT
HETATM    1  C   UNL     1      -4.541   1.357 -32.199  1.00  0.00     0.257 C 
HETATM    2  N   UNL     1      -4.598   2.657 -32.669  1.00  0.00    -0.323 N 
HETATM    3  O   UNL     1      -3.750   0.933 -31.366  1.00  0.00    -0.267 OA
HETATM    4  H   UNL     1      -5.371   2.876 -33.284  1.00  0.00     0.169 HD
ENDROOT
BRANCH   2   5
HETATM    5  C   UNL     1      -3.756   3.736 -32.333  1.00  0.00     0.035 A 
HETATM    6  C   UNL     1      -4.020   4.649 -31.310  1.00  0.00     0.030 A 
HETATM    7  C   UNL     1      -3.140   5.709 -31.049  1.00  0.00     0.019 A 
HETATM    8  C   UNL     1      -1.969   5.860 -31.799  1.00  0.00     0.032 A 
HETATM    9  C   UNL     1      -1.702   4.942 -32.821  1.00  0.00     0.019 A 
HETATM   10  C   UNL     1      -2.589   3.892 -33.088  1.00  0.00     0.030 A 
BRANCH   8  11
HETATM   11  C   UNL     1      -0.992   6.964 -31.580  1.00  0.00     0.249 C 
HETATM   12  N   UNL     1       0.313   6.645 -31.326  1.00  0.00    -0.366 N 
HETATM   13  H   UNL     1       0.699   5.715 -31.359  1.00  0.00     0.159 HD
HETATM   14  H   UNL     1       0.955   7.419 -31.220  1.00  0.00     0.159 HD
HETATM   15  O   UNL     1      -1.335   8.140 -31.635  1.00  0.00    -0.268 OA
ENDBRANCH   8  11
ENDBRANCH   2   5
BRANCH   1  16
HETATM   16  C   UNL     1      -5.593   0.486 -32.739  1.00  0.00     0.050 A 
HETATM   17  C   UNL     1      -5.458  -0.801 -33.406  1.00  0.00    -0.003 A 
HETATM   18  C   UNL     1      -4.324  -1.618 -33.666  1.00  0.00     0.014 A 
HETATM   19  C   UNL     1      -6.700  -1.283 -33.838  1.00  0.00     0.016 A 
HETATM   20  C   UNL     1      -4.445  -2.821 -34.372  1.00  0.00     0.001 A 
HETATM   21  C   UNL     1      -5.685  -3.247 -34.817  1.00  0.00     0.001 A 
HETATM   22  C   UNL     1      -6.827  -2.493 -34.550  1.00  0.00     0.019 A 
HETATM   23  S   UNL     1      -7.985  -0.237 -33.378  1.00  0.00    -0.100 SA
HETATM   24  C   UNL     1      -6.922   0.848 -32.618  1.00  0.00     0.068 A 
ENDBRANCH   1  16
TORSDOF 3
ENDMDL
MODEL 7
REMARK VINA RESULT:      -7.3      5.442      7.511
REMARK  3 active torsions:
REMARK  status: ('A' for Active; 'I' for Inactive)
REMARK    1  A    between atoms: C_7  and  C_8 
REMARK       I    between atoms: C_8  and  N_9 
REMARK    2  A    between atoms: N_9  and  C_10 
REMARK    3  A    between atoms: C_13  and  C_14 
REMARK       I    between atoms: C_14  and  N_15 
ROOT
HETATM    1  C   UNL     1      -3.419   1.389 -32.043  1.00  0.00     0.257 C 
HETATM    2  N   UNL     1      -3.678   2.553 -32.743  1.00  0.00    -0.323 N 
HETATM    3  O   UNL     1      -2.837   1.316 -30.968  1.00  0.00    -0.267 OA
HETATM    4  H   UNL     1      -4.255   2.460 -33.569  1.00  0.00     0.169 HD
ENDROOT
BRANCH   2   5
HETATM    5  C   UNL     1      -3.301   3.868 -32.403  1.00  0.00     0.035 A 
HETATM    6  C   UNL     1      -3.902   4.619 -31.390  1.00  0.00     0.030 A 
HETATM    7  C   UNL     1      -3.483   5.931 -31.124  1.00  0.00     0.019 A 
HETATM    8  C   UNL     1      -2.440   6.505 -31.859  1.00  0.00     0.032 A 
HETATM    9  C   UNL     1      -1.835   5.750 -32.871  1.00  0.00     0.019 A 
HETATM   10  C   UNL     1      -2.264   4.446 -33.143  1.00  0.00     0.030 A 
BRANCH   8  11
HETATM   11  C   UNL     1      -1.946   7.894 -31.635  1.00  0.00     0.249 C 
HETATM   12  N   UNL     1      -1.759   8.324 -30.351  1.00  0.00    -0.366 N 
HETATM   13  H   UNL     1      -1.844   7.748 -29.528  1.00  0.00     0.159 HD
HETATM   14  H   UNL     1      -1.388   9.258 -30.237  1.00  0.00     0.159 HD
HETATM   15  O   UNL     1      -1.698   8.642 -32.574  1.00  0.00    -0.268 OA
ENDBRANCH   8  11
ENDBRANCH   2   5
BRANCH   1  16
HETATM   16  C   UNL     1      -3.980   0.184 -32.669  1.00  0.00     0.050 A 
HETATM   17  C   UNL     1      -5.205   0.045 -33.443  1.00  0.00    -0.003 A 
HETATM   18  C   UNL     1      -6.162   1.001 -33.880  1.00  0.00     0.014 A 
HETATM   19  C   UNL     1      -5.426  -1.289 -33.809  1.00  0.00     0.016 A 
HETATM   20  C   UNL     1      -7.300   0.609 -34.596  1.00  0.00     0.001 A 
HETATM   21  C   UNL     1      -7.505  -0.724 -34.907  1.00  0.00     0.001 A 
HETATM   22  C   UNL     1      -6.571  -1.687 -34.528  1.00  0.00     0.019 A 
HETATM   23  S   UNL     1      -4.146  -2.314 -33.291  1.00  0.00    -0.100 SA
HETATM   24  C   UNL     1      -3.304  -1.019 -32.584  1.00  0.00     0.068 A 
ENDBRANCH   1  16
TORSDOF 3
ENDMDL
MODEL 8
REMARK VINA RESULT:      -7.3      4.629      7.986
REMARK  3 active torsions:
REMARK  status: ('A' for Active; 'I' for Inactive)
REMARK    1  A    between atoms: C_7  and  C_8 
REMARK       I    between atoms: C_8  and  N_9 
REMARK    2  A    between atoms: N_9  and  C_10 
REMARK    3  A    between atoms: C_13  and  C_14 
REMARK       I    between atoms: C_14  and  N_15 
ROOT
HETATM    1  C   UNL     1      -5.141   1.606 -32.292  1.00  0.00     0.257 C 
HETATM    2  N   UNL     1      -5.635   0.946 -33.402  1.00  0.00    -0.323 N 
HETATM    3  O   UNL     1      -4.481   1.098 -31.394  1.00  0.00    -0.267 OA
HETATM    4  H   UNL     1      -6.079   1.523 -34.105  1.00  0.00     0.169 HD
ENDROOT
BRANCH   2   5
HETATM    5  C   UNL     1      -5.527  -0.425 -33.712  1.00  0.00     0.035 A 
HETATM    6  C   UNL     1      -4.342  -1.157 -33.626  1.00  0.00     0.030 A 
HETATM    7  C   UNL     1      -4.311  -2.517 -33.971  1.00  0.00     0.019 A 
HETATM    8  C   UNL     1      -5.476  -3.168 -34.390  1.00  0.00     0.032 A 
HETATM    9  C   UNL     1      -6.665  -2.435 -34.472  1.00  0.00     0.019 A 
HETATM   10  C   UNL     1      -6.690  -1.075 -34.139  1.00  0.00     0.030 A 
BRANCH   8  11
HETATM   11  C   UNL     1      -5.516  -4.608 -34.776  1.00  0.00     0.249 C 
HETATM   12  N   UNL     1      -4.482  -5.417 -34.400  1.00  0.00    -0.366 N 
HETATM   13  H   UNL     1      -3.721  -5.144 -33.799  1.00  0.00     0.159 HD
HETATM   14  H   UNL     1      -4.561  -6.395 -34.646  1.00  0.00     0.159 HD
HETATM   15  O   UNL     1      -6.458  -5.072 -35.409  1.00  0.00    -0.268 OA
ENDBRANCH   8  11
ENDBRANCH   2   5
BRANCH   1  16
HETATM   16  C   UNL     1      -5.411   3.050 -32.293  1.00  0.00     0.050 A 
HETATM   17  C   UNL     1      -6.137   3.843 -31.312  1.00  0.00    -0.003 A 
HETATM   18  C   UNL     1      -6.722   3.498 -30.063  1.00  0.00     0.014 A 
HETATM   19  C   UNL     1      -6.237   5.181 -31.713  1.00  0.00     0.016 A 
HETATM   20  C   UNL     1      -7.414   4.449 -29.301  1.00  0.00     0.001 A 
HETATM   21  C   UNL     1      -7.525   5.755 -29.748  1.00  0.00     0.001 A 
HETATM   22  C   UNL     1      -6.934   6.141 -30.950  1.00  0.00     0.019 A 
HETATM   23  S   UNL     1      -5.410   5.468 -33.192  1.00  0.00    -0.100 SA
HETATM   24  C   UNL     1      -4.924   3.845 -33.315  1.00  0.00     0.068 A 
ENDBRANCH   1  16
TORSDOF 3
ENDMDL
MODEL 9
REMARK VINA RESULT:      -7.1      1.378      2.489
REMARK  3 active torsions:
REMARK  status: ('A' for Active; 'I' for Inactive)
REMARK    1  A    between atoms: C_7  and  C_8 
REMARK       I    between atoms: C_8  and  N_9 
REMARK    2  A    between atoms: N_9  and  C_10 
REMARK    3  A    between atoms: C_13  and  C_14 
REMARK       I    between atoms: C_14  and  N_15 
ROOT
HETATM    1  C   UNL     1      -7.550  -0.050 -34.368  1.00  0.00     0.257 C 
HETATM    2  N   UNL     1      -8.341   0.252 -33.275  1.00  0.00    -0.323 N 
HETATM    3  O   UNL     1      -7.715   0.368 -35.507  1.00  0.00    -0.267 OA
HETATM    4  H   UNL     1      -8.019  -0.094 -32.380  1.00  0.00     0.169 HD
ENDROOT
BRANCH   2   5
HETATM    5  C   UNL     1      -9.502   1.051 -33.242  1.00  0.00     0.035 A 
HETATM    6  C   UNL     1      -9.509   2.410 -32.921  1.00  0.00     0.030 A 
HETATM    7  C   UNL     1     -10.710   3.134 -32.892  1.00  0.00     0.019 A 
HETATM    8  C   UNL     1     -11.922   2.510 -33.201  1.00  0.00     0.032 A 
HETATM    9  C   UNL     1     -11.914   1.148 -33.527  1.00  0.00     0.019 A 
HETATM   10  C   UNL     1     -10.716   0.425 -33.543  1.00  0.00     0.030 A 
BRANCH   8  11
HETATM   11  C   UNL     1     -13.236   3.215 -33.186  1.00  0.00     0.249 C 
HETATM   12  N   UNL     1     -13.568   4.006 -34.249  1.00  0.00    -0.366 N 
HETATM   13  H   UNL     1     -13.034   4.089 -35.099  1.00  0.00     0.159 HD
HETATM   14  H   UNL     1     -14.483   4.439 -34.222  1.00  0.00     0.159 HD
HETATM   15  O   UNL     1     -14.017   3.087 -32.249  1.00  0.00    -0.268 OA
ENDBRANCH   8  11
ENDBRANCH   2   5
BRANCH   1  16
HETATM   16  C   UNL     1      -6.393  -0.896 -34.046  1.00  0.00     0.050 A 
HETATM   17  C   UNL     1      -5.327  -0.656 -33.084  1.00  0.00    -0.003 A 
HETATM   18  C   UNL     1      -5.119   0.389 -32.143  1.00  0.00     0.014 A 
HETATM   19  C   UNL     1      -4.366  -1.675 -33.125  1.00  0.00     0.016 A 
HETATM   20  C   UNL     1      -3.975   0.420 -31.337  1.00  0.00     0.001 A 
HETATM   21  C   UNL     1      -3.027  -0.585 -31.431  1.00  0.00     0.001 A 
HETATM   22  C   UNL     1      -3.212  -1.647 -32.316  1.00  0.00     0.019 A 
HETATM   23  S   UNL     1      -4.794  -2.911 -34.241  1.00  0.00    -0.100 SA
HETATM   24  C   UNL     1      -6.230  -2.116 -34.676  1.00  0.00     0.068 A 
ENDBRANCH   1  16
TORSDOF 3
ENDMDL
MODEL 10
REMARK VINA RESULT:      -7.0     14.348     15.831
REMARK  3 active torsions:
REMARK  status: ('A' for Active; 'I' for Inactive)
REMARK    1  A    between atoms: C_7  and  C_8 
REMARK       I    between atoms: C_8  and  N_9 
REMARK    2  A    between atoms: N_9  and  C_10 
REMARK    3  A    between atoms: C_13  and  C_14 
REMARK       I    between atoms: C_14  and  N_15 
ROOT
HETATM    1  C   UNL     1      -4.358 -14.401 -41.503  1.00  0.00     0.257 C 
HETATM    2  N   UNL     1      -5.311 -14.569 -40.515  1.00  0.00    -0.323 N 
HETATM    3  O   UNL     1      -4.489 -13.722 -42.514  1.00  0.00    -0.267 OA
HETATM    4  H   UNL     1      -5.018 -15.082 -39.693  1.00  0.00     0.169 HD
ENDROOT
BRANCH   2   5
HETATM    5  C   UNL     1      -6.619 -14.043 -40.476  1.00  0.00     0.035 A 
HETATM    6  C   UNL     1      -6.921 -12.713 -40.179  1.00  0.00     0.030 A 
HETATM    7  C   UNL     1      -8.252 -12.271 -40.142  1.00  0.00     0.019 A 
HETATM    8  C   UNL     1      -9.301 -13.153 -40.421  1.00  0.00     0.032 A 
HETATM    9  C   UNL     1      -8.997 -14.486 -40.723  1.00  0.00     0.019 A 
HETATM   10  C   UNL     1      -7.669 -14.927 -40.747  1.00  0.00     0.030 A 
BRANCH   8  11
HETATM   11  C   UNL     1     -10.737 -12.754 -40.396  1.00  0.00     0.249 C 
HETATM   12  N   UNL     1     -11.054 -11.434 -40.558  1.00  0.00    -0.366 N 
HETATM   13  H   UNL     1     -10.398 -10.704 -40.784  1.00  0.00     0.159 HD
HETATM   14  H   UNL     1     -12.039 -11.205 -40.572  1.00  0.00     0.159 HD
HETATM   15  O   UNL     1     -11.627 -13.583 -40.245  1.00  0.00    -0.268 OA
ENDBRANCH   8  11
ENDBRANCH   2   5
BRANCH   1  16
HETATM   16  C   UNL     1      -3.082 -15.069 -41.214  1.00  0.00     0.050 A 
HETATM   17  C   UNL     1      -2.024 -14.660 -40.303  1.00  0.00    -0.003 A 
HETATM   18  C   UNL     1      -1.929 -13.574 -39.390  1.00  0.00     0.014 A 
HETATM   19  C   UNL     1      -0.932 -15.535 -40.365  1.00  0.00     0.016 A 
HETATM   20  C   UNL     1      -0.769 -13.365 -38.634  1.00  0.00     0.001 A 
HETATM   21  C   UNL     1       0.306 -14.229 -38.749  1.00  0.00     0.001 A 
HETATM   22  C   UNL     1       0.237 -15.327 -39.606  1.00  0.00     0.019 A 
HETATM   23  S   UNL     1      -1.225 -16.845 -41.440  1.00  0.00    -0.100 SA
HETATM   24  C   UNL     1      -2.774 -16.269 -41.829  1.00  0.00     0.068 A 
ENDBRANCH   1  16
TORSDOF 3
ENDMDL
