MODEL 1
REMARK VINA RESULT:      -8.9      0.000      0.000
REMARK  6 active torsions:
REMARK  status: ('A' for Active; 'I' for Inactive)
REMARK    1  A    between atoms: C_4  and  C_5 
REMARK    2  A    between atoms: C_5  and  O_6 
REMARK    3  A    between atoms: O_6  and  C_7 
REMARK    4  A    between atoms: C_10  and  C_11 
REMARK    5  A    between atoms: C_17  and  C_18 
REMARK    6  A    between atoms: C_27  and  N_28 
ROOT
HETATM    1  C   UNL     1      -6.529   3.249 -30.348  1.00  0.00     0.072 A 
HETATM    2  N   UNL     1      -6.654   3.717 -29.057  1.00  0.00    -0.274 N 
HETATM    3  H   UNL     1      -6.197   3.362 -28.223  1.00  0.00     0.189 HD
HETATM    4  N   UNL     1      -7.494   4.766 -28.933  1.00  0.00    -0.148 NA
HETATM    5  C   UNL     1      -7.896   4.957 -30.183  1.00  0.00     0.199 A 
HETATM    6  C   UNL     1      -7.353   4.063 -31.107  1.00  0.00     0.040 A 
HETATM    7  C   UNL     1      -7.731   4.130 -32.546  1.00  0.00     0.107 A 
HETATM    8  C   UNL     1      -8.719   5.264 -32.795  1.00  0.00     0.081 A 
HETATM    9  C   UNL     1      -9.112   5.482 -34.149  1.00  0.00     0.100 C 
HETATM   10  N   UNL     1      -9.432   5.654 -35.251  1.00  0.00    -0.191 NA
HETATM   11  C   UNL     1      -9.178   6.077 -31.806  1.00  0.00     0.140 A 
HETATM   12  O   UNL     1      -8.783   5.927 -30.470  1.00  0.00    -0.277 OA
ENDROOT
BRANCH   7  13
HETATM   13  C   UNL     1      -8.270   2.761 -32.912  1.00  0.00    -0.027 A 
HETATM   14  C   UNL     1      -9.410   2.272 -32.273  1.00  0.00     0.124 A 
HETATM   15  N   UNL     1      -9.980   1.074 -32.531  1.00  0.00    -0.273 NA
HETATM   16  C   UNL     1      -9.386   0.310 -33.470  1.00  0.00     0.116 A 
HETATM   17  C   UNL     1      -8.246   0.688 -34.158  1.00  0.00     0.020 A 
HETATM   18  C   UNL     1      -7.680   1.928 -33.872  1.00  0.00     0.011 A 
ENDBRANCH   7  13
BRANCH  11  19
HETATM   19  N   UNL     1     -10.060   7.121 -31.984  1.00  0.00    -0.282 NA
HETATM   20  H   UNL     1     -10.700   7.038 -32.770  1.00  0.00     0.126 HD
HETATM   21  H   UNL     1     -10.522   7.384 -31.116  1.00  0.00     0.126 HD
ENDBRANCH  11  19
BRANCH   1  22
HETATM   22  C   UNL     1      -5.742   2.081 -30.710  1.00  0.00    -0.007 A 
HETATM   23  C   UNL     1      -6.300   0.800 -30.615  1.00  0.00     0.016 A 
HETATM   24  C   UNL     1      -5.605  -0.305 -31.105  1.00  0.00     0.037 A 
HETATM   25  C   UNL     1      -4.362  -0.132 -31.710  1.00  0.00     0.069 A 
HETATM   26  C   UNL     1      -3.764   1.127 -31.741  1.00  0.00     0.037 A 
HETATM   27  C   UNL     1      -4.457   2.233 -31.245  1.00  0.00     0.016 A 
BRANCH  25  28
HETATM   28  O   UNL     1      -3.780  -1.248 -32.244  1.00  0.00    -0.347 OA
BRANCH  28  29
HETATM   29  C   UNL     1      -3.852  -1.274 -33.677  1.00  0.00     0.214 C 
BRANCH  29  30
HETATM   30  C   UNL     1      -4.709  -2.439 -34.114  1.00  0.00    -0.034 A 
HETATM   31  C   UNL     1      -4.179  -3.739 -34.126  1.00  0.00     0.009 A 
HETATM   32  C   UNL     1      -4.977  -4.827 -34.484  1.00  0.00     0.001 A 
HETATM   33  C   UNL     1      -6.313  -4.629 -34.825  1.00  0.00     0.000 A 
HETATM   34  C   UNL     1      -6.852  -3.343 -34.810  1.00  0.00     0.001 A 
HETATM   35  C   UNL     1      -6.055  -2.253 -34.454  1.00  0.00     0.009 A 
ENDBRANCH  29  30
ENDBRANCH  28  29
ENDBRANCH  25  28
ENDBRANCH   1  22
TORSDOF 6
ENDMDL
MODEL 2
REMARK VINA RESULT:      -8.7      2.604      4.579
REMARK  6 active torsions:
REMARK  status: ('A' for Active; 'I' for Inactive)
REMARK    1  A    between atoms: C_4  and  C_5 
REMARK    2  A    between atoms: C_5  and  O_6 
REMARK    3  A    between atoms: O_6  and  C_7 
REMARK    4  A    between atoms: C_10  and  C_11 
REMARK    5  A    between atoms: C_17  and  C_18 
REMARK    6  A    between atoms: C_27  and  N_28 
ROOT
HETATM    1  C   UNL     1     -10.981   1.795 -34.365  1.00  0.00     0.072 A 
HETATM    2  N   UNL     1     -11.767   1.514 -35.462  1.00  0.00    -0.274 N 
HETATM    3  H   UNL     1     -11.676   0.734 -36.105  1.00  0.00     0.189 HD
HETATM    4  N   UNL     1     -12.757   2.407 -35.671  1.00  0.00    -0.148 NA
HETATM    5  C   UNL     1     -12.583   3.263 -34.671  1.00  0.00     0.199 A 
HETATM    6  C   UNL     1     -11.511   2.958 -33.831  1.00  0.00     0.040 A 
HETATM    7  C   UNL     1     -11.169   3.839 -32.680  1.00  0.00     0.107 A 
HETATM    8  C   UNL     1     -12.131   5.019 -32.595  1.00  0.00     0.081 A 
HETATM    9  C   UNL     1     -11.956   5.908 -31.493  1.00  0.00     0.100 C 
HETATM   10  N   UNL     1     -11.808   6.630 -30.598  1.00  0.00    -0.191 NA
HETATM   11  C   UNL     1     -13.148   5.210 -33.478  1.00  0.00     0.140 A 
HETATM   12  O   UNL     1     -13.384   4.336 -34.548  1.00  0.00    -0.277 OA
ENDROOT
BRANCH   7  13
HETATM   13  C   UNL     1      -9.721   4.248 -32.869  1.00  0.00    -0.027 A 
HETATM   14  C   UNL     1      -9.336   4.922 -34.028  1.00  0.00     0.124 A 
HETATM   15  N   UNL     1      -8.079   5.342 -34.292  1.00  0.00    -0.273 NA
HETATM   16  C   UNL     1      -7.143   5.074 -33.358  1.00  0.00     0.116 A 
HETATM   17  C   UNL     1      -7.408   4.402 -32.177  1.00  0.00     0.020 A 
HETATM   18  C   UNL     1      -8.712   3.981 -31.932  1.00  0.00     0.011 A 
ENDBRANCH   7  13
BRANCH  11  19
HETATM   19  N   UNL     1     -14.050   6.251 -33.434  1.00  0.00    -0.282 NA
HETATM   20  H   UNL     1     -13.705   7.156 -33.745  1.00  0.00     0.126 HD
HETATM   21  H   UNL     1     -14.945   5.998 -33.848  1.00  0.00     0.126 HD
ENDBRANCH  11  19
BRANCH   1  22
HETATM   22  C   UNL     1      -9.811   1.018 -33.991  1.00  0.00    -0.007 A 
HETATM   23  C   UNL     1      -8.722   0.920 -34.866  1.00  0.00     0.016 A 
HETATM   24  C   UNL     1      -7.541   0.307 -34.452  1.00  0.00     0.037 A 
HETATM   25  C   UNL     1      -7.435  -0.191 -33.155  1.00  0.00     0.069 A 
HETATM   26  C   UNL     1      -8.536  -0.167 -32.300  1.00  0.00     0.037 A 
HETATM   27  C   UNL     1      -9.722   0.441 -32.718  1.00  0.00     0.016 A 
BRANCH  25  28
HETATM   28  O   UNL     1      -6.219  -0.699 -32.791  1.00  0.00    -0.347 OA
BRANCH  28  29
HETATM   29  C   UNL     1      -5.371  -0.960 -33.919  1.00  0.00     0.214 C 
BRANCH  29  30
HETATM   30  C   UNL     1      -5.230  -2.452 -34.105  1.00  0.00    -0.034 A 
HETATM   31  C   UNL     1      -6.229  -3.178 -34.771  1.00  0.00     0.009 A 
HETATM   32  C   UNL     1      -6.085  -4.549 -34.989  1.00  0.00     0.001 A 
HETATM   33  C   UNL     1      -4.938  -5.207 -34.550  1.00  0.00     0.000 A 
HETATM   34  C   UNL     1      -3.934  -4.495 -33.894  1.00  0.00     0.001 A 
HETATM   35  C   UNL     1      -4.078  -3.123 -33.674  1.00  0.00     0.009 A 
ENDBRANCH  29  30
ENDBRANCH  28  29
ENDBRANCH  25  28
ENDBRANCH   1  22
TORSDOF 6
ENDMDL
MODEL 3
REMARK VINA RESULT:      -8.6      4.108      7.374
REMARK  6 active torsions:
REMARK  status: ('A' for Active; 'I' for Inactive)
REMARK    1  A    between atoms: C_4  and  C_5 
REMARK    2  A    between atoms: C_5  and  O_6 
REMARK    3  A    between atoms: O_6  and  C_7 
REMARK    4  A    between atoms: C_10  and  C_11 
REMARK    5  A    between atoms: C_17  and  C_18 
REMARK    6  A    between atoms: C_27  and  N_28 
ROOT
HETATM    1  C   UNL     1      -6.264   3.611 -33.010  1.00  0.00     0.072 A 
HETATM    2  N   UNL     1      -7.198   4.476 -32.482  1.00  0.00    -0.274 N 
HETATM    3  H   UNL     1      -7.079   5.462 -32.272  1.00  0.00     0.189 HD
HETATM    4  N   UNL     1      -8.392   3.903 -32.223  1.00  0.00    -0.148 NA
HETATM    5  C   UNL     1      -8.194   2.648 -32.608  1.00  0.00     0.199 A 
HETATM    6  C   UNL     1      -6.913   2.390 -33.097  1.00  0.00     0.040 A 
HETATM    7  C   UNL     1      -6.527   1.023 -33.541  1.00  0.00     0.107 A 
HETATM    8  C   UNL     1      -7.694   0.053 -33.388  1.00  0.00     0.081 A 
HETATM    9  C   UNL     1      -7.479  -1.282 -33.843  1.00  0.00     0.100 C 
HETATM   10  N   UNL     1      -7.298  -2.367 -34.210  1.00  0.00    -0.191 NA
HETATM   11  C   UNL     1      -8.906   0.425 -32.897  1.00  0.00     0.140 A 
HETATM   12  O   UNL     1      -9.175   1.737 -32.482  1.00  0.00    -0.277 OA
ENDROOT
BRANCH   7  13
HETATM   13  C   UNL     1      -5.305   0.637 -32.731  1.00  0.00    -0.027 A 
HETATM   14  C   UNL     1      -5.363   0.660 -31.337  1.00  0.00     0.124 A 
HETATM   15  N   UNL     1      -4.339   0.325 -30.520  1.00  0.00    -0.273 NA
HETATM   16  C   UNL     1      -3.188  -0.049 -31.114  1.00  0.00     0.116 A 
HETATM   17  C   UNL     1      -3.013  -0.098 -32.487  1.00  0.00     0.020 A 
HETATM   18  C   UNL     1      -4.085   0.253 -33.304  1.00  0.00     0.011 A 
ENDBRANCH   7  13
BRANCH  11  19
HETATM   19  N   UNL     1      -9.993  -0.410 -32.753  1.00  0.00    -0.282 NA
HETATM   20  H   UNL     1     -10.558  -0.269 -31.919  1.00  0.00     0.126 HD
HETATM   21  H   UNL     1     -10.545  -0.469 -33.606  1.00  0.00     0.126 HD
ENDBRANCH  11  19
BRANCH   1  22
HETATM   22  C   UNL     1      -4.888   3.985 -33.295  1.00  0.00    -0.007 A 
HETATM   23  C   UNL     1      -4.581   4.707 -34.455  1.00  0.00     0.016 A 
HETATM   24  C   UNL     1      -3.292   5.199 -34.655  1.00  0.00     0.037 A 
HETATM   25  C   UNL     1      -2.311   4.990 -33.687  1.00  0.00     0.069 A 
HETATM   26  C   UNL     1      -2.585   4.209 -32.565  1.00  0.00     0.037 A 
HETATM   27  C   UNL     1      -3.875   3.710 -32.369  1.00  0.00     0.016 A 
BRANCH  25  28
HETATM   28  O   UNL     1      -1.096   5.576 -33.910  1.00  0.00    -0.347 OA
BRANCH  28  29
HETATM   29  C   UNL     1      -1.119   6.993 -33.689  1.00  0.00     0.214 C 
BRANCH  29  30
HETATM   30  C   UNL     1      -0.932   7.274 -32.217  1.00  0.00    -0.034 A 
HETATM   31  C   UNL     1      -1.880   8.038 -31.518  1.00  0.00     0.009 A 
HETATM   32  C   UNL     1      -1.739   8.263 -30.148  1.00  0.00     0.001 A 
HETATM   33  C   UNL     1      -0.656   7.720 -29.460  1.00  0.00     0.000 A 
HETATM   34  C   UNL     1       0.288   6.952 -30.142  1.00  0.00     0.001 A 
HETATM   35  C   UNL     1       0.150   6.728 -31.514  1.00  0.00     0.009 A 
ENDBRANCH  29  30
ENDBRANCH  28  29
ENDBRANCH  25  28
ENDBRANCH   1  22
TORSDOF 6
ENDMDL
MODEL 4
REMARK VINA RESULT:      -8.5      4.397      5.978
REMARK  6 active torsions:
REMARK  status: ('A' for Active; 'I' for Inactive)
REMARK    1  A    between atoms: C_4  and  C_5 
REMARK    2  A    between atoms: C_5  and  O_6 
REMARK    3  A    between atoms: O_6  and  C_7 
REMARK    4  A    between atoms: C_10  and  C_11 
REMARK    5  A    between atoms: C_17  and  C_18 
REMARK    6  A    between atoms: C_27  and  N_28 
ROOT
HETATM    1  C   UNL     1      -5.280   6.168 -31.085  1.00  0.00     0.072 A 
HETATM    2  N   UNL     1      -6.368   6.976 -30.833  1.00  0.00    -0.274 N 
HETATM    3  H   UNL     1      -7.334   6.812 -31.096  1.00  0.00     0.189 HD
HETATM    4  N   UNL     1      -6.068   8.107 -30.160  1.00  0.00    -0.148 NA
HETATM    5  C   UNL     1      -4.757   7.993 -29.985  1.00  0.00     0.199 A 
HETATM    6  C   UNL     1      -4.200   6.834 -30.529  1.00  0.00     0.040 A 
HETATM    7  C   UNL     1      -2.737   6.576 -30.440  1.00  0.00     0.107 A 
HETATM    8  C   UNL     1      -2.030   7.707 -29.699  1.00  0.00     0.081 A 
HETATM    9  C   UNL     1      -0.629   7.551 -29.484  1.00  0.00     0.100 C 
HETATM   10  N   UNL     1       0.512   7.423 -29.315  1.00  0.00    -0.191 NA
HETATM   11  C   UNL     1      -2.685   8.793 -29.209  1.00  0.00     0.140 A 
HETATM   12  O   UNL     1      -4.069   8.963 -29.357  1.00  0.00    -0.277 OA
ENDROOT
BRANCH   7  13
HETATM   13  C   UNL     1      -2.249   6.383 -31.863  1.00  0.00    -0.027 A 
HETATM   14  C   UNL     1      -2.143   7.483 -32.715  1.00  0.00     0.124 A 
HETATM   15  N   UNL     1      -1.709   7.425 -33.993  1.00  0.00    -0.273 NA
HETATM   16  C   UNL     1      -1.365   6.208 -34.461  1.00  0.00     0.116 A 
HETATM   17  C   UNL     1      -1.440   5.047 -33.711  1.00  0.00     0.020 A 
HETATM   18  C   UNL     1      -1.891   5.137 -32.396  1.00  0.00     0.011 A 
ENDBRANCH   7  13
BRANCH  11  19
HETATM   19  N   UNL     1      -2.094   9.831 -28.522  1.00  0.00    -0.282 NA
HETATM   20  H   UNL     1      -1.473  10.429 -29.061  1.00  0.00     0.126 HD
HETATM   21  H   UNL     1      -2.767  10.351 -27.963  1.00  0.00     0.126 HD
ENDBRANCH  11  19
BRANCH   1  22
HETATM   22  C   UNL     1      -5.350   4.940 -31.860  1.00  0.00    -0.007 A 
HETATM   23  C   UNL     1      -5.269   3.697 -31.219  1.00  0.00     0.016 A 
HETATM   24  C   UNL     1      -5.488   2.522 -31.936  1.00  0.00     0.037 A 
HETATM   25  C   UNL     1      -5.811   2.585 -33.290  1.00  0.00     0.069 A 
HETATM   26  C   UNL     1      -5.820   3.810 -33.955  1.00  0.00     0.037 A 
HETATM   27  C   UNL     1      -5.593   4.987 -33.238  1.00  0.00     0.016 A 
BRANCH  25  28
HETATM   28  O   UNL     1      -6.099   1.399 -33.907  1.00  0.00    -0.347 OA
BRANCH  28  29
HETATM   29  C   UNL     1      -6.323   0.333 -32.973  1.00  0.00     0.214 C 
BRANCH  29  30
HETATM   30  C   UNL     1      -6.032  -0.989 -33.643  1.00  0.00    -0.034 A 
HETATM   31  C   UNL     1      -4.710  -1.450 -33.751  1.00  0.00     0.009 A 
HETATM   32  C   UNL     1      -4.436  -2.691 -34.326  1.00  0.00     0.001 A 
HETATM   33  C   UNL     1      -5.479  -3.489 -34.792  1.00  0.00     0.000 A 
HETATM   34  C   UNL     1      -6.797  -3.046 -34.683  1.00  0.00     0.001 A 
HETATM   35  C   UNL     1      -7.073  -1.803 -34.110  1.00  0.00     0.009 A 
ENDBRANCH  29  30
ENDBRANCH  28  29
ENDBRANCH  25  28
ENDBRANCH   1  22
TORSDOF 6
ENDMDL
MODEL 5
REMARK VINA RESULT:      -8.4      4.736      6.864
REMARK  6 active torsions:
REMARK  status: ('A' for Active; 'I' for Inactive)
REMARK    1  A    between atoms: C_4  and  C_5 
REMARK    2  A    between atoms: C_5  and  O_6 
REMARK    3  A    between atoms: O_6  and  C_7 
REMARK    4  A    between atoms: C_10  and  C_11 
REMARK    5  A    between atoms: C_17  and  C_18 
REMARK    6  A    between atoms: C_27  and  N_28 
ROOT
HETATM    1  C   UNL     1      -4.173   6.818 -30.337  1.00  0.00     0.072 A 
HETATM    2  N   UNL     1      -4.527   7.990 -29.705  1.00  0.00    -0.274 N 
HETATM    3  H   UNL     1      -5.452   8.403 -29.639  1.00  0.00     0.189 HD
HETATM    4  N   UNL     1      -3.494   8.634 -29.123  1.00  0.00    -0.148 NA
HETATM    5  C   UNL     1      -2.470   7.835 -29.398  1.00  0.00     0.199 A 
HETATM    6  C   UNL     1      -2.806   6.704 -30.144  1.00  0.00     0.040 A 
HETATM    7  C   UNL     1      -1.763   5.725 -30.557  1.00  0.00     0.107 A 
HETATM    8  C   UNL     1      -0.390   6.147 -30.046  1.00  0.00     0.081 A 
HETATM    9  C   UNL     1       0.693   5.258 -30.315  1.00  0.00     0.100 C 
HETATM   10  N   UNL     1       1.571   4.535 -30.540  1.00  0.00    -0.191 NA
HETATM   11  C   UNL     1      -0.186   7.280 -29.321  1.00  0.00     0.140 A 
HETATM   12  O   UNL     1      -1.229   8.157 -28.994  1.00  0.00    -0.277 OA
ENDROOT
BRANCH   7  13
HETATM   13  C   UNL     1      -1.845   5.623 -32.068  1.00  0.00    -0.027 A 
HETATM   14  C   UNL     1      -1.485   6.717 -32.856  1.00  0.00     0.124 A 
HETATM   15  N   UNL     1      -1.509   6.730 -34.208  1.00  0.00    -0.273 NA
HETATM   16  C   UNL     1      -1.918   5.599 -34.817  1.00  0.00     0.116 A 
HETATM   17  C   UNL     1      -2.309   4.458 -34.137  1.00  0.00     0.020 A 
HETATM   18  C   UNL     1      -2.274   4.473 -32.744  1.00  0.00     0.011 A 
ENDBRANCH   7  13
BRANCH  11  19
HETATM   19  N   UNL     1       1.031   7.695 -28.826  1.00  0.00    -0.282 NA
HETATM   20  H   UNL     1       1.158   7.610 -27.820  1.00  0.00     0.126 HD
HETATM   21  H   UNL     1       1.810   7.320 -29.362  1.00  0.00     0.126 HD
ENDBRANCH  11  19
BRANCH   1  22
HETATM   22  C   UNL     1      -5.103   5.998 -31.097  1.00  0.00    -0.007 A 
HETATM   23  C   UNL     1      -5.459   6.363 -32.401  1.00  0.00     0.016 A 
HETATM   24  C   UNL     1      -6.227   5.503 -33.186  1.00  0.00     0.037 A 
HETATM   25  C   UNL     1      -6.622   4.267 -32.678  1.00  0.00     0.069 A 
HETATM   26  C   UNL     1      -6.338   3.926 -31.357  1.00  0.00     0.037 A 
HETATM   27  C   UNL     1      -5.575   4.791 -30.569  1.00  0.00     0.016 A 
BRANCH  25  28
HETATM   28  O   UNL     1      -7.297   3.441 -33.533  1.00  0.00    -0.347 OA
BRANCH  28  29
HETATM   29  C   UNL     1      -6.426   2.781 -34.463  1.00  0.00     0.214 C 
BRANCH  29  30
HETATM   30  C   UNL     1      -6.510   1.288 -34.255  1.00  0.00    -0.034 A 
HETATM   31  C   UNL     1      -7.223   0.488 -35.162  1.00  0.00     0.009 A 
HETATM   32  C   UNL     1      -7.268  -0.898 -35.003  1.00  0.00     0.001 A 
HETATM   33  C   UNL     1      -6.594  -1.500 -33.942  1.00  0.00     0.000 A 
HETATM   34  C   UNL     1      -5.876  -0.717 -33.040  1.00  0.00     0.001 A 
HETATM   35  C   UNL     1      -5.832   0.671 -33.195  1.00  0.00     0.009 A 
ENDBRANCH  29  30
ENDBRANCH  28  29
ENDBRANCH  25  28
ENDBRANCH   1  22
TORSDOF 6
ENDMDL
MODEL 6
REMARK VINA RESULT:      -8.4      4.001      6.014
REMARK  6 active torsions:
REMARK  status: ('A' for Active; 'I' for Inactive)
REMARK    1  A    between atoms: C_4  and  C_5 
REMARK    2  A    between atoms: C_5  and  O_6 
REMARK    3  A    between atoms: O_6  and  C_7 
REMARK    4  A    between atoms: C_10  and  C_11 
REMARK    5  A    between atoms: C_17  and  C_18 
REMARK    6  A    between atoms: C_27  and  N_28 
ROOT
HETATM    1  C   UNL     1     -12.809   0.898 -33.588  1.00  0.00     0.072 A 
HETATM    2  N   UNL     1     -13.577  -0.064 -34.208  1.00  0.00    -0.274 N 
HETATM    3  H   UNL     1     -13.254  -0.883 -34.714  1.00  0.00     0.189 HD
HETATM    4  N   UNL     1     -14.906   0.149 -34.112  1.00  0.00    -0.148 NA
HETATM    5  C   UNL     1     -14.963   1.272 -33.406  1.00  0.00     0.199 A 
HETATM    6  C   UNL     1     -13.718   1.795 -33.053  1.00  0.00     0.040 A 
HETATM    7  C   UNL     1     -13.615   3.066 -32.285  1.00  0.00     0.107 A 
HETATM    8  C   UNL     1     -14.999   3.628 -31.976  1.00  0.00     0.081 A 
HETATM    9  C   UNL     1     -15.045   4.813 -31.183  1.00  0.00     0.100 C 
HETATM   10  N   UNL     1     -15.077   5.779 -30.542  1.00  0.00    -0.191 NA
HETATM   11  C   UNL     1     -16.149   3.022 -32.375  1.00  0.00     0.140 A 
HETATM   12  O   UNL     1     -16.151   1.832 -33.115  1.00  0.00    -0.277 OA
ENDROOT
BRANCH   7  13
HETATM   13  C   UNL     1     -12.752   3.998 -33.113  1.00  0.00    -0.027 A 
HETATM   14  C   UNL     1     -11.564   4.499 -32.579  1.00  0.00     0.124 A 
HETATM   15  N   UNL     1     -10.716   5.325 -33.233  1.00  0.00    -0.273 NA
HETATM   16  C   UNL     1     -11.065   5.682 -34.485  1.00  0.00     0.116 A 
HETATM   17  C   UNL     1     -12.224   5.255 -35.111  1.00  0.00     0.020 A 
HETATM   18  C   UNL     1     -13.079   4.406 -34.414  1.00  0.00     0.011 A 
ENDBRANCH   7  13
BRANCH  11  19
HETATM   19  N   UNL     1     -17.421   3.482 -32.108  1.00  0.00    -0.282 NA
HETATM   20  H   UNL     1     -17.612   4.446 -32.371  1.00  0.00     0.126 HD
HETATM   21  H   UNL     1     -18.137   2.831 -32.422  1.00  0.00     0.126 HD
ENDBRANCH  11  19
BRANCH   1  22
HETATM   22  C   UNL     1     -11.356   0.918 -33.627  1.00  0.00    -0.007 A 
HETATM   23  C   UNL     1     -10.617   0.088 -32.774  1.00  0.00     0.016 A 
HETATM   24  C   UNL     1      -9.233  -0.009 -32.914  1.00  0.00     0.037 A 
HETATM   25  C   UNL     1      -8.586   0.706 -33.919  1.00  0.00     0.069 A 
HETATM   26  C   UNL     1      -9.299   1.593 -34.724  1.00  0.00     0.037 A 
HETATM   27  C   UNL     1     -10.685   1.695 -34.579  1.00  0.00     0.016 A 
BRANCH  25  28
HETATM   28  O   UNL     1      -7.241   0.494 -34.053  1.00  0.00    -0.347 OA
BRANCH  28  29
HETATM   29  C   UNL     1      -6.725  -0.406 -33.062  1.00  0.00     0.214 C 
BRANCH  29  30
HETATM   30  C   UNL     1      -6.227  -1.662 -33.738  1.00  0.00    -0.034 A 
HETATM   31  C   UNL     1      -7.140  -2.596 -34.251  1.00  0.00     0.009 A 
HETATM   32  C   UNL     1      -6.690  -3.736 -34.918  1.00  0.00     0.001 A 
HETATM   33  C   UNL     1      -5.323  -3.951 -35.086  1.00  0.00     0.000 A 
HETATM   34  C   UNL     1      -4.407  -3.026 -34.588  1.00  0.00     0.001 A 
HETATM   35  C   UNL     1      -4.856  -1.885 -33.918  1.00  0.00     0.009 A 
ENDBRANCH  29  30
ENDBRANCH  28  29
ENDBRANCH  25  28
ENDBRANCH   1  22
TORSDOF 6
ENDMDL
MODEL 7
REMARK VINA RESULT:      -8.4      3.551      6.622
REMARK  6 active torsions:
REMARK  status: ('A' for Active; 'I' for Inactive)
REMARK    1  A    between atoms: C_4  and  C_5 
REMARK    2  A    between atoms: C_5  and  O_6 
REMARK    3  A    between atoms: O_6  and  C_7 
REMARK    4  A    between atoms: C_10  and  C_11 
REMARK    5  A    between atoms: C_17  and  C_18 
REMARK    6  A    between atoms: C_27  and  N_28 
ROOT
HETATM    1  C   UNL     1      -5.666   1.234 -32.212  1.00  0.00     0.072 A 
HETATM    2  N   UNL     1      -5.131   0.387 -31.265  1.00  0.00    -0.274 N 
HETATM    3  H   UNL     1      -5.533  -0.474 -30.907  1.00  0.00     0.189 HD
HETATM    4  N   UNL     1      -3.938   0.790 -30.780  1.00  0.00    -0.148 NA
HETATM    5  C   UNL     1      -3.724   1.915 -31.451  1.00  0.00     0.199 A 
HETATM    6  C   UNL     1      -4.742   2.257 -32.343  1.00  0.00     0.040 A 
HETATM    7  C   UNL     1      -4.662   3.507 -33.148  1.00  0.00     0.107 A 
HETATM    8  C   UNL     1      -3.372   4.264 -32.849  1.00  0.00     0.081 A 
HETATM    9  C   UNL     1      -3.139   5.450 -33.606  1.00  0.00     0.100 C 
HETATM   10  N   UNL     1      -2.954   6.417 -34.221  1.00  0.00    -0.191 NA
HETATM   11  C   UNL     1      -2.448   3.826 -31.953  1.00  0.00     0.140 A 
HETATM   12  O   UNL     1      -2.617   2.642 -31.222  1.00  0.00    -0.277 OA
ENDROOT
BRANCH   7  13
HETATM   13  C   UNL     1      -5.918   4.298 -32.836  1.00  0.00    -0.027 A 
HETATM   14  C   UNL     1      -6.109   4.818 -31.555  1.00  0.00     0.124 A 
HETATM   15  N   UNL     1      -7.183   5.545 -31.174  1.00  0.00    -0.273 NA
HETATM   16  C   UNL     1      -8.127   5.768 -32.111  1.00  0.00     0.116 A 
HETATM   17  C   UNL     1      -8.048   5.292 -33.409  1.00  0.00     0.020 A 
HETATM   18  C   UNL     1      -6.931   4.545 -33.773  1.00  0.00     0.011 A 
ENDBRANCH   7  13
BRANCH  11  19
HETATM   19  N   UNL     1      -1.263   4.467 -31.660  1.00  0.00    -0.282 NA
HETATM   20  H   UNL     1      -1.208   5.448 -31.922  1.00  0.00     0.126 HD
HETATM   21  H   UNL     1      -0.958   4.288 -30.706  1.00  0.00     0.126 HD
ENDBRANCH  11  19
BRANCH   1  22
HETATM   22  C   UNL     1      -6.976   1.045 -32.815  1.00  0.00    -0.007 A 
HETATM   23  C   UNL     1      -8.136   1.273 -32.064  1.00  0.00     0.016 A 
HETATM   24  C   UNL     1      -9.387   1.242 -32.678  1.00  0.00     0.037 A 
HETATM   25  C   UNL     1      -9.482   1.007 -34.048  1.00  0.00     0.069 A 
HETATM   26  C   UNL     1      -8.342   0.705 -34.791  1.00  0.00     0.037 A 
HETATM   27  C   UNL     1      -7.089   0.729 -34.174  1.00  0.00     0.016 A 
BRANCH  25  28
HETATM   28  O   UNL     1     -10.733   1.079 -34.596  1.00  0.00    -0.347 OA
BRANCH  28  29
HETATM   29  C   UNL     1     -11.417   2.292 -34.250  1.00  0.00     0.214 C 
BRANCH  29  30
HETATM   30  C   UNL     1     -12.837   1.969 -33.851  1.00  0.00    -0.034 A 
HETATM   31  C   UNL     1     -13.448   2.658 -32.791  1.00  0.00     0.009 A 
HETATM   32  C   UNL     1     -14.775   2.400 -32.447  1.00  0.00     0.001 A 
HETATM   33  C   UNL     1     -15.508   1.455 -33.161  1.00  0.00     0.000 A 
HETATM   34  C   UNL     1     -14.916   0.769 -34.221  1.00  0.00     0.001 A 
HETATM   35  C   UNL     1     -13.587   1.025 -34.566  1.00  0.00     0.009 A 
ENDBRANCH  29  30
ENDBRANCH  28  29
ENDBRANCH  25  28
ENDBRANCH   1  22
TORSDOF 6
ENDMDL
MODEL 8
REMARK VINA RESULT:      -8.0      6.150      9.394
REMARK  6 active torsions:
REMARK  status: ('A' for Active; 'I' for Inactive)
REMARK    1  A    between atoms: C_4  and  C_5 
REMARK    2  A    between atoms: C_5  and  O_6 
REMARK    3  A    between atoms: O_6  and  C_7 
REMARK    4  A    between atoms: C_10  and  C_11 
REMARK    5  A    between atoms: C_17  and  C_18 
REMARK    6  A    between atoms: C_27  and  N_28 
ROOT
HETATM    1  C   UNL     1      -3.008   5.613 -33.462  1.00  0.00     0.072 A 
HETATM    2  N   UNL     1      -2.978   5.666 -34.839  1.00  0.00    -0.274 N 
HETATM    3  H   UNL     1      -2.205   5.955 -35.431  1.00  0.00     0.189 HD
HETATM    4  N   UNL     1      -4.131   5.285 -35.428  1.00  0.00    -0.148 NA
HETATM    5  C   UNL     1      -4.895   4.982 -34.386  1.00  0.00     0.199 A 
HETATM    6  C   UNL     1      -4.279   5.163 -33.147  1.00  0.00     0.040 A 
HETATM    7  C   UNL     1      -5.017   4.893 -31.882  1.00  0.00     0.107 A 
HETATM    8  C   UNL     1      -6.435   4.415 -32.172  1.00  0.00     0.081 A 
HETATM    9  C   UNL     1      -7.231   4.055 -31.044  1.00  0.00     0.100 C 
HETATM   10  N   UNL     1      -7.876   3.768 -30.124  1.00  0.00    -0.191 NA
HETATM   11  C   UNL     1      -6.926   4.275 -33.433  1.00  0.00     0.140 A 
HETATM   12  O   UNL     1      -6.163   4.573 -34.570  1.00  0.00    -0.277 OA
ENDROOT
BRANCH   7  13
HETATM   13  C   UNL     1      -4.961   6.174 -31.072  1.00  0.00    -0.027 A 
HETATM   14  C   UNL     1      -5.612   7.317 -31.537  1.00  0.00     0.124 A 
HETATM   15  N   UNL     1      -5.636   8.504 -30.891  1.00  0.00    -0.273 NA
HETATM   16  C   UNL     1      -4.972   8.569 -29.719  1.00  0.00     0.116 A 
HETATM   17  C   UNL     1      -4.282   7.502 -29.167  1.00  0.00     0.020 A 
HETATM   18  C   UNL     1      -4.274   6.292 -29.855  1.00  0.00     0.011 A 
ENDBRANCH   7  13
BRANCH  11  19
HETATM   19  N   UNL     1      -8.194   3.834 -33.745  1.00  0.00    -0.282 NA
HETATM   20  H   UNL     1      -8.752   4.452 -34.328  1.00  0.00     0.126 HD
HETATM   21  H   UNL     1      -8.193   2.869 -34.068  1.00  0.00     0.126 HD
ENDBRANCH  11  19
BRANCH   1  22
HETATM   22  C   UNL     1      -1.910   6.049 -32.614  1.00  0.00    -0.007 A 
HETATM   23  C   UNL     1      -1.774   7.402 -32.280  1.00  0.00     0.016 A 
HETATM   24  C   UNL     1      -0.818   7.802 -31.347  1.00  0.00     0.037 A 
HETATM   25  C   UNL     1      -0.011   6.850 -30.729  1.00  0.00     0.069 A 
HETATM   26  C   UNL     1      -0.085   5.510 -31.108  1.00  0.00     0.037 A 
HETATM   27  C   UNL     1      -1.038   5.111 -32.048  1.00  0.00     0.016 A 
BRANCH  25  28
HETATM   28  O   UNL     1       0.842   7.304 -29.762  1.00  0.00    -0.347 OA
BRANCH  28  29
HETATM   29  C   UNL     1       0.445   6.901 -28.443  1.00  0.00     0.214 C 
BRANCH  29  30
HETATM   30  C   UNL     1       0.853   7.964 -27.450  1.00  0.00    -0.034 A 
HETATM   31  C   UNL     1       0.234   9.224 -27.470  1.00  0.00     0.009 A 
HETATM   32  C   UNL     1       0.571  10.195 -26.527  1.00  0.00     0.001 A 
HETATM   33  C   UNL     1       1.525   9.916 -25.550  1.00  0.00     0.000 A 
HETATM   34  C   UNL     1       2.141   8.666 -25.515  1.00  0.00     0.001 A 
HETATM   35  C   UNL     1       1.806   7.692 -26.460  1.00  0.00     0.009 A 
ENDBRANCH  29  30
ENDBRANCH  28  29
ENDBRANCH  25  28
ENDBRANCH   1  22
TORSDOF 6
ENDMDL
MODEL 9
REMARK VINA RESULT:      -8.0      2.762      3.896
REMARK  6 active torsions:
REMARK  status: ('A' for Active; 'I' for Inactive)
REMARK    1  A    between atoms: C_4  and  C_5 
REMARK    2  A    between atoms: C_5  and  O_6 
REMARK    3  A    between atoms: O_6  and  C_7 
REMARK    4  A    between atoms: C_10  and  C_11 
REMARK    5  A    between atoms: C_17  and  C_18 
REMARK    6  A    between atoms: C_27  and  N_28 
ROOT
HETATM    1  C   UNL     1      -9.666   4.024 -32.624  1.00  0.00     0.072 A 
HETATM    2  N   UNL     1      -9.149   4.697 -31.539  1.00  0.00    -0.274 N 
HETATM    3  H   UNL     1      -8.466   4.358 -30.868  1.00  0.00     0.189 HD
HETATM    4  N   UNL     1      -9.637   5.946 -31.384  1.00  0.00    -0.148 NA
HETATM    5  C   UNL     1     -10.477   6.051 -32.406  1.00  0.00     0.199 A 
HETATM    6  C   UNL     1     -10.554   4.911 -33.209  1.00  0.00     0.040 A 
HETATM    7  C   UNL     1     -11.474   4.864 -34.379  1.00  0.00     0.107 A 
HETATM    8  C   UNL     1     -12.233   6.178 -34.526  1.00  0.00     0.081 A 
HETATM    9  C   UNL     1     -13.102   6.290 -35.652  1.00  0.00     0.100 C 
HETATM   10  N   UNL     1     -13.810   6.375 -36.567  1.00  0.00    -0.191 NA
HETATM   11  C   UNL     1     -12.070   7.226 -33.676  1.00  0.00     0.140 A 
HETATM   12  O   UNL     1     -11.193   7.175 -32.584  1.00  0.00    -0.277 OA
ENDROOT
BRANCH   7  13
HETATM   13  C   UNL     1     -12.374   3.661 -34.167  1.00  0.00    -0.027 A 
HETATM   14  C   UNL     1     -13.245   3.631 -33.078  1.00  0.00     0.124 A 
HETATM   15  N   UNL     1     -14.097   2.618 -32.804  1.00  0.00    -0.273 NA
HETATM   16  C   UNL     1     -14.082   1.569 -33.650  1.00  0.00     0.116 A 
HETATM   17  C   UNL     1     -13.251   1.485 -34.755  1.00  0.00     0.020 A 
HETATM   18  C   UNL     1     -12.385   2.544 -35.014  1.00  0.00     0.011 A 
ENDBRANCH   7  13
BRANCH  11  19
HETATM   19  N   UNL     1     -12.722   8.436 -33.776  1.00  0.00    -0.282 NA
HETATM   20  H   UNL     1     -12.170   9.214 -34.130  1.00  0.00     0.126 HD
HETATM   21  H   UNL     1     -13.627   8.346 -34.233  1.00  0.00     0.126 HD
ENDBRANCH  11  19
BRANCH   1  22
HETATM   22  C   UNL     1      -9.347   2.641 -32.943  1.00  0.00    -0.007 A 
HETATM   23  C   UNL     1      -8.763   2.321 -34.175  1.00  0.00     0.016 A 
HETATM   24  C   UNL     1      -8.316   1.024 -34.424  1.00  0.00     0.037 A 
HETATM   25  C   UNL     1      -8.429   0.049 -33.435  1.00  0.00     0.069 A 
HETATM   26  C   UNL     1      -9.076   0.337 -32.234  1.00  0.00     0.037 A 
HETATM   27  C   UNL     1      -9.531   1.635 -31.988  1.00  0.00     0.016 A 
BRANCH  25  28
HETATM   28  O   UNL     1      -7.890  -1.175 -33.717  1.00  0.00    -0.347 OA
BRANCH  28  29
HETATM   29  C   UNL     1      -6.678  -1.081 -34.479  1.00  0.00     0.214 C 
BRANCH  29  30
HETATM   30  C   UNL     1      -5.998  -2.429 -34.507  1.00  0.00    -0.034 A 
HETATM   31  C   UNL     1      -4.677  -2.564 -34.051  1.00  0.00     0.009 A 
HETATM   32  C   UNL     1      -4.057  -3.813 -34.030  1.00  0.00     0.001 A 
HETATM   33  C   UNL     1      -4.752  -4.943 -34.456  1.00  0.00     0.000 A 
HETATM   34  C   UNL     1      -6.067  -4.824 -34.903  1.00  0.00     0.001 A 
HETATM   35  C   UNL     1      -6.689  -3.574 -34.927  1.00  0.00     0.009 A 
ENDBRANCH  29  30
ENDBRANCH  28  29
ENDBRANCH  25  28
ENDBRANCH   1  22
TORSDOF 6
ENDMDL
MODEL 10
REMARK VINA RESULT:      -7.8      1.831      2.621
REMARK  6 active torsions:
REMARK  status: ('A' for Active; 'I' for Inactive)
REMARK    1  A    between atoms: C_4  and  C_5 
REMARK    2  A    between atoms: C_5  and  O_6 
REMARK    3  A    between atoms: O_6  and  C_7 
REMARK    4  A    between atoms: C_10  and  C_11 
REMARK    5  A    between atoms: C_17  and  C_18 
REMARK    6  A    between atoms: C_27  and  N_28 
ROOT
HETATM    1  C   UNL     1      -5.695   4.624 -29.346  1.00  0.00     0.072 A 
HETATM    2  N   UNL     1      -5.309   4.750 -28.029  1.00  0.00    -0.274 N 
HETATM    3  H   UNL     1      -4.678   4.149 -27.509  1.00  0.00     0.189 HD
HETATM    4  N   UNL     1      -5.862   5.805 -27.394  1.00  0.00    -0.148 NA
HETATM    5  C   UNL     1      -6.606   6.352 -28.347  1.00  0.00     0.199 A 
HETATM    6  C   UNL     1      -6.561   5.682 -29.570  1.00  0.00     0.040 A 
HETATM    7  C   UNL     1      -7.365   6.156 -30.730  1.00  0.00     0.107 A 
HETATM    8  C   UNL     1      -8.162   7.404 -30.364  1.00  0.00     0.081 A 
HETATM    9  C   UNL     1      -8.926   8.002 -31.410  1.00  0.00     0.100 C 
HETATM   10  N   UNL     1      -9.549   8.484 -32.261  1.00  0.00    -0.191 NA
HETATM   11  C   UNL     1      -8.123   7.971 -29.129  1.00  0.00     0.140 A 
HETATM   12  O   UNL     1      -7.349   7.442 -28.087  1.00  0.00    -0.277 OA
ENDROOT
BRANCH   7  13
HETATM   13  C   UNL     1      -8.229   4.986 -31.159  1.00  0.00    -0.027 A 
HETATM   14  C   UNL     1      -9.215   4.501 -30.299  1.00  0.00     0.124 A 
HETATM   15  N   UNL     1     -10.047   3.474 -30.585  1.00  0.00    -0.273 NA
HETATM   16  C   UNL     1      -9.892   2.888 -31.789  1.00  0.00     0.116 A 
HETATM   17  C   UNL     1      -8.941   3.277 -32.717  1.00  0.00     0.020 A 
HETATM   18  C   UNL     1      -8.097   4.338 -32.395  1.00  0.00     0.011 A 
ENDBRANCH   7  13
BRANCH  11  19
HETATM   19  N   UNL     1      -8.812   9.104 -28.755  1.00  0.00    -0.282 NA
HETATM   20  H   UNL     1      -9.322   9.582 -29.494  1.00  0.00     0.126 HD
HETATM   21  H   UNL     1      -9.369   8.954 -27.917  1.00  0.00     0.126 HD
ENDBRANCH  11  19
BRANCH   1  22
HETATM   22  C   UNL     1      -5.290   3.522 -30.204  1.00  0.00    -0.007 A 
HETATM   23  C   UNL     1      -5.895   2.266 -30.069  1.00  0.00     0.016 A 
HETATM   24  C   UNL     1      -5.621   1.253 -30.986  1.00  0.00     0.037 A 
HETATM   25  C   UNL     1      -4.759   1.496 -32.053  1.00  0.00     0.069 A 
HETATM   26  C   UNL     1      -4.093   2.717 -32.154  1.00  0.00     0.037 A 
HETATM   27  C   UNL     1      -4.362   3.730 -31.231  1.00  0.00     0.016 A 
BRANCH  25  28
HETATM   28  O   UNL     1      -4.606   0.485 -32.960  1.00  0.00    -0.347 OA
BRANCH  28  29
HETATM   29  C   UNL     1      -5.857   0.043 -33.508  1.00  0.00     0.214 C 
BRANCH  29  30
HETATM   30  C   UNL     1      -5.739  -1.406 -33.918  1.00  0.00    -0.034 A 
HETATM   31  C   UNL     1      -6.871  -2.108 -34.361  1.00  0.00     0.009 A 
HETATM   32  C   UNL     1      -6.763  -3.433 -34.786  1.00  0.00     0.001 A 
HETATM   33  C   UNL     1      -5.523  -4.067 -34.780  1.00  0.00     0.000 A 
HETATM   34  C   UNL     1      -4.390  -3.378 -34.349  1.00  0.00     0.001 A 
HETATM   35  C   UNL     1      -4.496  -2.053 -33.921  1.00  0.00     0.009 A 
ENDBRANCH  29  30
ENDBRANCH  28  29
ENDBRANCH  25  28
ENDBRANCH   1  22
TORSDOF 6
ENDMDL
