MODEL 1
REMARK VINA RESULT:      -8.5      0.000      0.000
REMARK  5 active torsions:
REMARK  status: ('A' for Active; 'I' for Inactive)
REMARK    1  A    between atoms: C_8  and  C_9 
REMARK    2  A    between atoms: N_10  and  N_11 
REMARK       I    between atoms: N_11  and  C_12 
REMARK    3  A    between atoms: C_12  and  C_13 
REMARK    4  A    between atoms: C_13  and  N_14 
REMARK    5  A    between atoms: N_14  and  C_15 
ROOT
HETATM    1  N   UNL     1      -8.920   1.259 -34.930  1.00  0.00    -0.246 N 
HETATM    2  C   UNL     1      -9.066   2.490 -34.282  1.00  0.00     0.255 C 
HETATM    3  O   UNL     1      -8.207   3.041 -33.599  1.00  0.00    -0.270 OA
HETATM    4  H   UNL     1      -9.528   1.073 -35.722  1.00  0.00     0.192 HD
ENDROOT
BRANCH   1   5
HETATM    5  N   UNL     1      -7.747   0.538 -34.960  1.00  0.00    -0.184 NA
HETATM    6  C   UNL     1      -7.481  -0.210 -33.934  1.00  0.00     0.152 C 
BRANCH   6   7
HETATM    7  C   UNL     1      -6.234  -0.945 -33.879  1.00  0.00     0.011 A 
HETATM    8  C   UNL     1      -6.035  -2.323 -34.218  1.00  0.00     0.004 A 
HETATM    9  C   UNL     1      -6.879  -3.354 -34.683  1.00  0.00     0.014 A 
HETATM   10  C   UNL     1      -4.686  -2.616 -34.007  1.00  0.00     0.043 A 
HETATM   11  C   UNL     1      -6.350  -4.628 -34.919  1.00  0.00     0.001 A 
HETATM   12  C   UNL     1      -4.999  -4.886 -34.699  1.00  0.00     0.002 A 
HETATM   13  C   UNL     1      -4.141  -3.884 -34.237  1.00  0.00     0.030 A 
HETATM   14  N   UNL     1      -4.087  -1.461 -33.558  1.00  0.00    -0.364 N 
HETATM   15  H   UNL     1      -3.109  -1.380 -33.318  1.00  0.00     0.165 HD
HETATM   16  C   UNL     1      -5.006  -0.451 -33.480  1.00  0.00     0.102 A 
ENDBRANCH   6   7
ENDBRANCH   1   5
BRANCH   2  17
HETATM   17  C   UNL     1     -10.435   3.127 -34.532  1.00  0.00     0.224 C 
BRANCH  17  18
HETATM   18  N   UNL     1     -11.419   2.115 -34.922  1.00  0.00    -0.381 N 
HETATM   19  H   UNL     1     -11.503   1.951 -35.921  1.00  0.00     0.160 HD
BRANCH  18  20
HETATM   20  C   UNL     1     -12.603   1.950 -34.210  1.00  0.00     0.028 A 
HETATM   21  C   UNL     1     -12.895   2.856 -33.177  1.00  0.00     0.032 A 
HETATM   22  C   UNL     1     -14.104   2.799 -32.478  1.00  0.00     0.044 A 
HETATM   23  C   UNL     1     -15.047   1.845 -32.825  1.00  0.00     0.116 A 
HETATM   24  F   UNL     1     -16.212   1.792 -32.166  1.00  0.00    -0.206 F 
HETATM   25  C   UNL     1     -14.804   0.954 -33.860  1.00  0.00     0.044 A 
HETATM   26  C   UNL     1     -13.591   1.015 -34.554  1.00  0.00     0.032 A 
ENDBRANCH  18  20
ENDBRANCH  17  18
ENDBRANCH   2  17
TORSDOF 5
ENDMDL
MODEL 2
REMARK VINA RESULT:      -8.1      7.511      9.922
REMARK  5 active torsions:
REMARK  status: ('A' for Active; 'I' for Inactive)
REMARK    1  A    between atoms: C_8  and  C_9 
REMARK    2  A    between atoms: N_10  and  N_11 
REMARK       I    between atoms: N_11  and  C_12 
REMARK    3  A    between atoms: C_12  and  C_13 
REMARK    4  A    between atoms: C_13  and  N_14 
REMARK    5  A    between atoms: N_14  and  C_15 
ROOT
HETATM    1  N   UNL     1      -3.088   3.538 -31.127  1.00  0.00    -0.246 N 
HETATM    2  C   UNL     1      -2.579   4.603 -31.876  1.00  0.00     0.255 C 
HETATM    3  O   UNL     1      -1.898   4.497 -32.893  1.00  0.00    -0.270 OA
HETATM    4  H   UNL     1      -3.898   3.724 -30.541  1.00  0.00     0.192 HD
ENDROOT
BRANCH   1   5
HETATM    5  N   UNL     1      -2.967   2.214 -31.486  1.00  0.00    -0.184 NA
HETATM    6  C   UNL     1      -4.009   1.638 -32.001  1.00  0.00     0.152 C 
BRANCH   6   7
HETATM    7  C   UNL     1      -3.962   0.231 -32.341  1.00  0.00     0.011 A 
HETATM    8  C   UNL     1      -4.829  -0.461 -33.249  1.00  0.00     0.004 A 
HETATM    9  C   UNL     1      -5.917  -0.073 -34.060  1.00  0.00     0.014 A 
HETATM   10  C   UNL     1      -4.435  -1.801 -33.265  1.00  0.00     0.043 A 
HETATM   11  C   UNL     1      -6.566  -1.028 -34.851  1.00  0.00     0.001 A 
HETATM   12  C   UNL     1      -6.148  -2.356 -34.843  1.00  0.00     0.002 A 
HETATM   13  C   UNL     1      -5.074  -2.769 -34.049  1.00  0.00     0.030 A 
HETATM   14  N   UNL     1      -3.371  -1.920 -32.401  1.00  0.00    -0.364 N 
HETATM   15  H   UNL     1      -2.884  -2.784 -32.209  1.00  0.00     0.165 HD
HETATM   16  C   UNL     1      -3.077  -0.706 -31.843  1.00  0.00     0.102 A 
ENDBRANCH   6   7
ENDBRANCH   1   5
BRANCH   2  17
HETATM   17  C   UNL     1      -2.983   5.966 -31.310  1.00  0.00     0.224 C 
BRANCH  17  18
HETATM   18  N   UNL     1      -2.649   6.061 -29.887  1.00  0.00    -0.381 N 
HETATM   19  H   UNL     1      -3.443   6.145 -29.258  1.00  0.00     0.160 HD
BRANCH  18  20
HETATM   20  C   UNL     1      -1.503   6.724 -29.459  1.00  0.00     0.028 A 
HETATM   21  C   UNL     1      -1.638   8.013 -28.917  1.00  0.00     0.032 A 
HETATM   22  C   UNL     1      -0.541   8.701 -28.392  1.00  0.00     0.044 A 
HETATM   23  C   UNL     1       0.704   8.091 -28.382  1.00  0.00     0.116 A 
HETATM   24  F   UNL     1       1.757   8.741 -27.870  1.00  0.00    -0.206 F 
HETATM   25  C   UNL     1       0.867   6.807 -28.881  1.00  0.00     0.044 A 
HETATM   26  C   UNL     1      -0.235   6.125 -29.408  1.00  0.00     0.032 A 
ENDBRANCH  18  20
ENDBRANCH  17  18
ENDBRANCH   2  17
TORSDOF 5
ENDMDL
MODEL 3
REMARK VINA RESULT:      -8.1      5.647      7.203
REMARK  5 active torsions:
REMARK  status: ('A' for Active; 'I' for Inactive)
REMARK    1  A    between atoms: C_8  and  C_9 
REMARK    2  A    between atoms: N_10  and  N_11 
REMARK       I    between atoms: N_11  and  C_12 
REMARK    3  A    between atoms: C_12  and  C_13 
REMARK    4  A    between atoms: C_13  and  N_14 
REMARK    5  A    between atoms: N_14  and  C_15 
ROOT
HETATM    1  N   UNL     1      -5.822   1.709 -33.057  1.00  0.00    -0.246 N 
HETATM    2  C   UNL     1      -6.445   2.497 -32.085  1.00  0.00     0.255 C 
HETATM    3  O   UNL     1      -6.888   2.088 -31.014  1.00  0.00    -0.270 OA
HETATM    4  H   UNL     1      -5.202   2.178 -33.712  1.00  0.00     0.192 HD
ENDROOT
BRANCH   1   5
HETATM    5  N   UNL     1      -5.539   0.371 -32.901  1.00  0.00    -0.184 NA
HETATM    6  C   UNL     1      -4.289   0.023 -32.890  1.00  0.00     0.152 C 
BRANCH   6   7
HETATM    7  C   UNL     1      -3.929  -1.376 -32.791  1.00  0.00     0.011 A 
HETATM    8  C   UNL     1      -4.462  -2.455 -33.569  1.00  0.00     0.004 A 
HETATM    9  C   UNL     1      -5.416  -2.545 -34.605  1.00  0.00     0.014 A 
HETATM   10  C   UNL     1      -3.844  -3.630 -33.133  1.00  0.00     0.043 A 
HETATM   11  C   UNL     1      -5.715  -3.793 -35.164  1.00  0.00     0.001 A 
HETATM   12  C   UNL     1      -5.081  -4.945 -34.706  1.00  0.00     0.002 A 
HETATM   13  C   UNL     1      -4.133  -4.886 -33.680  1.00  0.00     0.030 A 
HETATM   14  N   UNL     1      -2.971  -3.280 -32.129  1.00  0.00    -0.364 N 
HETATM   15  H   UNL     1      -2.389  -3.933 -31.623  1.00  0.00     0.165 HD
HETATM   16  C   UNL     1      -3.012  -1.929 -31.917  1.00  0.00     0.102 A 
ENDBRANCH   6   7
ENDBRANCH   1   5
BRANCH   2  17
HETATM   17  C   UNL     1      -6.506   3.975 -32.475  1.00  0.00     0.224 C 
BRANCH  17  18
HETATM   18  N   UNL     1      -5.300   4.681 -32.038  1.00  0.00    -0.381 N 
HETATM   19  H   UNL     1      -5.452   5.434 -31.373  1.00  0.00     0.160 HD
BRANCH  18  20
HETATM   20  C   UNL     1      -4.231   4.888 -32.906  1.00  0.00     0.028 A 
HETATM   21  C   UNL     1      -2.929   4.661 -32.429  1.00  0.00     0.032 A 
HETATM   22  C   UNL     1      -1.817   4.768 -33.269  1.00  0.00     0.044 A 
HETATM   23  C   UNL     1      -2.002   5.080 -34.607  1.00  0.00     0.116 A 
HETATM   24  F   UNL     1      -0.941   5.173 -35.419  1.00  0.00    -0.206 F 
HETATM   25  C   UNL     1      -3.276   5.281 -35.117  1.00  0.00     0.044 A 
HETATM   26  C   UNL     1      -4.384   5.175 -34.270  1.00  0.00     0.032 A 
ENDBRANCH  18  20
ENDBRANCH  17  18
ENDBRANCH   2  17
TORSDOF 5
ENDMDL
MODEL 4
REMARK VINA RESULT:      -8.0      6.171      9.275
REMARK  5 active torsions:
REMARK  status: ('A' for Active; 'I' for Inactive)
REMARK    1  A    between atoms: C_8  and  C_9 
REMARK    2  A    between atoms: N_10  and  N_11 
REMARK       I    between atoms: N_11  and  C_12 
REMARK    3  A    between atoms: C_12  and  C_13 
REMARK    4  A    between atoms: C_13  and  N_14 
REMARK    5  A    between atoms: N_14  and  C_15 
ROOT
HETATM    1  N   UNL     1      -4.519   2.295 -32.222  1.00  0.00    -0.246 N 
HETATM    2  C   UNL     1      -4.039   1.111 -31.655  1.00  0.00     0.255 C 
HETATM    3  O   UNL     1      -2.929   0.962 -31.150  1.00  0.00    -0.270 OA
HETATM    4  H   UNL     1      -5.527   2.409 -32.283  1.00  0.00     0.192 HD
ENDROOT
BRANCH   1   5
HETATM    5  N   UNL     1      -3.835   3.490 -32.208  1.00  0.00    -0.184 NA
HETATM    6  C   UNL     1      -2.871   3.635 -33.065  1.00  0.00     0.152 C 
BRANCH   6   7
HETATM    7  C   UNL     1      -2.075   4.845 -33.057  1.00  0.00     0.011 A 
HETATM    8  C   UNL     1      -1.227   5.307 -31.998  1.00  0.00     0.004 A 
HETATM    9  C   UNL     1      -0.887   4.811 -30.721  1.00  0.00     0.014 A 
HETATM   10  C   UNL     1      -0.664   6.517 -32.410  1.00  0.00     0.043 A 
HETATM   11  C   UNL     1      -0.004   5.533 -29.911  1.00  0.00     0.001 A 
HETATM   12  C   UNL     1       0.540   6.736 -30.352  1.00  0.00     0.002 A 
HETATM   13  C   UNL     1       0.220   7.252 -31.612  1.00  0.00     0.030 A 
HETATM   14  N   UNL     1      -1.149   6.780 -33.670  1.00  0.00    -0.364 N 
HETATM   15  H   UNL     1      -0.913   7.599 -34.215  1.00  0.00     0.165 HD
HETATM   16  C   UNL     1      -1.995   5.782 -34.070  1.00  0.00     0.102 A 
ENDBRANCH   6   7
ENDBRANCH   1   5
BRANCH   2  17
HETATM   17  C   UNL     1      -5.068  -0.021 -31.696  1.00  0.00     0.224 C 
BRANCH  17  18
HETATM   18  N   UNL     1      -5.554  -0.236 -33.061  1.00  0.00    -0.381 N 
HETATM   19  H   UNL     1      -6.320   0.366 -33.351  1.00  0.00     0.160 HD
BRANCH  18  20
HETATM   20  C   UNL     1      -5.575  -1.507 -33.627  1.00  0.00     0.028 A 
HETATM   21  C   UNL     1      -6.794  -2.000 -34.120  1.00  0.00     0.032 A 
HETATM   22  C   UNL     1      -6.871  -3.233 -34.774  1.00  0.00     0.044 A 
HETATM   23  C   UNL     1      -5.716  -3.976 -34.964  1.00  0.00     0.116 A 
HETATM   24  F   UNL     1      -5.781  -5.152 -35.600  1.00  0.00    -0.206 F 
HETATM   25  C   UNL     1      -4.491  -3.504 -34.517  1.00  0.00     0.044 A 
HETATM   26  C   UNL     1      -4.422  -2.271 -33.860  1.00  0.00     0.032 A 
ENDBRANCH  18  20
ENDBRANCH  17  18
ENDBRANCH   2  17
TORSDOF 5
ENDMDL
MODEL 5
REMARK VINA RESULT:      -7.9      5.732      8.710
REMARK  5 active torsions:
REMARK  status: ('A' for Active; 'I' for Inactive)
REMARK    1  A    between atoms: C_8  and  C_9 
REMARK    2  A    between atoms: N_10  and  N_11 
REMARK       I    between atoms: N_11  and  C_12 
REMARK    3  A    between atoms: C_12  and  C_13 
REMARK    4  A    between atoms: C_13  and  N_14 
REMARK    5  A    between atoms: N_14  and  C_15 
ROOT
HETATM    1  N   UNL     1      -5.898   2.429 -32.192  1.00  0.00    -0.246 N 
HETATM    2  C   UNL     1      -7.038   1.968 -32.857  1.00  0.00     0.255 C 
HETATM    3  O   UNL     1      -7.626   2.561 -33.758  1.00  0.00    -0.270 OA
HETATM    4  H   UNL     1      -5.310   1.737 -31.737  1.00  0.00     0.192 HD
ENDROOT
BRANCH   1   5
HETATM    5  N   UNL     1      -5.224   3.582 -32.527  1.00  0.00    -0.184 NA
HETATM    6  C   UNL     1      -4.085   3.452 -33.135  1.00  0.00     0.152 C 
BRANCH   6   7
HETATM    7  C   UNL     1      -3.300   4.625 -33.458  1.00  0.00     0.011 A 
HETATM    8  C   UNL     1      -2.233   5.183 -32.680  1.00  0.00     0.004 A 
HETATM    9  C   UNL     1      -1.616   4.833 -31.460  1.00  0.00     0.014 A 
HETATM   10  C   UNL     1      -1.769   6.314 -33.357  1.00  0.00     0.043 A 
HETATM   11  C   UNL     1      -0.568   5.617 -30.964  1.00  0.00     0.001 A 
HETATM   12  C   UNL     1      -0.130   6.738 -31.664  1.00  0.00     0.002 A 
HETATM   13  C   UNL     1      -0.723   7.109 -32.874  1.00  0.00     0.030 A 
HETATM   14  N   UNL     1      -2.524   6.439 -34.500  1.00  0.00    -0.364 N 
HETATM   15  H   UNL     1      -2.412   7.177 -35.181  1.00  0.00     0.165 HD
HETATM   16  C   UNL     1      -3.444   5.430 -34.572  1.00  0.00     0.102 A 
ENDBRANCH   6   7
ENDBRANCH   1   5
BRANCH   2  17
HETATM   17  C   UNL     1      -7.492   0.593 -32.361  1.00  0.00     0.224 C 
BRANCH  17  18
HETATM   18  N   UNL     1      -7.540  -0.370 -33.464  1.00  0.00    -0.381 N 
HETATM   19  H   UNL     1      -8.469  -0.690 -33.723  1.00  0.00     0.160 HD
BRANCH  18  20
HETATM   20  C   UNL     1      -6.536  -1.318 -33.638  1.00  0.00     0.028 A 
HETATM   21  C   UNL     1      -6.779  -2.400 -34.499  1.00  0.00     0.032 A 
HETATM   22  C   UNL     1      -5.786  -3.342 -34.784  1.00  0.00     0.044 A 
HETATM   23  C   UNL     1      -4.527  -3.194 -34.224  1.00  0.00     0.116 A 
HETATM   24  F   UNL     1      -3.568  -4.087 -34.502  1.00  0.00    -0.206 F 
HETATM   25  C   UNL     1      -4.245  -2.120 -33.393  1.00  0.00     0.044 A 
HETATM   26  C   UNL     1      -5.243  -1.183 -33.110  1.00  0.00     0.032 A 
ENDBRANCH  18  20
ENDBRANCH  17  18
ENDBRANCH   2  17
TORSDOF 5
ENDMDL
MODEL 6
REMARK VINA RESULT:      -7.8      5.835      7.216
REMARK  5 active torsions:
REMARK  status: ('A' for Active; 'I' for Inactive)
REMARK    1  A    between atoms: C_8  and  C_9 
REMARK    2  A    between atoms: N_10  and  N_11 
REMARK       I    between atoms: N_11  and  C_12 
REMARK    3  A    between atoms: C_12  and  C_13 
REMARK    4  A    between atoms: C_13  and  N_14 
REMARK    5  A    between atoms: N_14  and  C_15 
ROOT
HETATM    1  N   UNL     1      -6.426   1.963 -31.801  1.00  0.00    -0.246 N 
HETATM    2  C   UNL     1      -5.986   2.264 -30.509  1.00  0.00     0.255 C 
HETATM    3  O   UNL     1      -5.628   1.442 -29.669  1.00  0.00    -0.270 OA
HETATM    4  H   UNL     1      -6.358   2.697 -32.501  1.00  0.00     0.192 HD
ENDROOT
BRANCH   1   5
HETATM    5  N   UNL     1      -6.429   0.696 -32.339  1.00  0.00    -0.184 NA
HETATM    6  C   UNL     1      -5.412   0.354 -33.068  1.00  0.00     0.152 C 
BRANCH   6   7
HETATM    7  C   UNL     1      -5.388  -0.943 -33.712  1.00  0.00     0.011 A 
HETATM    8  C   UNL     1      -4.594  -2.074 -33.331  1.00  0.00     0.004 A 
HETATM    9  C   UNL     1      -3.658  -2.319 -32.304  1.00  0.00     0.014 A 
HETATM   10  C   UNL     1      -4.875  -3.105 -34.231  1.00  0.00     0.043 A 
HETATM   11  C   UNL     1      -3.043  -3.573 -32.213  1.00  0.00     0.001 A 
HETATM   12  C   UNL     1      -3.346  -4.579 -33.126  1.00  0.00     0.002 A 
HETATM   13  C   UNL     1      -4.268  -4.363 -34.155  1.00  0.00     0.030 A 
HETATM   14  N   UNL     1      -5.803  -2.620 -35.124  1.00  0.00    -0.364 N 
HETATM   15  H   UNL     1      -6.187  -3.150 -35.894  1.00  0.00     0.165 HD
HETATM   16  C   UNL     1      -6.120  -1.324 -34.821  1.00  0.00     0.102 A 
ENDBRANCH   6   7
ENDBRANCH   1   5
BRANCH   2  17
HETATM   17  C   UNL     1      -5.964   3.769 -30.230  1.00  0.00     0.224 C 
BRANCH  17  18
HETATM   18  N   UNL     1      -4.607   4.305 -30.365  1.00  0.00    -0.381 N 
HETATM   19  H   UNL     1      -4.351   5.018 -29.688  1.00  0.00     0.160 HD
BRANCH  18  20
HETATM   20  C   UNL     1      -4.014   4.459 -31.615  1.00  0.00     0.028 A 
HETATM   21  C   UNL     1      -4.712   5.172 -32.603  1.00  0.00     0.032 A 
HETATM   22  C   UNL     1      -4.141   5.436 -33.851  1.00  0.00     0.044 A 
HETATM   23  C   UNL     1      -2.850   5.006 -34.114  1.00  0.00     0.116 A 
HETATM   24  F   UNL     1      -2.293   5.265 -35.304  1.00  0.00    -0.206 F 
HETATM   25  C   UNL     1      -2.122   4.326 -33.149  1.00  0.00     0.044 A 
HETATM   26  C   UNL     1      -2.700   4.063 -31.903  1.00  0.00     0.032 A 
ENDBRANCH  18  20
ENDBRANCH  17  18
ENDBRANCH   2  17
TORSDOF 5
ENDMDL
MODEL 7
REMARK VINA RESULT:      -7.8      2.335      2.746
REMARK  5 active torsions:
REMARK  status: ('A' for Active; 'I' for Inactive)
REMARK    1  A    between atoms: C_8  and  C_9 
REMARK    2  A    between atoms: N_10  and  N_11 
REMARK       I    between atoms: N_11  and  C_12 
REMARK    3  A    between atoms: C_12  and  C_13 
REMARK    4  A    between atoms: C_13  and  N_14 
REMARK    5  A    between atoms: N_14  and  C_15 
ROOT
HETATM    1  N   UNL     1      -7.424   1.389 -31.819  1.00  0.00    -0.246 N 
HETATM    2  C   UNL     1      -8.819   1.330 -31.736  1.00  0.00     0.255 C 
HETATM    3  O   UNL     1      -9.494   0.306 -31.807  1.00  0.00    -0.270 OA
HETATM    4  H   UNL     1      -6.965   2.198 -31.408  1.00  0.00     0.192 HD
ENDROOT
BRANCH   1   5
HETATM    5  N   UNL     1      -6.609   0.283 -31.903  1.00  0.00    -0.184 NA
HETATM    6  C   UNL     1      -6.031   0.053 -33.041  1.00  0.00     0.152 C 
BRANCH   6   7
HETATM    7  C   UNL     1      -5.211  -1.129 -33.209  1.00  0.00     0.011 A 
HETATM    8  C   UNL     1      -5.583  -2.343 -33.875  1.00  0.00     0.004 A 
HETATM    9  C   UNL     1      -6.746  -2.783 -34.542  1.00  0.00     0.014 A 
HETATM   10  C   UNL     1      -4.497  -3.217 -33.788  1.00  0.00     0.043 A 
HETATM   11  C   UNL     1      -6.781  -4.068 -35.096  1.00  0.00     0.001 A 
HETATM   12  C   UNL     1      -5.681  -4.915 -34.992  1.00  0.00     0.002 A 
HETATM   13  C   UNL     1      -4.517  -4.506 -34.335  1.00  0.00     0.030 A 
HETATM   14  N   UNL     1      -3.504  -2.562 -33.098  1.00  0.00    -0.364 N 
HETATM   15  H   UNL     1      -2.600  -2.959 -32.880  1.00  0.00     0.165 HD
HETATM   16  C   UNL     1      -3.920  -1.307 -32.747  1.00  0.00     0.102 A 
ENDBRANCH   6   7
ENDBRANCH   1   5
BRANCH   2  17
HETATM   17  C   UNL     1      -9.454   2.705 -31.513  1.00  0.00     0.224 C 
BRANCH  17  18
HETATM   18  N   UNL     1     -10.887   2.673 -31.814  1.00  0.00    -0.381 N 
HETATM   19  H   UNL     1     -11.440   2.047 -31.236  1.00  0.00     0.160 HD
BRANCH  18  20
HETATM   20  C   UNL     1     -11.352   2.815 -33.118  1.00  0.00     0.028 A 
HETATM   21  C   UNL     1     -10.719   3.747 -33.957  1.00  0.00     0.032 A 
HETATM   22  C   UNL     1     -11.080   3.881 -35.300  1.00  0.00     0.044 A 
HETATM   23  C   UNL     1     -12.067   3.061 -35.825  1.00  0.00     0.116 A 
HETATM   24  F   UNL     1     -12.410   3.178 -37.115  1.00  0.00    -0.206 F 
HETATM   25  C   UNL     1     -12.691   2.110 -35.033  1.00  0.00     0.044 A 
HETATM   26  C   UNL     1     -12.327   1.983 -33.688  1.00  0.00     0.032 A 
ENDBRANCH  18  20
ENDBRANCH  17  18
ENDBRANCH   2  17
TORSDOF 5
ENDMDL
MODEL 8
REMARK VINA RESULT:      -7.7      2.663      3.258
REMARK  5 active torsions:
REMARK  status: ('A' for Active; 'I' for Inactive)
REMARK    1  A    between atoms: C_8  and  C_9 
REMARK    2  A    between atoms: N_10  and  N_11 
REMARK       I    between atoms: N_11  and  C_12 
REMARK    3  A    between atoms: C_12  and  C_13 
REMARK    4  A    between atoms: C_13  and  N_14 
REMARK    5  A    between atoms: N_14  and  C_15 
ROOT
HETATM    1  N   UNL     1      -8.432   1.432 -33.388  1.00  0.00    -0.246 N 
HETATM    2  C   UNL     1      -9.782   1.088 -33.271  1.00  0.00     0.255 C 
HETATM    3  O   UNL     1     -10.212  -0.034 -33.015  1.00  0.00    -0.270 OA
HETATM    4  H   UNL     1      -8.185   2.408 -33.252  1.00  0.00     0.192 HD
ENDROOT
BRANCH   1   5
HETATM    5  N   UNL     1      -7.392   0.565 -33.139  1.00  0.00    -0.184 NA
HETATM    6  C   UNL     1      -6.756   0.086 -34.164  1.00  0.00     0.152 C 
BRANCH   6   7
HETATM    7  C   UNL     1      -5.693  -0.878 -33.968  1.00  0.00     0.011 A 
HETATM    8  C   UNL     1      -5.737  -2.277 -34.276  1.00  0.00     0.004 A 
HETATM    9  C   UNL     1      -6.714  -3.134 -34.826  1.00  0.00     0.014 A 
HETATM   10  C   UNL     1      -4.503  -2.824 -33.915  1.00  0.00     0.043 A 
HETATM   11  C   UNL     1      -6.426  -4.493 -34.996  1.00  0.00     0.001 A 
HETATM   12  C   UNL     1      -5.185  -5.006 -34.626  1.00  0.00     0.002 A 
HETATM   13  C   UNL     1      -4.199  -4.180 -34.078  1.00  0.00     0.030 A 
HETATM   14  N   UNL     1      -3.739  -1.798 -33.409  1.00  0.00    -0.364 N 
HETATM   15  H   UNL     1      -2.795  -1.905 -33.062  1.00  0.00     0.165 HD
HETATM   16  C   UNL     1      -4.441  -0.625 -33.438  1.00  0.00     0.102 A 
ENDBRANCH   6   7
ENDBRANCH   1   5
BRANCH   2  17
HETATM   17  C   UNL     1     -10.713   2.286 -33.473  1.00  0.00     0.224 C 
BRANCH  17  18
HETATM   18  N   UNL     1     -10.646   2.773 -34.853  1.00  0.00    -0.381 N 
HETATM   19  H   UNL     1      -9.853   2.442 -35.394  1.00  0.00     0.160 HD
BRANCH  18  20
HETATM   20  C   UNL     1     -11.075   4.055 -35.186  1.00  0.00     0.028 A 
HETATM   21  C   UNL     1     -12.449   4.270 -35.382  1.00  0.00     0.032 A 
HETATM   22  C   UNL     1     -12.957   5.547 -35.636  1.00  0.00     0.044 A 
HETATM   23  C   UNL     1     -12.092   6.630 -35.671  1.00  0.00     0.116 A 
HETATM   24  F   UNL     1     -12.575   7.857 -35.904  1.00  0.00    -0.206 F 
HETATM   25  C   UNL     1     -10.734   6.456 -35.452  1.00  0.00     0.044 A 
HETATM   26  C   UNL     1     -10.232   5.175 -35.201  1.00  0.00     0.032 A 
ENDBRANCH  18  20
ENDBRANCH  17  18
ENDBRANCH   2  17
TORSDOF 5
ENDMDL
MODEL 9
REMARK VINA RESULT:      -7.7      6.662      9.212
REMARK  5 active torsions:
REMARK  status: ('A' for Active; 'I' for Inactive)
REMARK    1  A    between atoms: C_8  and  C_9 
REMARK    2  A    between atoms: N_10  and  N_11 
REMARK       I    between atoms: N_11  and  C_12 
REMARK    3  A    between atoms: C_12  and  C_13 
REMARK    4  A    between atoms: C_13  and  N_14 
REMARK    5  A    between atoms: N_14  and  C_15 
ROOT
HETATM    1  N   UNL     1      -4.794   4.442 -33.215  1.00  0.00    -0.246 N 
HETATM    2  C   UNL     1      -4.086   5.446 -33.880  1.00  0.00     0.255 C 
HETATM    3  O   UNL     1      -3.921   5.516 -35.096  1.00  0.00    -0.270 OA
HETATM    4  H   UNL     1      -5.158   4.660 -32.291  1.00  0.00     0.192 HD
ENDROOT
BRANCH   1   5
HETATM    5  N   UNL     1      -5.486   3.435 -33.850  1.00  0.00    -0.184 NA
HETATM    6  C   UNL     1      -5.719   2.353 -33.174  1.00  0.00     0.152 C 
BRANCH   6   7
HETATM    7  C   UNL     1      -6.388   1.235 -33.807  1.00  0.00     0.011 A 
HETATM    8  C   UNL     1      -5.889  -0.103 -33.933  1.00  0.00     0.004 A 
HETATM    9  C   UNL     1      -4.705  -0.754 -33.528  1.00  0.00     0.014 A 
HETATM   10  C   UNL     1      -6.852  -0.845 -34.621  1.00  0.00     0.043 A 
HETATM   11  C   UNL     1      -4.527  -2.111 -33.821  1.00  0.00     0.001 A 
HETATM   12  C   UNL     1      -5.506  -2.822 -34.508  1.00  0.00     0.002 A 
HETATM   13  C   UNL     1      -6.689  -2.202 -34.923  1.00  0.00     0.030 A 
HETATM   14  N   UNL     1      -7.894   0.007 -34.903  1.00  0.00    -0.364 N 
HETATM   15  H   UNL     1      -8.732  -0.259 -35.402  1.00  0.00     0.165 HD
HETATM   16  C   UNL     1      -7.628   1.258 -34.417  1.00  0.00     0.102 A 
ENDBRANCH   6   7
ENDBRANCH   1   5
BRANCH   2  17
HETATM   17  C   UNL     1      -3.533   6.508 -32.927  1.00  0.00     0.224 C 
BRANCH  17  18
HETATM   18  N   UNL     1      -2.081   6.639 -33.076  1.00  0.00    -0.381 N 
HETATM   19  H   UNL     1      -1.703   6.314 -33.961  1.00  0.00     0.160 HD
BRANCH  18  20
HETATM   20  C   UNL     1      -1.227   6.473 -31.989  1.00  0.00     0.028 A 
HETATM   21  C   UNL     1      -1.207   7.467 -30.997  1.00  0.00     0.032 A 
HETATM   22  C   UNL     1      -0.436   7.325 -29.840  1.00  0.00     0.044 A 
HETATM   23  C   UNL     1       0.305   6.169 -29.653  1.00  0.00     0.116 A 
HETATM   24  F   UNL     1       1.037   6.023 -28.541  1.00  0.00    -0.206 F 
HETATM   25  C   UNL     1       0.284   5.155 -30.599  1.00  0.00     0.044 A 
HETATM   26  C   UNL     1      -0.487   5.305 -31.756  1.00  0.00     0.032 A 
ENDBRANCH  18  20
ENDBRANCH  17  18
ENDBRANCH   2  17
TORSDOF 5
ENDMDL
MODEL 10
REMARK VINA RESULT:      -7.6      3.061      8.261
REMARK  5 active torsions:
REMARK  status: ('A' for Active; 'I' for Inactive)
REMARK    1  A    between atoms: C_8  and  C_9 
REMARK    2  A    between atoms: N_10  and  N_11 
REMARK       I    between atoms: N_11  and  C_12 
REMARK    3  A    between atoms: C_12  and  C_13 
REMARK    4  A    between atoms: C_13  and  N_14 
REMARK    5  A    between atoms: N_14  and  C_15 
ROOT
HETATM    1  N   UNL     1      -7.141   0.390 -31.930  1.00  0.00    -0.246 N 
HETATM    2  C   UNL     1      -5.844   0.813 -32.235  1.00  0.00     0.255 C 
HETATM    3  O   UNL     1      -5.543   1.912 -32.695  1.00  0.00    -0.270 OA
HETATM    4  H   UNL     1      -7.240  -0.362 -31.253  1.00  0.00     0.192 HD
ENDROOT
BRANCH   1   5
HETATM    5  N   UNL     1      -8.255   1.193 -32.020  1.00  0.00    -0.184 NA
HETATM    6  C   UNL     1      -9.164   0.855 -32.882  1.00  0.00     0.152 C 
BRANCH   6   7
HETATM    7  C   UNL     1     -10.331   1.694 -33.068  1.00  0.00     0.011 A 
HETATM    8  C   UNL     1     -11.662   1.257 -33.367  1.00  0.00     0.004 A 
HETATM    9  C   UNL     1     -12.264  -0.005 -33.561  1.00  0.00     0.014 A 
HETATM   10  C   UNL     1     -12.463   2.396 -33.472  1.00  0.00     0.043 A 
HETATM   11  C   UNL     1     -13.631  -0.082 -33.849  1.00  0.00     0.001 A 
HETATM   12  C   UNL     1     -14.402   1.073 -33.948  1.00  0.00     0.002 A 
HETATM   13  C   UNL     1     -13.831   2.337 -33.762  1.00  0.00     0.030 A 
HETATM   14  N   UNL     1     -11.651   3.484 -33.247  1.00  0.00    -0.364 N 
HETATM   15  H   UNL     1     -11.964   4.445 -33.267  1.00  0.00     0.165 HD
HETATM   16  C   UNL     1     -10.370   3.075 -33.000  1.00  0.00     0.102 A 
ENDBRANCH   6   7
ENDBRANCH   1   5
BRANCH   2  17
HETATM   17  C   UNL     1      -4.787  -0.245 -31.910  1.00  0.00     0.224 C 
BRANCH  17  18
HETATM   18  N   UNL     1      -4.205  -0.797 -33.136  1.00  0.00    -0.381 N 
HETATM   19  H   UNL     1      -3.747  -0.123 -33.743  1.00  0.00     0.160 HD
BRANCH  18  20
HETATM   20  C   UNL     1      -4.809  -1.857 -33.806  1.00  0.00     0.028 A 
HETATM   21  C   UNL     1      -4.149  -3.097 -33.827  1.00  0.00     0.032 A 
HETATM   22  C   UNL     1      -4.736  -4.224 -34.409  1.00  0.00     0.044 A 
HETATM   23  C   UNL     1      -6.005  -4.125 -34.956  1.00  0.00     0.116 A 
HETATM   24  F   UNL     1      -6.577  -5.205 -35.505  1.00  0.00    -0.206 F 
HETATM   25  C   UNL     1      -6.697  -2.924 -34.925  1.00  0.00     0.044 A 
HETATM   26  C   UNL     1      -6.103  -1.799 -34.344  1.00  0.00     0.032 A 
ENDBRANCH  18  20
ENDBRANCH  17  18
ENDBRANCH   2  17
TORSDOF 5
ENDMDL
