MODEL 1
REMARK VINA RESULT:      -9.0      0.000      0.000
REMARK  11 active torsions:
REMARK  status: ('A' for Active; 'I' for Inactive)
REMARK    1  A    between atoms: N_13  and  C_14 
REMARK    2  A    between atoms: C_14  and  C_15 
REMARK    3  A    between atoms: N_20  and  C_21 
REMARK    4  A    between atoms: C_21  and  C_22 
REMARK    5  A    between atoms: C_22  and  O_23 
REMARK    6  A    between atoms: C_22  and  C_24 
REMARK    7  A    between atoms: C_24  and  N_25 
REMARK    8  A    between atoms: N_25  and  C_27 
REMARK    9  A    between atoms: N_25  and  C_34 
REMARK   10  A    between atoms: C_27  and  C_28 
REMARK   11  A    between atoms: C_34  and  C_35 
ROOT
HETATM    1  C   UNL     1      -9.960   6.371 -34.733  1.00  0.00     0.163 C 
HETATM    2  N   UNL     1      -9.878   5.496 -33.575  1.00  0.00    -0.285 N 
HETATM    3  C   UNL     1     -11.009   5.252 -32.790  1.00  0.00     0.332 A 
HETATM    4  O   UNL     1     -12.098   5.771 -33.043  1.00  0.00    -0.246 OA
HETATM    5  N   UNL     1     -10.844   4.399 -31.677  1.00  0.00    -0.269 N 
HETATM    6  C   UNL     1     -12.003   4.150 -30.842  1.00  0.00     0.164 C 
HETATM    7  C   UNL     1      -9.628   3.881 -31.232  1.00  0.00     0.282 A 
HETATM    8  O   UNL     1      -9.464   3.283 -30.170  1.00  0.00    -0.265 OA
HETATM    9  C   UNL     1      -8.548   4.160 -32.110  1.00  0.00     0.166 A 
HETATM   10  C   UNL     1      -8.675   4.939 -33.216  1.00  0.00     0.186 A 
HETATM   11  N   UNL     1      -7.481   5.124 -33.837  1.00  0.00    -0.044 NA
HETATM   12  C   UNL     1      -6.607   4.443 -33.128  1.00  0.00     0.705 A 
HETATM   13  N   UNL     1      -5.274   4.370 -33.325  1.00  0.00    -0.218 N 
HETATM   14  N   UNL     1      -7.221   3.826 -32.057  1.00  0.00    -0.170 N 
HETATM   15  H   UNL     1      -4.770   3.519 -33.093  1.00  0.00     0.178 HD
ENDROOT
BRANCH  14  16
HETATM   16  C   UNL     1      -6.586   3.084 -30.978  1.00  0.00     0.181 C 
BRANCH  16  17
HETATM   17  C   UNL     1      -6.844   1.581 -31.125  1.00  0.00     0.163 C 
BRANCH  17  18
HETATM   18  O   UNL     1      -6.742   0.919 -29.860  1.00  0.00    -0.392 OA
HETATM   19  H   UNL     1      -6.663   1.602 -29.159  1.00  0.00     0.210 HD
ENDBRANCH  17  18
BRANCH  17  20
HETATM   20  C   UNL     1      -5.902   0.910 -32.150  1.00  0.00     0.268 C 
BRANCH  20  21
HETATM   21  N   UNL     1      -6.589   0.237 -33.344  1.00  0.00    -0.061 N 
HETATM   22  H   UNL     1      -7.141  -0.557 -33.012  1.00  0.00     0.280 HD
BRANCH  21  23
HETATM   23  C   UNL     1      -7.553   1.170 -34.068  1.00  0.00     0.273 C 
BRANCH  23  24
HETATM   24  C   UNL     1      -9.014   0.873 -33.852  1.00  0.00    -0.033 A 
HETATM   25  C   UNL     1     -10.004   1.669 -34.449  1.00  0.00     0.009 A 
HETATM   26  C   UNL     1     -11.355   1.395 -34.230  1.00  0.00     0.001 A 
HETATM   27  C   UNL     1     -11.728   0.325 -33.420  1.00  0.00     0.000 A 
HETATM   28  C   UNL     1     -10.755  -0.478 -32.831  1.00  0.00     0.001 A 
HETATM   29  C   UNL     1      -9.403  -0.207 -33.044  1.00  0.00     0.009 A 
ENDBRANCH  23  24
ENDBRANCH  21  23
BRANCH  21  30
HETATM   30  C   UNL     1      -5.545  -0.356 -34.287  1.00  0.00     0.273 C 
BRANCH  30  31
HETATM   31  C   UNL     1      -5.627  -1.857 -34.391  1.00  0.00    -0.033 A 
HETATM   32  C   UNL     1      -6.848  -2.482 -34.693  1.00  0.00     0.009 A 
HETATM   33  C   UNL     1      -6.927  -3.874 -34.776  1.00  0.00     0.001 A 
HETATM   34  C   UNL     1      -5.792  -4.651 -34.561  1.00  0.00     0.000 A 
HETATM   35  C   UNL     1      -4.574  -4.042 -34.270  1.00  0.00     0.001 A 
HETATM   36  C   UNL     1      -4.489  -2.651 -34.188  1.00  0.00     0.009 A 
ENDBRANCH  30  31
ENDBRANCH  21  30
ENDBRANCH  20  21
ENDBRANCH  17  20
ENDBRANCH  16  17
ENDBRANCH  14  16
BRANCH  13  37
HETATM   37  C   UNL     1      -4.767   4.899 -34.596  1.00  0.00     0.203 C 
BRANCH  37  38
HETATM   38  C   UNL     1      -3.385   5.457 -34.496  1.00  0.00     0.070 A 
HETATM   39  O   UNL     1      -3.253   6.691 -33.917  1.00  0.00    -0.325 OA
HETATM   40  C   UNL     1      -1.926   6.982 -33.913  1.00  0.00     0.142 A 
HETATM   41  C   UNL     1      -1.204   5.959 -34.480  1.00  0.00     0.027 A 
HETATM   42  C   UNL     1      -2.146   4.972 -34.858  1.00  0.00     0.036 A 
ENDBRANCH  37  38
ENDBRANCH  13  37
TORSDOF 11
ENDMDL
MODEL 2
REMARK VINA RESULT:      -9.0      2.644      5.791
REMARK  11 active torsions:
REMARK  status: ('A' for Active; 'I' for Inactive)
REMARK    1  A    between atoms: N_13  and  C_14 
REMARK    2  A    between atoms: C_14  and  C_15 
REMARK    3  A    between atoms: N_20  and  C_21 
REMARK    4  A    between atoms: C_21  and  C_22 
REMARK    5  A    between atoms: C_22  and  O_23 
REMARK    6  A    between atoms: C_22  and  C_24 
REMARK    7  A    between atoms: C_24  and  N_25 
REMARK    8  A    between atoms: N_25  and  C_27 
REMARK    9  A    between atoms: N_25  and  C_34 
REMARK   10  A    between atoms: C_27  and  C_28 
REMARK   11  A    between atoms: C_34  and  C_35 
ROOT
HETATM    1  C   UNL     1      -3.840   8.795 -29.825  1.00  0.00     0.163 C 
HETATM    2  N   UNL     1      -3.067   7.622 -30.201  1.00  0.00    -0.285 N 
HETATM    3  C   UNL     1      -1.703   7.548 -29.904  1.00  0.00     0.332 A 
HETATM    4  O   UNL     1      -1.113   8.467 -29.332  1.00  0.00    -0.246 OA
HETATM    5  N   UNL     1      -1.022   6.380 -30.311  1.00  0.00    -0.269 N 
HETATM    6  C   UNL     1       0.398   6.295 -30.028  1.00  0.00     0.164 C 
HETATM    7  C   UNL     1      -1.569   5.355 -31.082  1.00  0.00     0.282 A 
HETATM    8  O   UNL     1      -0.931   4.428 -31.577  1.00  0.00    -0.265 OA
HETATM    9  C   UNL     1      -2.963   5.508 -31.304  1.00  0.00     0.166 A 
HETATM   10  C   UNL     1      -3.665   6.595 -30.891  1.00  0.00     0.186 A 
HETATM   11  N   UNL     1      -4.959   6.542 -31.301  1.00  0.00    -0.044 NA
HETATM   12  C   UNL     1      -5.072   5.408 -31.958  1.00  0.00     0.705 A 
HETATM   13  N   UNL     1      -6.163   4.942 -32.601  1.00  0.00    -0.218 N 
HETATM   14  N   UNL     1      -3.869   4.733 -31.980  1.00  0.00    -0.170 N 
HETATM   15  H   UNL     1      -6.339   3.943 -32.648  1.00  0.00     0.178 HD
ENDROOT
BRANCH  14  16
HETATM   16  C   UNL     1      -3.551   3.510 -32.701  1.00  0.00     0.181 C 
BRANCH  16  17
HETATM   17  C   UNL     1      -3.818   2.278 -31.828  1.00  0.00     0.163 C 
BRANCH  17  18
HETATM   18  O   UNL     1      -2.811   2.136 -30.822  1.00  0.00    -0.392 OA
HETATM   19  H   UNL     1      -2.163   1.463 -31.127  1.00  0.00     0.210 HD
ENDBRANCH  17  18
BRANCH  17  20
HETATM   20  C   UNL     1      -3.931   0.976 -32.653  1.00  0.00     0.268 C 
BRANCH  20  21
HETATM   21  N   UNL     1      -5.304   0.295 -32.638  1.00  0.00    -0.061 N 
HETATM   22  H   UNL     1      -5.244  -0.573 -32.101  1.00  0.00     0.280 HD
BRANCH  21  23
HETATM   23  C   UNL     1      -6.375   1.150 -31.972  1.00  0.00     0.273 C 
BRANCH  23  24
HETATM   24  C   UNL     1      -7.718   1.141 -32.655  1.00  0.00    -0.033 A 
HETATM   25  C   UNL     1      -7.985   2.011 -33.724  1.00  0.00     0.009 A 
HETATM   26  C   UNL     1      -9.238   2.006 -34.339  1.00  0.00     0.001 A 
HETATM   27  C   UNL     1     -10.230   1.133 -33.897  1.00  0.00     0.000 A 
HETATM   28  C   UNL     1      -9.973   0.259 -32.844  1.00  0.00     0.001 A 
HETATM   29  C   UNL     1      -8.723   0.262 -32.223  1.00  0.00     0.009 A 
ENDBRANCH  23  24
ENDBRANCH  21  23
BRANCH  21  30
HETATM   30  C   UNL     1      -5.699  -0.126 -34.051  1.00  0.00     0.273 C 
BRANCH  30  31
HETATM   31  C   UNL     1      -5.676  -1.619 -34.253  1.00  0.00    -0.033 A 
HETATM   32  C   UNL     1      -4.474  -2.333 -34.125  1.00  0.00     0.009 A 
HETATM   33  C   UNL     1      -4.449  -3.715 -34.327  1.00  0.00     0.001 A 
HETATM   34  C   UNL     1      -5.619  -4.394 -34.653  1.00  0.00     0.000 A 
HETATM   35  C   UNL     1      -6.820  -3.697 -34.773  1.00  0.00     0.001 A 
HETATM   36  C   UNL     1      -6.851  -2.316 -34.572  1.00  0.00     0.009 A 
ENDBRANCH  30  31
ENDBRANCH  21  30
ENDBRANCH  20  21
ENDBRANCH  17  20
ENDBRANCH  16  17
ENDBRANCH  14  16
BRANCH  13  37
HETATM   37  C   UNL     1      -7.427   5.642 -32.344  1.00  0.00     0.203 C 
BRANCH  37  38
HETATM   38  C   UNL     1      -8.435   4.801 -31.631  1.00  0.00     0.070 A 
HETATM   39  O   UNL     1      -9.697   4.759 -32.161  1.00  0.00    -0.325 OA
HETATM   40  C   UNL     1     -10.426   3.928 -31.372  1.00  0.00     0.142 A 
HETATM   41  C   UNL     1      -9.656   3.436 -30.346  1.00  0.00     0.027 A 
HETATM   42  C   UNL     1      -8.368   3.999 -30.511  1.00  0.00     0.036 A 
ENDBRANCH  37  38
ENDBRANCH  13  37
TORSDOF 11
ENDMDL
MODEL 3
REMARK VINA RESULT:      -8.8      2.860      5.248
REMARK  11 active torsions:
REMARK  status: ('A' for Active; 'I' for Inactive)
REMARK    1  A    between atoms: N_13  and  C_14 
REMARK    2  A    between atoms: C_14  and  C_15 
REMARK    3  A    between atoms: N_20  and  C_21 
REMARK    4  A    between atoms: C_21  and  C_22 
REMARK    5  A    between atoms: C_22  and  O_23 
REMARK    6  A    between atoms: C_22  and  C_24 
REMARK    7  A    between atoms: C_24  and  N_25 
REMARK    8  A    between atoms: N_25  and  C_27 
REMARK    9  A    between atoms: N_25  and  C_34 
REMARK   10  A    between atoms: C_27  and  C_28 
REMARK   11  A    between atoms: C_34  and  C_35 
ROOT
HETATM    1  C   UNL     1      -7.656   8.369 -31.644  1.00  0.00     0.163 C 
HETATM    2  N   UNL     1      -7.321   7.123 -32.314  1.00  0.00    -0.285 N 
HETATM    3  C   UNL     1      -8.321   6.345 -32.905  1.00  0.00     0.332 A 
HETATM    4  O   UNL     1      -9.508   6.678 -32.869  1.00  0.00    -0.246 OA
HETATM    5  N   UNL     1      -7.915   5.145 -33.526  1.00  0.00    -0.269 N 
HETATM    6  C   UNL     1      -8.942   4.316 -34.128  1.00  0.00     0.164 C 
HETATM    7  C   UNL     1      -6.624   4.618 -33.496  1.00  0.00     0.282 A 
HETATM    8  O   UNL     1      -6.312   3.495 -33.888  1.00  0.00    -0.265 OA
HETATM    9  C   UNL     1      -5.678   5.494 -32.902  1.00  0.00     0.166 A 
HETATM   10  C   UNL     1      -6.021   6.678 -32.332  1.00  0.00     0.186 A 
HETATM   11  N   UNL     1      -4.951   7.287 -31.758  1.00  0.00    -0.044 NA
HETATM   12  C   UNL     1      -3.930   6.488 -31.985  1.00  0.00     0.705 A 
HETATM   13  N   UNL     1      -2.660   6.643 -31.557  1.00  0.00    -0.218 N 
HETATM   14  N   UNL     1      -4.330   5.373 -32.693  1.00  0.00    -0.170 N 
HETATM   15  H   UNL     1      -1.886   6.312 -32.125  1.00  0.00     0.178 HD
ENDROOT
BRANCH  14  16
HETATM   16  C   UNL     1      -3.530   4.207 -33.036  1.00  0.00     0.181 C 
BRANCH  16  17
HETATM   17  C   UNL     1      -3.414   3.254 -31.841  1.00  0.00     0.163 C 
BRANCH  17  18
HETATM   18  O   UNL     1      -2.184   3.462 -31.139  1.00  0.00    -0.392 OA
HETATM   19  H   UNL     1      -1.814   2.584 -30.899  1.00  0.00     0.210 HD
ENDBRANCH  17  18
BRANCH  17  20
HETATM   20  C   UNL     1      -3.548   1.769 -32.246  1.00  0.00     0.268 C 
BRANCH  20  21
HETATM   21  N   UNL     1      -4.808   1.054 -31.748  1.00  0.00    -0.061 N 
HETATM   22  H   UNL     1      -5.566   1.198 -32.420  1.00  0.00     0.280 HD
BRANCH  21  23
HETATM   23  C   UNL     1      -4.616  -0.452 -31.620  1.00  0.00     0.273 C 
BRANCH  23  24
HETATM   24  C   UNL     1      -5.038  -1.256 -32.822  1.00  0.00    -0.033 A 
HETATM   25  C   UNL     1      -6.308  -1.081 -33.394  1.00  0.00     0.009 A 
HETATM   26  C   UNL     1      -6.695  -1.843 -34.498  1.00  0.00     0.001 A 
HETATM   27  C   UNL     1      -5.818  -2.779 -35.042  1.00  0.00     0.000 A 
HETATM   28  C   UNL     1      -4.553  -2.955 -34.489  1.00  0.00     0.001 A 
HETATM   29  C   UNL     1      -4.162  -2.198 -33.384  1.00  0.00     0.009 A 
ENDBRANCH  23  24
ENDBRANCH  21  23
BRANCH  21  30
HETATM   30  C   UNL     1      -5.293   1.685 -30.446  1.00  0.00     0.273 C 
BRANCH  30  31
HETATM   31  C   UNL     1      -6.690   2.242 -30.541  1.00  0.00    -0.033 A 
HETATM   32  C   UNL     1      -7.001   3.480 -29.956  1.00  0.00     0.009 A 
HETATM   33  C   UNL     1      -8.299   3.991 -30.031  1.00  0.00     0.001 A 
HETATM   34  C   UNL     1      -9.293   3.274 -30.691  1.00  0.00     0.000 A 
HETATM   35  C   UNL     1      -8.994   2.049 -31.283  1.00  0.00     0.001 A 
HETATM   36  C   UNL     1      -7.698   1.535 -31.212  1.00  0.00     0.009 A 
ENDBRANCH  30  31
ENDBRANCH  21  30
ENDBRANCH  20  21
ENDBRANCH  17  20
ENDBRANCH  16  17
ENDBRANCH  14  16
BRANCH  13  37
HETATM   37  C   UNL     1      -2.313   7.951 -30.988  1.00  0.00     0.203 C 
BRANCH  37  38
HETATM   38  C   UNL     1      -1.185   7.891 -30.010  1.00  0.00     0.070 A 
HETATM   39  O   UNL     1      -1.292   8.669 -28.888  1.00  0.00    -0.325 OA
HETATM   40  C   UNL     1      -0.179   8.439 -28.144  1.00  0.00     0.142 A 
HETATM   41  C   UNL     1       0.640   7.529 -28.768  1.00  0.00     0.027 A 
HETATM   42  C   UNL     1      -0.008   7.173 -29.975  1.00  0.00     0.036 A 
ENDBRANCH  37  38
ENDBRANCH  13  37
TORSDOF 11
ENDMDL
MODEL 4
REMARK VINA RESULT:      -8.8      2.505      6.416
REMARK  11 active torsions:
REMARK  status: ('A' for Active; 'I' for Inactive)
REMARK    1  A    between atoms: N_13  and  C_14 
REMARK    2  A    between atoms: C_14  and  C_15 
REMARK    3  A    between atoms: N_20  and  C_21 
REMARK    4  A    between atoms: C_21  and  C_22 
REMARK    5  A    between atoms: C_22  and  O_23 
REMARK    6  A    between atoms: C_22  and  C_24 
REMARK    7  A    between atoms: C_24  and  N_25 
REMARK    8  A    between atoms: N_25  and  C_27 
REMARK    9  A    between atoms: N_25  and  C_34 
REMARK   10  A    between atoms: C_27  and  C_28 
REMARK   11  A    between atoms: C_34  and  C_35 
ROOT
HETATM    1  C   UNL     1      -4.559   8.725 -30.663  1.00  0.00     0.163 C 
HETATM    2  N   UNL     1      -3.599   7.647 -30.838  1.00  0.00    -0.285 N 
HETATM    3  C   UNL     1      -2.291   7.779 -30.362  1.00  0.00     0.332 A 
HETATM    4  O   UNL     1      -1.907   8.805 -29.796  1.00  0.00    -0.246 OA
HETATM    5  N   UNL     1      -1.418   6.692 -30.581  1.00  0.00    -0.269 N 
HETATM    6  C   UNL     1      -0.052   6.820 -30.110  1.00  0.00     0.164 C 
HETATM    7  C   UNL     1      -1.717   5.555 -31.331  1.00  0.00     0.282 A 
HETATM    8  O   UNL     1      -0.904   4.694 -31.661  1.00  0.00    -0.265 OA
HETATM    9  C   UNL     1      -3.075   5.501 -31.743  1.00  0.00     0.166 A 
HETATM   10  C   UNL     1      -3.959   6.507 -31.514  1.00  0.00     0.186 A 
HETATM   11  N   UNL     1      -5.166   6.251 -32.082  1.00  0.00    -0.044 NA
HETATM   12  C   UNL     1      -5.042   5.073 -32.654  1.00  0.00     0.705 A 
HETATM   13  N   UNL     1      -5.965   4.422 -33.393  1.00  0.00    -0.218 N 
HETATM   14  N   UNL     1      -3.772   4.569 -32.465  1.00  0.00    -0.170 N 
HETATM   15  H   UNL     1      -6.005   3.407 -33.381  1.00  0.00     0.178 HD
ENDROOT
BRANCH  14  16
HETATM   16  C   UNL     1      -3.205   3.357 -33.036  1.00  0.00     0.181 C 
BRANCH  16  17
HETATM   17  C   UNL     1      -3.475   2.149 -32.131  1.00  0.00     0.163 C 
BRANCH  17  18
HETATM   18  O   UNL     1      -2.729   2.245 -30.914  1.00  0.00    -0.392 OA
HETATM   19  H   UNL     1      -3.234   2.807 -30.286  1.00  0.00     0.210 HD
ENDBRANCH  17  18
BRANCH  17  20
HETATM   20  C   UNL     1      -3.178   0.802 -32.829  1.00  0.00     0.268 C 
BRANCH  20  21
HETATM   21  N   UNL     1      -4.351  -0.183 -32.901  1.00  0.00    -0.061 N 
HETATM   22  H   UNL     1      -4.746  -0.167 -33.843  1.00  0.00     0.280 HD
BRANCH  21  23
HETATM   23  C   UNL     1      -3.926  -1.620 -32.626  1.00  0.00     0.273 C 
BRANCH  23  24
HETATM   24  C   UNL     1      -4.579  -2.659 -33.500  1.00  0.00    -0.033 A 
HETATM   25  C   UNL     1      -5.716  -2.345 -34.263  1.00  0.00     0.009 A 
HETATM   26  C   UNL     1      -6.323  -3.319 -35.057  1.00  0.00     0.001 A 
HETATM   27  C   UNL     1      -5.799  -4.609 -35.101  1.00  0.00     0.000 A 
HETATM   28  C   UNL     1      -4.667  -4.930 -34.357  1.00  0.00     0.001 A 
HETATM   29  C   UNL     1      -4.058  -3.961 -33.559  1.00  0.00     0.009 A 
ENDBRANCH  23  24
ENDBRANCH  21  23
BRANCH  21  30
HETATM   30  C   UNL     1      -5.478   0.271 -31.977  1.00  0.00     0.273 C 
BRANCH  30  31
HETATM   31  C   UNL     1      -6.793   0.451 -32.691  1.00  0.00    -0.033 A 
HETATM   32  C   UNL     1      -7.986  -0.003 -32.106  1.00  0.00     0.009 A 
HETATM   33  C   UNL     1      -9.203   0.151 -32.773  1.00  0.00     0.001 A 
HETATM   34  C   UNL     1      -9.240   0.760 -34.025  1.00  0.00     0.000 A 
HETATM   35  C   UNL     1      -8.064   1.223 -34.611  1.00  0.00     0.001 A 
HETATM   36  C   UNL     1      -6.845   1.072 -33.948  1.00  0.00     0.009 A 
ENDBRANCH  30  31
ENDBRANCH  21  30
ENDBRANCH  20  21
ENDBRANCH  17  20
ENDBRANCH  16  17
ENDBRANCH  14  16
BRANCH  13  37
HETATM   37  C   UNL     1      -7.331   4.957 -33.360  1.00  0.00     0.203 C 
BRANCH  37  38
HETATM   38  C   UNL     1      -8.215   4.266 -32.374  1.00  0.00     0.070 A 
HETATM   39  O   UNL     1      -7.609   3.700 -31.284  1.00  0.00    -0.325 OA
HETATM   40  C   UNL     1      -8.595   3.156 -30.525  1.00  0.00     0.142 A 
HETATM   41  C   UNL     1      -9.823   3.361 -31.107  1.00  0.00     0.027 A 
HETATM   42  C   UNL     1      -9.580   4.078 -32.303  1.00  0.00     0.036 A 
ENDBRANCH  37  38
ENDBRANCH  13  37
TORSDOF 11
ENDMDL
MODEL 5
REMARK VINA RESULT:      -8.7      3.988      6.809
REMARK  11 active torsions:
REMARK  status: ('A' for Active; 'I' for Inactive)
REMARK    1  A    between atoms: N_13  and  C_14 
REMARK    2  A    between atoms: C_14  and  C_15 
REMARK    3  A    between atoms: N_20  and  C_21 
REMARK    4  A    between atoms: C_21  and  C_22 
REMARK    5  A    between atoms: C_22  and  O_23 
REMARK    6  A    between atoms: C_22  and  C_24 
REMARK    7  A    between atoms: C_24  and  N_25 
REMARK    8  A    between atoms: N_25  and  C_27 
REMARK    9  A    between atoms: N_25  and  C_34 
REMARK   10  A    between atoms: C_27  and  C_28 
REMARK   11  A    between atoms: C_34  and  C_35 
ROOT
HETATM    1  C   UNL     1      -0.190   6.950 -32.190  1.00  0.00     0.163 C 
HETATM    2  N   UNL     1      -1.526   6.451 -32.467  1.00  0.00    -0.285 N 
HETATM    3  C   UNL     1      -1.887   6.079 -33.766  1.00  0.00     0.332 A 
HETATM    4  O   UNL     1      -1.100   6.171 -34.710  1.00  0.00    -0.246 OA
HETATM    5  N   UNL     1      -3.207   5.613 -33.954  1.00  0.00    -0.269 N 
HETATM    6  C   UNL     1      -3.604   5.241 -35.299  1.00  0.00     0.164 C 
HETATM    7  C   UNL     1      -4.206   5.606 -32.982  1.00  0.00     0.282 A 
HETATM    8  O   UNL     1      -5.393   5.363 -33.193  1.00  0.00    -0.265 OA
HETATM    9  C   UNL     1      -3.733   5.972 -31.694  1.00  0.00     0.166 A 
HETATM   10  C   UNL     1      -2.459   6.383 -31.462  1.00  0.00     0.186 A 
HETATM   11  N   UNL     1      -2.282   6.758 -30.168  1.00  0.00    -0.044 NA
HETATM   12  C   UNL     1      -3.445   6.564 -29.585  1.00  0.00     0.705 A 
HETATM   13  N   UNL     1      -3.776   6.846 -28.307  1.00  0.00    -0.218 N 
HETATM   14  N   UNL     1      -4.369   6.073 -30.485  1.00  0.00    -0.170 N 
HETATM   15  H   UNL     1      -4.450   6.268 -27.815  1.00  0.00     0.178 HD
ENDROOT
BRANCH  14  16
HETATM   16  C   UNL     1      -5.787   5.841 -30.262  1.00  0.00     0.181 C 
BRANCH  16  17
HETATM   17  C   UNL     1      -6.021   4.476 -29.605  1.00  0.00     0.163 C 
BRANCH  17  18
HETATM   18  O   UNL     1      -5.696   4.517 -28.212  1.00  0.00    -0.392 OA
HETATM   19  H   UNL     1      -4.879   5.051 -28.101  1.00  0.00     0.210 HD
ENDBRANCH  17  18
BRANCH  17  20
HETATM   20  C   UNL     1      -5.239   3.338 -30.298  1.00  0.00     0.268 C 
BRANCH  20  21
HETATM   21  N   UNL     1      -6.004   2.566 -31.379  1.00  0.00    -0.061 N 
HETATM   22  H   UNL     1      -6.423   3.229 -32.034  1.00  0.00     0.280 HD
BRANCH  21  23
HETATM   23  C   UNL     1      -5.100   1.652 -32.197  1.00  0.00     0.273 C 
BRANCH  23  24
HETATM   24  C   UNL     1      -5.809   0.782 -33.202  1.00  0.00    -0.033 A 
HETATM   25  C   UNL     1      -5.864  -0.610 -33.035  1.00  0.00     0.009 A 
HETATM   26  C   UNL     1      -6.510  -1.409 -33.981  1.00  0.00     0.001 A 
HETATM   27  C   UNL     1      -7.109  -0.824 -35.095  1.00  0.00     0.000 A 
HETATM   28  C   UNL     1      -7.069   0.557 -35.266  1.00  0.00     0.001 A 
HETATM   29  C   UNL     1      -6.422   1.359 -34.326  1.00  0.00     0.009 A 
ENDBRANCH  23  24
ENDBRANCH  21  23
BRANCH  21  30
HETATM   30  C   UNL     1      -7.175   1.810 -30.757  1.00  0.00     0.273 C 
BRANCH  30  31
HETATM   31  C   UNL     1      -8.386   1.754 -31.653  1.00  0.00    -0.033 A 
HETATM   32  C   UNL     1      -9.042   0.533 -31.883  1.00  0.00     0.009 A 
HETATM   33  C   UNL     1     -10.155   0.478 -32.724  1.00  0.00     0.001 A 
HETATM   34  C   UNL     1     -10.624   1.636 -33.338  1.00  0.00     0.000 A 
HETATM   35  C   UNL     1      -9.987   2.854 -33.110  1.00  0.00     0.001 A 
HETATM   36  C   UNL     1      -8.875   2.915 -32.269  1.00  0.00     0.009 A 
ENDBRANCH  30  31
ENDBRANCH  21  30
ENDBRANCH  20  21
ENDBRANCH  17  20
ENDBRANCH  16  17
ENDBRANCH  14  16
BRANCH  13  37
HETATM   37  C   UNL     1      -2.670   7.175 -27.399  1.00  0.00     0.203 C 
BRANCH  37  38
HETATM   38  C   UNL     1      -3.117   7.839 -26.138  1.00  0.00     0.070 A 
HETATM   39  O   UNL     1      -4.329   8.476 -26.165  1.00  0.00    -0.325 OA
HETATM   40  C   UNL     1      -4.537   8.979 -24.921  1.00  0.00     0.142 A 
HETATM   41  C   UNL     1      -3.480   8.677 -24.095  1.00  0.00     0.027 A 
HETATM   42  C   UNL     1      -2.561   7.940 -24.880  1.00  0.00     0.036 A 
ENDBRANCH  37  38
ENDBRANCH  13  37
TORSDOF 11
ENDMDL
MODEL 6
REMARK VINA RESULT:      -8.7      2.159      6.403
REMARK  11 active torsions:
REMARK  status: ('A' for Active; 'I' for Inactive)
REMARK    1  A    between atoms: N_13  and  C_14 
REMARK    2  A    between atoms: C_14  and  C_15 
REMARK    3  A    between atoms: N_20  and  C_21 
REMARK    4  A    between atoms: C_21  and  C_22 
REMARK    5  A    between atoms: C_22  and  O_23 
REMARK    6  A    between atoms: C_22  and  C_24 
REMARK    7  A    between atoms: C_24  and  N_25 
REMARK    8  A    between atoms: N_25  and  C_27 
REMARK    9  A    between atoms: N_25  and  C_34 
REMARK   10  A    between atoms: C_27  and  C_28 
REMARK   11  A    between atoms: C_34  and  C_35 
ROOT
HETATM    1  C   UNL     1      -3.607   5.222 -35.338  1.00  0.00     0.163 C 
HETATM    2  N   UNL     1      -3.527   5.585 -33.932  1.00  0.00    -0.285 N 
HETATM    3  C   UNL     1      -2.284   5.745 -33.312  1.00  0.00     0.332 A 
HETATM    4  O   UNL     1      -1.228   5.574 -33.922  1.00  0.00    -0.246 OA
HETATM    5  N   UNL     1      -2.293   6.089 -31.942  1.00  0.00    -0.269 N 
HETATM    6  C   UNL     1      -1.012   6.240 -31.278  1.00  0.00     0.164 C 
HETATM    7  C   UNL     1      -3.428   6.165 -31.137  1.00  0.00     0.282 A 
HETATM    8  O   UNL     1      -3.417   6.295 -29.914  1.00  0.00    -0.265 OA
HETATM    9  C   UNL     1      -4.638   6.018 -31.865  1.00  0.00     0.166 A 
HETATM   10  C   UNL     1      -4.675   5.731 -33.192  1.00  0.00     0.186 A 
HETATM   11  N   UNL     1      -5.948   5.555 -33.631  1.00  0.00    -0.044 NA
HETATM   12  C   UNL     1      -6.713   5.750 -32.579  1.00  0.00     0.705 A 
HETATM   13  N   UNL     1      -8.055   5.629 -32.510  1.00  0.00    -0.218 N 
HETATM   14  N   UNL     1      -5.949   6.045 -31.468  1.00  0.00    -0.170 N 
HETATM   15  H   UNL     1      -8.590   6.224 -31.884  1.00  0.00     0.178 HD
ENDROOT
BRANCH  14  16
HETATM   16  C   UNL     1      -6.406   6.210 -30.097  1.00  0.00     0.181 C 
BRANCH  16  17
HETATM   17  C   UNL     1      -6.812   4.862 -29.491  1.00  0.00     0.163 C 
BRANCH  17  18
HETATM   18  O   UNL     1      -7.136   5.001 -28.104  1.00  0.00    -0.392 OA
HETATM   19  H   UNL     1      -6.751   5.845 -27.780  1.00  0.00     0.210 HD
ENDBRANCH  17  18
BRANCH  17  20
HETATM   20  C   UNL     1      -5.729   3.774 -29.674  1.00  0.00     0.268 C 
BRANCH  20  21
HETATM   21  N   UNL     1      -6.104   2.611 -30.600  1.00  0.00    -0.061 N 
HETATM   22  H   UNL     1      -5.698   2.772 -31.525  1.00  0.00     0.280 HD
BRANCH  21  23
HETATM   23  C   UNL     1      -5.561   1.274 -30.110  1.00  0.00     0.273 C 
BRANCH  23  24
HETATM   24  C   UNL     1      -4.948   0.403 -31.175  1.00  0.00    -0.033 A 
HETATM   25  C   UNL     1      -3.628   0.614 -31.605  1.00  0.00     0.009 A 
HETATM   26  C   UNL     1      -3.076  -0.189 -32.604  1.00  0.00     0.001 A 
HETATM   27  C   UNL     1      -3.831  -1.210 -33.176  1.00  0.00     0.000 A 
HETATM   28  C   UNL     1      -5.137  -1.435 -32.751  1.00  0.00     0.001 A 
HETATM   29  C   UNL     1      -5.696  -0.634 -31.755  1.00  0.00     0.009 A 
ENDBRANCH  23  24
ENDBRANCH  21  23
BRANCH  21  30
HETATM   30  C   UNL     1      -7.614   2.575 -30.816  1.00  0.00     0.273 C 
BRANCH  30  31
HETATM   31  C   UNL     1      -8.015   1.848 -32.074  1.00  0.00    -0.033 A 
HETATM   32  C   UNL     1      -9.052   0.901 -32.046  1.00  0.00     0.009 A 
HETATM   33  C   UNL     1      -9.414   0.217 -33.208  1.00  0.00     0.001 A 
HETATM   34  C   UNL     1      -8.750   0.473 -34.405  1.00  0.00     0.000 A 
HETATM   35  C   UNL     1      -7.726   1.418 -34.446  1.00  0.00     0.001 A 
HETATM   36  C   UNL     1      -7.361   2.105 -33.288  1.00  0.00     0.009 A 
ENDBRANCH  30  31
ENDBRANCH  21  30
ENDBRANCH  20  21
ENDBRANCH  17  20
ENDBRANCH  16  17
ENDBRANCH  14  16
BRANCH  13  37
HETATM   37  C   UNL     1      -8.770   5.508 -33.786  1.00  0.00     0.203 C 
BRANCH  37  38
HETATM   38  C   UNL     1      -9.924   4.560 -33.729  1.00  0.00     0.070 A 
HETATM   39  O   UNL     1     -10.525   4.383 -32.512  1.00  0.00    -0.325 OA
HETATM   40  C   UNL     1     -11.548   3.510 -32.703  1.00  0.00     0.142 A 
HETATM   41  C   UNL     1     -11.615   3.123 -34.020  1.00  0.00     0.027 A 
HETATM   42  C   UNL     1     -10.565   3.801 -34.686  1.00  0.00     0.036 A 
ENDBRANCH  37  38
ENDBRANCH  13  37
TORSDOF 11
ENDMDL
MODEL 7
REMARK VINA RESULT:      -8.6      2.098      7.343
REMARK  11 active torsions:
REMARK  status: ('A' for Active; 'I' for Inactive)
REMARK    1  A    between atoms: N_13  and  C_14 
REMARK    2  A    between atoms: C_14  and  C_15 
REMARK    3  A    between atoms: N_20  and  C_21 
REMARK    4  A    between atoms: C_21  and  C_22 
REMARK    5  A    between atoms: C_22  and  O_23 
REMARK    6  A    between atoms: C_22  and  C_24 
REMARK    7  A    between atoms: C_24  and  N_25 
REMARK    8  A    between atoms: N_25  and  C_27 
REMARK    9  A    between atoms: N_25  and  C_34 
REMARK   10  A    between atoms: C_27  and  C_28 
REMARK   11  A    between atoms: C_34  and  C_35 
ROOT
HETATM    1  C   UNL     1     -10.907   1.536 -34.441  1.00  0.00     0.163 C 
HETATM    2  N   UNL     1     -10.188   1.865 -33.221  1.00  0.00    -0.285 N 
HETATM    3  C   UNL     1     -10.639   2.894 -32.389  1.00  0.00     0.332 A 
HETATM    4  O   UNL     1     -11.641   3.557 -32.662  1.00  0.00    -0.246 OA
HETATM    5  N   UNL     1      -9.879   3.158 -31.229  1.00  0.00    -0.269 N 
HETATM    6  C   UNL     1     -10.322   4.234 -30.364  1.00  0.00     0.164 C 
HETATM    7  C   UNL     1      -8.660   2.559 -30.909  1.00  0.00     0.282 A 
HETATM    8  O   UNL     1      -7.921   2.912 -29.992  1.00  0.00    -0.265 OA
HETATM    9  C   UNL     1      -8.306   1.510 -31.797  1.00  0.00     0.166 A 
HETATM   10  C   UNL     1      -9.032   1.194 -32.900  1.00  0.00     0.186 A 
HETATM   11  N   UNL     1      -8.437   0.215 -33.629  1.00  0.00    -0.044 NA
HETATM   12  C   UNL     1      -7.342  -0.097 -32.970  1.00  0.00     0.705 A 
HETATM   13  N   UNL     1      -6.393  -0.984 -33.335  1.00  0.00    -0.218 N 
HETATM   14  N   UNL     1      -7.223   0.671 -31.830  1.00  0.00    -0.170 N 
HETATM   15  H   UNL     1      -5.887  -1.509 -32.628  1.00  0.00     0.178 HD
ENDROOT
BRANCH  14  16
HETATM   16  C   UNL     1      -6.103   0.713 -30.902  1.00  0.00     0.181 C 
BRANCH  16  17
HETATM   17  C   UNL     1      -4.818   1.147 -31.616  1.00  0.00     0.163 C 
BRANCH  17  18
HETATM   18  O   UNL     1      -3.805   0.143 -31.503  1.00  0.00    -0.392 OA
HETATM   19  H   UNL     1      -4.005  -0.572 -32.146  1.00  0.00     0.210 HD
ENDBRANCH  17  18
BRANCH  17  20
HETATM   20  C   UNL     1      -4.279   2.502 -31.105  1.00  0.00     0.268 C 
BRANCH  20  21
HETATM   21  N   UNL     1      -4.113   3.596 -32.167  1.00  0.00    -0.061 N 
HETATM   22  H   UNL     1      -4.263   4.510 -31.735  1.00  0.00     0.280 HD
BRANCH  21  23
HETATM   23  C   UNL     1      -2.713   3.619 -32.769  1.00  0.00     0.273 C 
BRANCH  23  24
HETATM   24  C   UNL     1      -1.897   4.842 -32.444  1.00  0.00    -0.033 A 
HETATM   25  C   UNL     1      -1.836   5.924 -33.337  1.00  0.00     0.009 A 
HETATM   26  C   UNL     1      -1.064   7.046 -33.033  1.00  0.00     0.001 A 
HETATM   27  C   UNL     1      -0.351   7.100 -31.838  1.00  0.00     0.000 A 
HETATM   28  C   UNL     1      -0.410   6.038 -30.940  1.00  0.00     0.001 A 
HETATM   29  C   UNL     1      -1.178   4.912 -31.240  1.00  0.00     0.009 A 
ENDBRANCH  23  24
ENDBRANCH  21  23
BRANCH  21  30
HETATM   30  C   UNL     1      -5.197   3.465 -33.233  1.00  0.00     0.273 C 
BRANCH  30  31
HETATM   31  C   UNL     1      -6.314   4.462 -33.067  1.00  0.00    -0.033 A 
HETATM   32  C   UNL     1      -6.255   5.432 -32.053  1.00  0.00     0.009 A 
HETATM   33  C   UNL     1      -7.296   6.348 -31.890  1.00  0.00     0.001 A 
HETATM   34  C   UNL     1      -8.401   6.306 -32.736  1.00  0.00     0.000 A 
HETATM   35  C   UNL     1      -8.466   5.354 -33.752  1.00  0.00     0.001 A 
HETATM   36  C   UNL     1      -7.427   4.438 -33.920  1.00  0.00     0.009 A 
ENDBRANCH  30  31
ENDBRANCH  21  30
ENDBRANCH  20  21
ENDBRANCH  17  20
ENDBRANCH  16  17
ENDBRANCH  14  16
BRANCH  13  37
HETATM   37  C   UNL     1      -6.721  -1.875 -34.453  1.00  0.00     0.203 C 
BRANCH  37  38
HETATM   38  C   UNL     1      -5.910  -3.129 -34.469  1.00  0.00     0.070 A 
HETATM   39  O   UNL     1      -4.621  -3.043 -34.016  1.00  0.00    -0.325 OA
HETATM   40  C   UNL     1      -4.091  -4.291 -34.099  1.00  0.00     0.142 A 
HETATM   41  C   UNL     1      -5.016  -5.177 -34.597  1.00  0.00     0.027 A 
HETATM   42  C   UNL     1      -6.194  -4.428 -34.837  1.00  0.00     0.036 A 
ENDBRANCH  37  38
ENDBRANCH  13  37
TORSDOF 11
ENDMDL
MODEL 8
REMARK VINA RESULT:      -8.6      2.577      8.258
REMARK  11 active torsions:
REMARK  status: ('A' for Active; 'I' for Inactive)
REMARK    1  A    between atoms: N_13  and  C_14 
REMARK    2  A    between atoms: C_14  and  C_15 
REMARK    3  A    between atoms: N_20  and  C_21 
REMARK    4  A    between atoms: C_21  and  C_22 
REMARK    5  A    between atoms: C_22  and  O_23 
REMARK    6  A    between atoms: C_22  and  C_24 
REMARK    7  A    between atoms: C_24  and  N_25 
REMARK    8  A    between atoms: N_25  and  C_27 
REMARK    9  A    between atoms: N_25  and  C_34 
REMARK   10  A    between atoms: C_27  and  C_28 
REMARK   11  A    between atoms: C_34  and  C_35 
ROOT
HETATM    1  C   UNL     1      -6.719  -2.483 -34.551  1.00  0.00     0.163 C 
HETATM    2  N   UNL     1      -6.182  -1.510 -33.614  1.00  0.00    -0.285 N 
HETATM    3  C   UNL     1      -4.845  -1.581 -33.209  1.00  0.00     0.332 A 
HETATM    4  O   UNL     1      -4.090  -2.466 -33.617  1.00  0.00    -0.246 OA
HETATM    5  N   UNL     1      -4.403  -0.606 -32.289  1.00  0.00    -0.269 N 
HETATM    6  C   UNL     1      -3.024  -0.676 -31.844  1.00  0.00     0.164 C 
HETATM    7  C   UNL     1      -5.214   0.343 -31.667  1.00  0.00     0.282 A 
HETATM    8  O   UNL     1      -4.862   1.074 -30.744  1.00  0.00    -0.265 OA
HETATM    9  C   UNL     1      -6.543   0.353 -32.167  1.00  0.00     0.166 A 
HETATM   10  C   UNL     1      -6.997  -0.540 -33.085  1.00  0.00     0.186 A 
HETATM   11  N   UNL     1      -8.322  -0.373 -33.333  1.00  0.00    -0.044 NA
HETATM   12  C   UNL     1      -8.695   0.639 -32.580  1.00  0.00     0.705 A 
HETATM   13  N   UNL     1      -9.940   1.141 -32.444  1.00  0.00    -0.218 N 
HETATM   14  N   UNL     1      -7.630   1.124 -31.849  1.00  0.00    -0.170 N 
HETATM   15  H   UNL     1     -10.075   2.133 -32.273  1.00  0.00     0.178 HD
ENDROOT
BRANCH  14  16
HETATM   16  C   UNL     1      -7.656   2.153 -30.821  1.00  0.00     0.181 C 
BRANCH  16  17
HETATM   17  C   UNL     1      -7.652   3.551 -31.448  1.00  0.00     0.163 C 
BRANCH  17  18
HETATM   18  O   UNL     1      -8.953   3.897 -31.935  1.00  0.00    -0.392 OA
HETATM   19  H   UNL     1      -9.319   3.122 -32.414  1.00  0.00     0.210 HD
ENDBRANCH  17  18
BRANCH  17  20
HETATM   20  C   UNL     1      -6.609   3.697 -32.578  1.00  0.00     0.268 C 
BRANCH  20  21
HETATM   21  N   UNL     1      -5.433   4.635 -32.282  1.00  0.00    -0.061 N 
HETATM   22  H   UNL     1      -5.507   5.466 -32.873  1.00  0.00     0.280 HD
BRANCH  21  23
HETATM   23  C   UNL     1      -5.422   5.123 -30.838  1.00  0.00     0.273 C 
BRANCH  23  24
HETATM   24  C   UNL     1      -4.766   6.461 -30.620  1.00  0.00    -0.033 A 
HETATM   25  C   UNL     1      -5.221   7.603 -31.298  1.00  0.00     0.009 A 
HETATM   26  C   UNL     1      -4.596   8.836 -31.100  1.00  0.00     0.001 A 
HETATM   27  C   UNL     1      -3.519   8.939 -30.223  1.00  0.00     0.000 A 
HETATM   28  C   UNL     1      -3.066   7.816 -29.537  1.00  0.00     0.001 A 
HETATM   29  C   UNL     1      -3.684   6.581 -29.733  1.00  0.00     0.009 A 
ENDBRANCH  23  24
ENDBRANCH  21  23
BRANCH  21  30
HETATM   30  C   UNL     1      -4.116   3.970 -32.675  1.00  0.00     0.273 C 
BRANCH  30  31
HETATM   31  C   UNL     1      -3.001   4.956 -32.908  1.00  0.00    -0.033 A 
HETATM   32  C   UNL     1      -1.785   4.829 -32.217  1.00  0.00     0.009 A 
HETATM   33  C   UNL     1      -0.756   5.751 -32.422  1.00  0.00     0.001 A 
HETATM   34  C   UNL     1      -0.930   6.802 -33.317  1.00  0.00     0.000 A 
HETATM   35  C   UNL     1      -2.129   6.933 -34.016  1.00  0.00     0.001 A 
HETATM   36  C   UNL     1      -3.160   6.014 -33.816  1.00  0.00     0.009 A 
ENDBRANCH  30  31
ENDBRANCH  21  30
ENDBRANCH  20  21
ENDBRANCH  17  20
ENDBRANCH  16  17
ENDBRANCH  14  16
BRANCH  13  37
HETATM   37  C   UNL     1     -10.944   0.679 -33.410  1.00  0.00     0.203 C 
BRANCH  37  38
HETATM   38  C   UNL     1     -11.396   1.747 -34.351  1.00  0.00     0.070 A 
HETATM   39  O   UNL     1     -10.677   2.912 -34.362  1.00  0.00    -0.325 OA
HETATM   40  C   UNL     1     -11.247   3.717 -35.297  1.00  0.00     0.142 A 
HETATM   41  C   UNL     1     -12.319   3.090 -35.885  1.00  0.00     0.027 A 
HETATM   42  C   UNL     1     -12.418   1.817 -35.276  1.00  0.00     0.036 A 
ENDBRANCH  37  38
ENDBRANCH  13  37
TORSDOF 11
ENDMDL
MODEL 9
REMARK VINA RESULT:      -8.6      3.973      6.126
REMARK  11 active torsions:
REMARK  status: ('A' for Active; 'I' for Inactive)
REMARK    1  A    between atoms: N_13  and  C_14 
REMARK    2  A    between atoms: C_14  and  C_15 
REMARK    3  A    between atoms: N_20  and  C_21 
REMARK    4  A    between atoms: C_21  and  C_22 
REMARK    5  A    between atoms: C_22  and  O_23 
REMARK    6  A    between atoms: C_22  and  C_24 
REMARK    7  A    between atoms: C_24  and  N_25 
REMARK    8  A    between atoms: N_25  and  C_27 
REMARK    9  A    between atoms: N_25  and  C_34 
REMARK   10  A    between atoms: C_27  and  C_28 
REMARK   11  A    between atoms: C_34  and  C_35 
ROOT
HETATM    1  C   UNL     1      -0.227   7.063 -32.189  1.00  0.00     0.163 C 
HETATM    2  N   UNL     1      -1.556   6.552 -32.484  1.00  0.00    -0.285 N 
HETATM    3  C   UNL     1      -1.910   6.216 -33.794  1.00  0.00     0.332 A 
HETATM    4  O   UNL     1      -1.124   6.350 -34.734  1.00  0.00    -0.246 OA
HETATM    5  N   UNL     1      -3.222   5.736 -33.998  1.00  0.00    -0.269 N 
HETATM    6  C   UNL     1      -3.613   5.400 -35.354  1.00  0.00     0.164 C 
HETATM    7  C   UNL     1      -4.222   5.683 -33.028  1.00  0.00     0.282 A 
HETATM    8  O   UNL     1      -5.405   5.429 -33.247  1.00  0.00    -0.265 OA
HETATM    9  C   UNL     1      -3.755   6.016 -31.729  1.00  0.00     0.166 A 
HETATM   10  C   UNL     1      -2.488   6.439 -31.482  1.00  0.00     0.186 A 
HETATM   11  N   UNL     1      -2.318   6.776 -30.177  1.00  0.00    -0.044 NA
HETATM   12  C   UNL     1      -3.478   6.545 -29.601  1.00  0.00     0.705 A 
HETATM   13  N   UNL     1      -3.813   6.783 -28.316  1.00  0.00    -0.218 N 
HETATM   14  N   UNL     1      -4.393   6.069 -30.517  1.00  0.00    -0.170 N 
HETATM   15  H   UNL     1      -4.478   6.179 -27.842  1.00  0.00     0.178 HD
ENDROOT
BRANCH  14  16
HETATM   16  C   UNL     1      -5.808   5.809 -30.303  1.00  0.00     0.181 C 
BRANCH  16  17
HETATM   17  C   UNL     1      -6.021   4.421 -29.689  1.00  0.00     0.163 C 
BRANCH  17  18
HETATM   18  O   UNL     1      -5.538   4.378 -28.343  1.00  0.00    -0.392 OA
HETATM   19  H   UNL     1      -4.564   4.253 -28.368  1.00  0.00     0.210 HD
ENDBRANCH  17  18
BRANCH  17  20
HETATM   20  C   UNL     1      -5.370   3.293 -30.521  1.00  0.00     0.268 C 
BRANCH  20  21
HETATM   21  N   UNL     1      -6.338   2.409 -31.317  1.00  0.00    -0.061 N 
HETATM   22  H   UNL     1      -6.252   1.442 -30.997  1.00  0.00     0.280 HD
BRANCH  21  23
HETATM   23  C   UNL     1      -7.794   2.810 -31.119  1.00  0.00     0.273 C 
BRANCH  23  24
HETATM   24  C   UNL     1      -8.790   2.025 -31.932  1.00  0.00    -0.033 A 
HETATM   25  C   UNL     1      -9.581   2.657 -32.905  1.00  0.00     0.009 A 
HETATM   26  C   UNL     1     -10.512   1.924 -33.642  1.00  0.00     0.001 A 
HETATM   27  C   UNL     1     -10.659   0.557 -33.418  1.00  0.00     0.000 A 
HETATM   28  C   UNL     1      -9.874  -0.083 -32.462  1.00  0.00     0.001 A 
HETATM   29  C   UNL     1      -8.943   0.645 -31.721  1.00  0.00     0.009 A 
ENDBRANCH  23  24
ENDBRANCH  21  23
BRANCH  21  30
HETATM   30  C   UNL     1      -5.942   2.389 -32.791  1.00  0.00     0.273 C 
BRANCH  30  31
HETATM   31  C   UNL     1      -6.111   1.035 -33.430  1.00  0.00    -0.033 A 
HETATM   32  C   UNL     1      -6.871   0.895 -34.603  1.00  0.00     0.009 A 
HETATM   33  C   UNL     1      -7.040  -0.361 -35.189  1.00  0.00     0.001 A 
HETATM   34  C   UNL     1      -6.452  -1.485 -34.613  1.00  0.00     0.000 A 
HETATM   35  C   UNL     1      -5.689  -1.356 -33.455  1.00  0.00     0.001 A 
HETATM   36  C   UNL     1      -5.515  -0.103 -32.866  1.00  0.00     0.009 A 
ENDBRANCH  30  31
ENDBRANCH  21  30
ENDBRANCH  20  21
ENDBRANCH  17  20
ENDBRANCH  16  17
ENDBRANCH  14  16
BRANCH  13  37
HETATM   37  C   UNL     1      -2.713   7.100 -27.397  1.00  0.00     0.203 C 
BRANCH  37  38
HETATM   38  C   UNL     1      -3.163   7.790 -26.151  1.00  0.00     0.070 A 
HETATM   39  O   UNL     1      -4.379   8.418 -26.191  1.00  0.00    -0.325 OA
HETATM   40  C   UNL     1      -4.587   8.948 -24.958  1.00  0.00     0.142 A 
HETATM   41  C   UNL     1      -3.528   8.672 -24.127  1.00  0.00     0.027 A 
HETATM   42  C   UNL     1      -2.605   7.923 -24.896  1.00  0.00     0.036 A 
ENDBRANCH  37  38
ENDBRANCH  13  37
TORSDOF 11
ENDMDL
MODEL 10
REMARK VINA RESULT:      -8.6      3.356      5.543
REMARK  11 active torsions:
REMARK  status: ('A' for Active; 'I' for Inactive)
REMARK    1  A    between atoms: N_13  and  C_14 
REMARK    2  A    between atoms: C_14  and  C_15 
REMARK    3  A    between atoms: N_20  and  C_21 
REMARK    4  A    between atoms: C_21  and  C_22 
REMARK    5  A    between atoms: C_22  and  O_23 
REMARK    6  A    between atoms: C_22  and  C_24 
REMARK    7  A    between atoms: C_24  and  N_25 
REMARK    8  A    between atoms: N_25  and  C_27 
REMARK    9  A    between atoms: N_25  and  C_34 
REMARK   10  A    between atoms: C_27  and  C_28 
REMARK   11  A    between atoms: C_34  and  C_35 
ROOT
HETATM    1  C   UNL     1      -4.239   9.640 -30.372  1.00  0.00     0.163 C 
HETATM    2  N   UNL     1      -4.770   8.514 -31.123  1.00  0.00    -0.285 N 
HETATM    3  C   UNL     1      -6.145   8.400 -31.351  1.00  0.00     0.332 A 
HETATM    4  O   UNL     1      -6.945   9.232 -30.919  1.00  0.00    -0.246 OA
HETATM    5  N   UNL     1      -6.581   7.273 -32.080  1.00  0.00    -0.269 N 
HETATM    6  C   UNL     1      -8.006   7.129 -32.309  1.00  0.00     0.164 C 
HETATM    7  C   UNL     1      -5.771   6.212 -32.485  1.00  0.00     0.282 A 
HETATM    8  O   UNL     1      -6.181   5.157 -32.966  1.00  0.00    -0.265 OA
HETATM    9  C   UNL     1      -4.392   6.437 -32.235  1.00  0.00     0.166 A 
HETATM   10  C   UNL     1      -3.926   7.530 -31.576  1.00  0.00     0.186 A 
HETATM   11  N   UNL     1      -2.583   7.466 -31.389  1.00  0.00    -0.044 NA
HETATM   12  C   UNL     1      -2.203   6.338 -31.949  1.00  0.00     0.705 A 
HETATM   13  N   UNL     1      -0.960   5.813 -31.968  1.00  0.00    -0.218 N 
HETATM   14  N   UNL     1      -3.283   5.672 -32.489  1.00  0.00    -0.170 N 
HETATM   15  H   UNL     1      -0.651   5.263 -32.763  1.00  0.00     0.178 HD
ENDROOT
BRANCH  14  16
HETATM   16  C   UNL     1      -3.300   4.346 -33.087  1.00  0.00     0.181 C 
BRANCH  16  17
HETATM   17  C   UNL     1      -3.490   3.267 -32.015  1.00  0.00     0.163 C 
BRANCH  17  18
HETATM   18  O   UNL     1      -2.507   3.393 -30.982  1.00  0.00    -0.392 OA
HETATM   19  H   UNL     1      -2.972   3.569 -30.134  1.00  0.00     0.210 HD
ENDBRANCH  17  18
BRANCH  17  20
HETATM   20  C   UNL     1      -3.464   1.836 -32.597  1.00  0.00     0.268 C 
BRANCH  20  21
HETATM   21  N   UNL     1      -4.823   1.133 -32.696  1.00  0.00    -0.061 N 
HETATM   22  H   UNL     1      -5.102   1.075 -33.678  1.00  0.00     0.280 HD
BRANCH  21  23
HETATM   23  C   UNL     1      -4.783  -0.296 -32.166  1.00  0.00     0.273 C 
BRANCH  23  24
HETATM   24  C   UNL     1      -5.111  -1.363 -33.177  1.00  0.00    -0.033 A 
HETATM   25  C   UNL     1      -6.400  -1.462 -33.725  1.00  0.00     0.009 A 
HETATM   26  C   UNL     1      -6.698  -2.465 -34.649  1.00  0.00     0.001 A 
HETATM   27  C   UNL     1      -5.714  -3.371 -35.037  1.00  0.00     0.000 A 
HETATM   28  C   UNL     1      -4.430  -3.277 -34.508  1.00  0.00     0.001 A 
HETATM   29  C   UNL     1      -4.127  -2.279 -33.582  1.00  0.00     0.009 A 
ENDBRANCH  23  24
ENDBRANCH  21  23
BRANCH  21  30
HETATM   30  C   UNL     1      -5.901   1.970 -32.013  1.00  0.00     0.273 C 
BRANCH  30  31
HETATM   31  C   UNL     1      -7.296   1.621 -32.463  1.00  0.00    -0.033 A 
HETATM   32  C   UNL     1      -7.737   1.980 -33.748  1.00  0.00     0.009 A 
HETATM   33  C   UNL     1      -9.034   1.670 -34.161  1.00  0.00     0.001 A 
HETATM   34  C   UNL     1      -9.899   1.000 -33.300  1.00  0.00     0.000 A 
HETATM   35  C   UNL     1      -9.470   0.631 -32.027  1.00  0.00     0.001 A 
HETATM   36  C   UNL     1      -8.173   0.937 -31.609  1.00  0.00     0.009 A 
ENDBRANCH  30  31
ENDBRANCH  21  30
ENDBRANCH  20  21
ENDBRANCH  17  20
ENDBRANCH  16  17
ENDBRANCH  14  16
BRANCH  13  37
HETATM   37  C   UNL     1       0.133   6.695 -31.539  1.00  0.00     0.203 C 
BRANCH  37  38
HETATM   38  C   UNL     1       0.327   6.721 -30.058  1.00  0.00     0.070 A 
HETATM   39  O   UNL     1       0.380   5.513 -29.416  1.00  0.00    -0.325 OA
HETATM   40  C   UNL     1       0.582   5.777 -28.099  1.00  0.00     0.142 A 
HETATM   41  C   UNL     1       0.659   7.132 -27.884  1.00  0.00     0.027 A 
HETATM   42  C   UNL     1       0.493   7.745 -29.149  1.00  0.00     0.036 A 
ENDBRANCH  37  38
ENDBRANCH  13  37
TORSDOF 11
ENDMDL
