MODEL 1
REMARK VINA RESULT:      -7.8      0.000      0.000
REMARK  9 active torsions:
REMARK  status: ('A' for Active; 'I' for Inactive)
REMARK    1  A    between atoms: C_4  and  C_5 
REMARK    2  A    between atoms: C_7  and  C_8 
REMARK    3  A    between atoms: C_8  and  C_9 
REMARK       I    between atoms: C_9  and  N_10 
REMARK    4  A    between atoms: N_10  and  C_11 
REMARK    5  A    between atoms: C_11  and  C_12 
REMARK    6  A    between atoms: C_12  and  N_13 
REMARK    7  A    between atoms: C_27  and  C_28 
REMARK    8  A    between atoms: C_28  and  O_29 
REMARK    9  A    between atoms: O_29  and  C_30 
ROOT
HETATM    1  C   UNL     1      -6.267   3.110 -31.374  1.00  0.00     0.166 C 
HETATM    2  N   UNL     1      -7.123   4.256 -31.010  1.00  0.00    -0.319 N 
HETATM    3  C   UNL     1      -7.109   5.118 -30.050  1.00  0.00     0.011 C 
HETATM    4  C   UNL     1      -8.238   4.554 -32.035  1.00  0.00     0.170 C 
HETATM    5  S   UNL     1      -8.988   6.085 -31.736  1.00  0.00    -0.086 SA
HETATM    6  C   UNL     1      -8.154   6.208 -30.129  1.00  0.00     0.135 C 
HETATM    7  N   UNL     1      -8.612   3.758 -32.971  1.00  0.00    -0.229 NA
HETATM    8  C   UNL     1      -8.070   2.489 -33.005  1.00  0.00     0.048 C 
HETATM    9  C   UNL     1      -8.854   1.532 -33.876  1.00  0.00     0.071 C 
HETATM   10  C   UNL     1      -6.999   2.134 -32.258  1.00  0.00     0.069 C 
ENDROOT
BRANCH   3  11
HETATM   11  C   UNL     1      -6.164   5.018 -28.889  1.00  0.00     0.156 C 
BRANCH  11  12
HETATM   12  C   UNL     1      -5.026   6.018 -28.980  1.00  0.00     0.223 C 
HETATM   13  N   UNL     1      -4.439   6.343 -27.786  1.00  0.00    -0.359 N 
HETATM   14  H   UNL     1      -4.899   6.019 -26.937  1.00  0.00     0.162 HD
HETATM   15  O   UNL     1      -4.657   6.471 -30.061  1.00  0.00    -0.273 OA
BRANCH  13  16
HETATM   16  C   UNL     1      -3.461   7.410 -27.550  1.00  0.00     0.150 C 
BRANCH  16  17
HETATM   17  C   UNL     1      -1.954   7.078 -27.635  1.00  0.00     0.254 C 
BRANCH  17  18
HETATM   18  N   UNL     1      -1.481   6.697 -29.029  1.00  0.00    -0.070 N 
HETATM   19  H   UNL     1      -2.144   5.967 -29.360  1.00  0.00     0.279 HD
HETATM   20  C   UNL     1      -1.511   7.837 -30.023  1.00  0.00     0.235 C 
HETATM   21  C   UNL     1      -1.102   7.339 -31.402  1.00  0.00     0.028 C 
HETATM   22  C   UNL     1       0.268   6.678 -31.377  1.00  0.00     0.003 C 
HETATM   23  C   UNL     1       0.308   5.562 -30.341  1.00  0.00     0.028 C 
HETATM   24  C   UNL     1      -0.107   6.058 -28.964  1.00  0.00     0.235 C 
ENDBRANCH  17  18
ENDBRANCH  16  17
ENDBRANCH  13  16
ENDBRANCH  11  12
ENDBRANCH   3  11
BRANCH   1  25
HETATM   25  C   UNL     1      -4.950   3.578 -31.999  1.00  0.00    -0.030 A 
HETATM   26  C   UNL     1      -4.875   4.210 -33.259  1.00  0.00     0.016 A 
HETATM   27  C   UNL     1      -3.646   4.633 -33.790  1.00  0.00    -0.061 A 
HETATM   28  C   UNL     1      -3.576   5.308 -35.131  1.00  0.00     0.048 C 
HETATM   29  C   UNL     1      -2.470   4.358 -33.090  1.00  0.00     0.007 A 
HETATM   30  C   UNL     1      -2.519   3.703 -31.862  1.00  0.00     0.001 A 
HETATM   31  C   UNL     1      -3.747   3.324 -31.316  1.00  0.00     0.009 A 
ENDBRANCH   1  25
BRANCH  10  32
HETATM   32  C   UNL     1      -6.511   0.741 -32.089  1.00  0.00     0.294 C 
HETATM   33  O   UNL     1      -6.850   0.091 -31.111  1.00  0.00    -0.259 OA
BRANCH  32  34
HETATM   34  O   UNL     1      -5.699   0.353 -33.086  1.00  0.00    -0.313 OA
BRANCH  34  35
HETATM   35  C   UNL     1      -5.662  -1.039 -33.489  1.00  0.00     0.124 C 
HETATM   36  C   UNL     1      -6.541  -1.302 -34.706  1.00  0.00     0.040 C 
HETATM   37  C   UNL     1      -4.233  -1.546 -33.662  1.00  0.00     0.040 C 
ENDBRANCH  34  35
ENDBRANCH  32  34
ENDBRANCH  10  32
TORSDOF 9
ENDMDL
MODEL 2
REMARK VINA RESULT:      -7.8      2.433      4.439
REMARK  9 active torsions:
REMARK  status: ('A' for Active; 'I' for Inactive)
REMARK    1  A    between atoms: C_4  and  C_5 
REMARK    2  A    between atoms: C_7  and  C_8 
REMARK    3  A    between atoms: C_8  and  C_9 
REMARK       I    between atoms: C_9  and  N_10 
REMARK    4  A    between atoms: N_10  and  C_11 
REMARK    5  A    between atoms: C_11  and  C_12 
REMARK    6  A    between atoms: C_12  and  N_13 
REMARK    7  A    between atoms: C_27  and  C_28 
REMARK    8  A    between atoms: C_28  and  O_29 
REMARK    9  A    between atoms: O_29  and  C_30 
ROOT
HETATM    1  C   UNL     1      -5.411   3.549 -31.951  1.00  0.00     0.166 C 
HETATM    2  N   UNL     1      -4.385   4.180 -32.802  1.00  0.00    -0.319 N 
HETATM    3  C   UNL     1      -3.097   4.250 -32.755  1.00  0.00     0.011 C 
HETATM    4  C   UNL     1      -4.950   4.839 -34.079  1.00  0.00     0.170 C 
HETATM    5  S   UNL     1      -3.691   5.262 -35.190  1.00  0.00    -0.086 SA
HETATM    6  C   UNL     1      -2.431   4.938 -33.925  1.00  0.00     0.135 C 
HETATM    7  N   UNL     1      -6.190   5.094 -34.290  1.00  0.00    -0.229 NA
HETATM    8  C   UNL     1      -7.086   4.880 -33.263  1.00  0.00     0.048 C 
HETATM    9  C   UNL     1      -8.414   5.572 -33.479  1.00  0.00     0.071 C 
HETATM   10  C   UNL     1      -6.760   4.194 -32.143  1.00  0.00     0.069 C 
ENDROOT
BRANCH   3  11
HETATM   11  C   UNL     1      -2.304   3.743 -31.586  1.00  0.00     0.156 C 
BRANCH  11  12
HETATM   12  C   UNL     1      -1.467   4.831 -30.938  1.00  0.00     0.223 C 
HETATM   13  N   UNL     1      -2.178   5.872 -30.404  1.00  0.00    -0.359 N 
HETATM   14  H   UNL     1      -3.174   5.914 -30.615  1.00  0.00     0.162 HD
HETATM   15  O   UNL     1      -0.242   4.750 -30.885  1.00  0.00    -0.273 OA
BRANCH  13  16
HETATM   16  C   UNL     1      -1.636   7.137 -29.895  1.00  0.00     0.150 C 
BRANCH  16  17
HETATM   17  C   UNL     1      -1.920   7.539 -28.431  1.00  0.00     0.254 C 
BRANCH  17  18
HETATM   18  N   UNL     1      -0.741   8.193 -27.728  1.00  0.00    -0.070 N 
HETATM   19  H   UNL     1      -0.921   9.216 -27.771  1.00  0.00     0.279 HD
HETATM   20  C   UNL     1      -0.599   7.806 -26.272  1.00  0.00     0.235 C 
HETATM   21  C   UNL     1       0.552   8.573 -25.637  1.00  0.00     0.028 C 
HETATM   22  C   UNL     1       1.858   8.348 -26.386  1.00  0.00     0.003 C 
HETATM   23  C   UNL     1       1.698   8.693 -27.861  1.00  0.00     0.028 C 
HETATM   24  C   UNL     1       0.543   7.932 -28.494  1.00  0.00     0.235 C 
ENDBRANCH  17  18
ENDBRANCH  16  17
ENDBRANCH  13  16
ENDBRANCH  11  12
ENDBRANCH   3  11
BRANCH   1  25
HETATM   25  C   UNL     1      -5.460   2.034 -32.171  1.00  0.00    -0.030 A 
HETATM   26  C   UNL     1      -5.957   1.442 -33.352  1.00  0.00     0.016 A 
HETATM   27  C   UNL     1      -5.973   0.047 -33.516  1.00  0.00    -0.061 A 
HETATM   28  C   UNL     1      -6.501  -0.576 -34.777  1.00  0.00     0.048 C 
HETATM   29  C   UNL     1      -5.556  -0.768 -32.462  1.00  0.00     0.007 A 
HETATM   30  C   UNL     1      -5.096  -0.203 -31.275  1.00  0.00     0.001 A 
HETATM   31  C   UNL     1      -5.039   1.184 -31.132  1.00  0.00     0.009 A 
ENDBRANCH   1  25
BRANCH  10  32
HETATM   32  C   UNL     1      -7.603   4.119 -30.922  1.00  0.00     0.294 C 
HETATM   33  O   UNL     1      -7.690   5.088 -30.182  1.00  0.00    -0.259 OA
BRANCH  32  34
HETATM   34  O   UNL     1      -8.185   2.919 -30.769  1.00  0.00    -0.313 OA
BRANCH  34  35
HETATM   35  C   UNL     1      -9.092   2.420 -31.784  1.00  0.00     0.124 C 
HETATM   36  C   UNL     1      -9.182   0.899 -31.768  1.00  0.00     0.040 C 
HETATM   37  C   UNL     1     -10.456   3.101 -31.717  1.00  0.00     0.040 C 
ENDBRANCH  34  35
ENDBRANCH  32  34
ENDBRANCH  10  32
TORSDOF 9
ENDMDL
MODEL 3
REMARK VINA RESULT:      -7.4      3.477      7.084
REMARK  9 active torsions:
REMARK  status: ('A' for Active; 'I' for Inactive)
REMARK    1  A    between atoms: C_4  and  C_5 
REMARK    2  A    between atoms: C_7  and  C_8 
REMARK    3  A    between atoms: C_8  and  C_9 
REMARK       I    between atoms: C_9  and  N_10 
REMARK    4  A    between atoms: N_10  and  C_11 
REMARK    5  A    between atoms: C_11  and  C_12 
REMARK    6  A    between atoms: C_12  and  N_13 
REMARK    7  A    between atoms: C_27  and  C_28 
REMARK    8  A    between atoms: C_28  and  O_29 
REMARK    9  A    between atoms: O_29  and  C_30 
ROOT
HETATM    1  C   UNL     1      -8.189   3.586 -32.007  1.00  0.00     0.166 C 
HETATM    2  N   UNL     1      -6.801   4.046 -32.197  1.00  0.00    -0.319 N 
HETATM    3  C   UNL     1      -5.696   3.856 -31.559  1.00  0.00     0.011 C 
HETATM    4  C   UNL     1      -6.587   4.874 -33.482  1.00  0.00     0.170 C 
HETATM    5  S   UNL     1      -4.905   5.100 -33.825  1.00  0.00    -0.086 SA
HETATM    6  C   UNL     1      -4.460   4.461 -32.185  1.00  0.00     0.135 C 
HETATM    7  N   UNL     1      -7.525   5.383 -34.197  1.00  0.00    -0.229 NA
HETATM    8  C   UNL     1      -8.821   5.294 -33.733  1.00  0.00     0.048 C 
HETATM    9  C   UNL     1      -9.767   6.248 -34.429  1.00  0.00     0.071 C 
HETATM   10  C   UNL     1      -9.172   4.496 -32.698  1.00  0.00     0.069 C 
ENDROOT
BRANCH   3  11
HETATM   11  C   UNL     1      -5.638   3.136 -30.243  1.00  0.00     0.156 C 
BRANCH  11  12
HETATM   12  C   UNL     1      -5.626   1.627 -30.408  1.00  0.00     0.223 C 
HETATM   13  N   UNL     1      -4.972   1.169 -31.520  1.00  0.00    -0.359 N 
HETATM   14  H   UNL     1      -4.688   1.859 -32.213  1.00  0.00     0.162 HD
HETATM   15  O   UNL     1      -6.150   0.889 -29.577  1.00  0.00    -0.273 OA
BRANCH  13  16
HETATM   16  C   UNL     1      -4.966  -0.207 -32.030  1.00  0.00     0.150 C 
BRANCH  16  17
HETATM   17  C   UNL     1      -3.612  -0.913 -32.266  1.00  0.00     0.254 C 
BRANCH  17  18
HETATM   18  N   UNL     1      -3.698  -2.131 -33.172  1.00  0.00    -0.070 N 
HETATM   19  H   UNL     1      -2.971  -1.990 -33.902  1.00  0.00     0.279 HD
HETATM   20  C   UNL     1      -3.406  -3.441 -32.472  1.00  0.00     0.235 C 
HETATM   21  C   UNL     1      -3.434  -4.586 -33.475  1.00  0.00     0.028 C 
HETATM   22  C   UNL     1      -4.762  -4.652 -34.216  1.00  0.00     0.003 C 
HETATM   23  C   UNL     1      -5.074  -3.317 -34.878  1.00  0.00     0.028 C 
HETATM   24  C   UNL     1      -5.040  -2.171 -33.879  1.00  0.00     0.235 C 
ENDBRANCH  17  18
ENDBRANCH  16  17
ENDBRANCH  13  16
ENDBRANCH  11  12
ENDBRANCH   3  11
BRANCH   1  25
HETATM   25  C   UNL     1      -8.354   2.126 -32.439  1.00  0.00    -0.030 A 
HETATM   26  C   UNL     1      -7.955   1.646 -33.706  1.00  0.00     0.016 A 
HETATM   27  C   UNL     1      -8.115   0.296 -34.056  1.00  0.00    -0.061 A 
HETATM   28  C   UNL     1      -7.686  -0.207 -35.406  1.00  0.00     0.048 C 
HETATM   29  C   UNL     1      -8.745  -0.571 -33.161  1.00  0.00     0.007 A 
HETATM   30  C   UNL     1      -9.178  -0.109 -31.921  1.00  0.00     0.001 A 
HETATM   31  C   UNL     1      -8.977   1.224 -31.558  1.00  0.00     0.009 A 
ENDBRANCH   1  25
BRANCH  10  32
HETATM   32  C   UNL     1     -10.494   4.522 -32.020  1.00  0.00     0.294 C 
HETATM   33  O   UNL     1     -10.747   5.406 -31.214  1.00  0.00    -0.259 OA
BRANCH  32  34
HETATM   34  O   UNL     1     -11.285   3.502 -32.390  1.00  0.00    -0.313 OA
BRANCH  34  35
HETATM   35  C   UNL     1     -11.613   3.311 -33.788  1.00  0.00     0.124 C 
HETATM   36  C   UNL     1     -11.660   1.836 -34.165  1.00  0.00     0.040 C 
HETATM   37  C   UNL     1     -12.875   4.072 -34.189  1.00  0.00     0.040 C 
ENDBRANCH  34  35
ENDBRANCH  32  34
ENDBRANCH  10  32
TORSDOF 9
ENDMDL
MODEL 4
REMARK VINA RESULT:      -7.4      1.738      2.770
REMARK  9 active torsions:
REMARK  status: ('A' for Active; 'I' for Inactive)
REMARK    1  A    between atoms: C_4  and  C_5 
REMARK    2  A    between atoms: C_7  and  C_8 
REMARK    3  A    between atoms: C_8  and  C_9 
REMARK       I    between atoms: C_9  and  N_10 
REMARK    4  A    between atoms: N_10  and  C_11 
REMARK    5  A    between atoms: C_11  and  C_12 
REMARK    6  A    between atoms: C_12  and  N_13 
REMARK    7  A    between atoms: C_27  and  C_28 
REMARK    8  A    between atoms: C_28  and  O_29 
REMARK    9  A    between atoms: O_29  and  C_30 
ROOT
HETATM    1  C   UNL     1      -5.394   1.629 -32.134  1.00  0.00     0.166 C 
HETATM    2  N   UNL     1      -6.725   1.998 -31.614  1.00  0.00    -0.319 N 
HETATM    3  C   UNL     1      -7.137   2.630 -30.567  1.00  0.00     0.011 C 
HETATM    4  C   UNL     1      -7.890   1.624 -32.556  1.00  0.00     0.170 C 
HETATM    5  S   UNL     1      -9.373   2.367 -32.062  1.00  0.00    -0.086 SA
HETATM    6  C   UNL     1      -8.628   2.869 -30.486  1.00  0.00     0.135 C 
HETATM    7  N   UNL     1      -7.802   0.824 -33.556  1.00  0.00    -0.229 NA
HETATM    8  C   UNL     1      -6.615   0.147 -33.750  1.00  0.00     0.048 C 
HETATM    9  C   UNL     1      -6.751  -1.032 -34.688  1.00  0.00     0.071 C 
HETATM   10  C   UNL     1      -5.479   0.466 -33.090  1.00  0.00     0.069 C 
ENDROOT
BRANCH   3  11
HETATM   11  C   UNL     1      -6.212   3.050 -29.463  1.00  0.00     0.156 C 
BRANCH  11  12
HETATM   12  C   UNL     1      -5.862   4.526 -29.529  1.00  0.00     0.223 C 
HETATM   13  N   UNL     1      -5.243   5.027 -28.415  1.00  0.00    -0.359 N 
HETATM   14  H   UNL     1      -5.207   4.428 -27.592  1.00  0.00     0.162 HD
HETATM   15  O   UNL     1      -6.104   5.197 -30.529  1.00  0.00    -0.273 OA
BRANCH  13  16
HETATM   16  C   UNL     1      -4.968   6.438 -28.123  1.00  0.00     0.150 C 
BRANCH  16  17
HETATM   17  C   UNL     1      -3.771   7.128 -28.816  1.00  0.00     0.254 C 
BRANCH  17  18
HETATM   18  N   UNL     1      -2.416   6.573 -28.407  1.00  0.00    -0.070 N 
HETATM   19  H   UNL     1      -2.546   5.544 -28.327  1.00  0.00     0.279 HD
HETATM   20  C   UNL     1      -1.317   6.825 -29.417  1.00  0.00     0.235 C 
HETATM   21  C   UNL     1      -0.025   6.163 -28.958  1.00  0.00     0.028 C 
HETATM   22  C   UNL     1       0.391   6.640 -27.575  1.00  0.00     0.003 C 
HETATM   23  C   UNL     1      -0.735   6.428 -26.572  1.00  0.00     0.028 C 
HETATM   24  C   UNL     1      -2.028   7.084 -27.032  1.00  0.00     0.235 C 
ENDBRANCH  17  18
ENDBRANCH  16  17
ENDBRANCH  13  16
ENDBRANCH  11  12
ENDBRANCH   3  11
BRANCH   1  25
HETATM   25  C   UNL     1      -4.687   2.836 -32.757  1.00  0.00    -0.030 A 
HETATM   26  C   UNL     1      -3.405   3.271 -32.357  1.00  0.00     0.016 A 
HETATM   27  C   UNL     1      -2.789   4.377 -32.964  1.00  0.00    -0.061 A 
HETATM   28  C   UNL     1      -1.423   4.831 -32.534  1.00  0.00     0.048 C 
HETATM   29  C   UNL     1      -3.489   5.102 -33.930  1.00  0.00     0.007 A 
HETATM   30  C   UNL     1      -4.770   4.711 -34.312  1.00  0.00     0.001 A 
HETATM   31  C   UNL     1      -5.361   3.584 -33.739  1.00  0.00     0.009 A 
ENDBRANCH   1  25
BRANCH  10  32
HETATM   32  C   UNL     1      -4.240  -0.355 -33.093  1.00  0.00     0.294 C 
HETATM   33  O   UNL     1      -3.210   0.099 -33.570  1.00  0.00    -0.259 OA
BRANCH  32  34
HETATM   34  O   UNL     1      -4.424  -1.570 -32.550  1.00  0.00    -0.313 OA
BRANCH  34  35
HETATM   35  C   UNL     1      -3.576  -2.676 -32.949  1.00  0.00     0.124 C 
HETATM   36  C   UNL     1      -3.022  -3.430 -31.747  1.00  0.00     0.040 C 
HETATM   37  C   UNL     1      -4.265  -3.588 -33.962  1.00  0.00     0.040 C 
ENDBRANCH  34  35
ENDBRANCH  32  34
ENDBRANCH  10  32
TORSDOF 9
ENDMDL
MODEL 5
REMARK VINA RESULT:      -7.4      2.402      7.346
REMARK  9 active torsions:
REMARK  status: ('A' for Active; 'I' for Inactive)
REMARK    1  A    between atoms: C_4  and  C_5 
REMARK    2  A    between atoms: C_7  and  C_8 
REMARK    3  A    between atoms: C_8  and  C_9 
REMARK       I    between atoms: C_9  and  N_10 
REMARK    4  A    between atoms: N_10  and  C_11 
REMARK    5  A    between atoms: C_11  and  C_12 
REMARK    6  A    between atoms: C_12  and  N_13 
REMARK    7  A    between atoms: C_27  and  C_28 
REMARK    8  A    between atoms: C_28  and  O_29 
REMARK    9  A    between atoms: O_29  and  C_30 
ROOT
HETATM    1  C   UNL     1      -5.063   4.360 -31.633  1.00  0.00     0.166 C 
HETATM    2  N   UNL     1      -6.351   3.829 -32.119  1.00  0.00    -0.319 N 
HETATM    3  C   UNL     1      -7.271   3.089 -31.599  1.00  0.00     0.011 C 
HETATM    4  C   UNL     1      -6.739   4.323 -33.529  1.00  0.00     0.170 C 
HETATM    5  S   UNL     1      -8.386   3.946 -33.907  1.00  0.00    -0.086 SA
HETATM    6  C   UNL     1      -8.500   2.869 -32.452  1.00  0.00     0.135 C 
HETATM    7  N   UNL     1      -5.942   4.899 -34.355  1.00  0.00    -0.229 NA
HETATM    8  C   UNL     1      -4.606   4.987 -34.019  1.00  0.00     0.048 C 
HETATM    9  C   UNL     1      -3.718   5.311 -35.201  1.00  0.00     0.071 C 
HETATM   10  C   UNL     1      -4.147   4.717 -32.776  1.00  0.00     0.069 C 
ENDROOT
BRANCH   3  11
HETATM   11  C   UNL     1      -7.114   2.429 -30.260  1.00  0.00     0.156 C 
BRANCH  11  12
HETATM   12  C   UNL     1      -6.275   1.166 -30.332  1.00  0.00     0.223 C 
HETATM   13  N   UNL     1      -6.159   0.614 -31.580  1.00  0.00    -0.359 N 
HETATM   14  H   UNL     1      -6.756   0.991 -32.314  1.00  0.00     0.162 HD
HETATM   15  O   UNL     1      -5.727   0.705 -29.334  1.00  0.00    -0.273 OA
BRANCH  13  16
HETATM   16  C   UNL     1      -5.580  -0.692 -31.912  1.00  0.00     0.150 C 
BRANCH  16  17
HETATM   17  C   UNL     1      -4.439  -0.763 -32.951  1.00  0.00     0.254 C 
BRANCH  17  18
HETATM   18  N   UNL     1      -4.414  -2.052 -33.757  1.00  0.00    -0.070 N 
HETATM   19  H   UNL     1      -3.840  -1.845 -34.599  1.00  0.00     0.279 HD
HETATM   20  C   UNL     1      -3.775  -3.219 -33.034  1.00  0.00     0.235 C 
HETATM   21  C   UNL     1      -3.722  -4.434 -33.949  1.00  0.00     0.028 C 
HETATM   22  C   UNL     1      -5.103  -4.808 -34.466  1.00  0.00     0.003 C 
HETATM   23  C   UNL     1      -5.762  -3.618 -35.150  1.00  0.00     0.028 C 
HETATM   24  C   UNL     1      -5.809  -2.401 -34.239  1.00  0.00     0.235 C 
ENDBRANCH  17  18
ENDBRANCH  16  17
ENDBRANCH  13  16
ENDBRANCH  11  12
ENDBRANCH   3  11
BRANCH   1  25
HETATM   25  C   UNL     1      -5.274   5.537 -30.675  1.00  0.00    -0.030 A 
HETATM   26  C   UNL     1      -4.993   5.467 -29.294  1.00  0.00     0.016 A 
HETATM   27  C   UNL     1      -5.190   6.575 -28.454  1.00  0.00    -0.061 A 
HETATM   28  C   UNL     1      -4.885   6.494 -26.984  1.00  0.00     0.048 C 
HETATM   29  C   UNL     1      -5.743   7.743 -28.984  1.00  0.00     0.007 A 
HETATM   30  C   UNL     1      -6.061   7.819 -30.337  1.00  0.00     0.001 A 
HETATM   31  C   UNL     1      -5.822   6.731 -31.178  1.00  0.00     0.009 A 
ENDBRANCH   1  25
BRANCH  10  32
HETATM   32  C   UNL     1      -2.712   4.582 -32.414  1.00  0.00     0.294 C 
HETATM   33  O   UNL     1      -2.307   3.547 -31.905  1.00  0.00    -0.259 OA
BRANCH  32  34
HETATM   34  O   UNL     1      -2.002   5.687 -32.696  1.00  0.00    -0.313 OA
BRANCH  34  35
HETATM   35  C   UNL     1      -1.704   6.642 -31.648  1.00  0.00     0.124 C 
HETATM   36  C   UNL     1      -0.204   6.808 -31.440  1.00  0.00     0.040 C 
HETATM   37  C   UNL     1      -2.429   7.969 -31.860  1.00  0.00     0.040 C 
ENDBRANCH  34  35
ENDBRANCH  32  34
ENDBRANCH  10  32
TORSDOF 9
ENDMDL
MODEL 6
REMARK VINA RESULT:      -7.3      2.877      8.312
REMARK  9 active torsions:
REMARK  status: ('A' for Active; 'I' for Inactive)
REMARK    1  A    between atoms: C_4  and  C_5 
REMARK    2  A    between atoms: C_7  and  C_8 
REMARK    3  A    between atoms: C_8  and  C_9 
REMARK       I    between atoms: C_9  and  N_10 
REMARK    4  A    between atoms: N_10  and  C_11 
REMARK    5  A    between atoms: C_11  and  C_12 
REMARK    6  A    between atoms: C_12  and  N_13 
REMARK    7  A    between atoms: C_27  and  C_28 
REMARK    8  A    between atoms: C_28  and  O_29 
REMARK    9  A    between atoms: O_29  and  C_30 
ROOT
HETATM    1  C   UNL     1      -6.046   4.149 -32.443  1.00  0.00     0.166 C 
HETATM    2  N   UNL     1      -6.074   2.714 -32.101  1.00  0.00    -0.319 N 
HETATM    3  C   UNL     1      -6.287   1.634 -32.774  1.00  0.00     0.011 C 
HETATM    4  C   UNL     1      -5.689   2.412 -30.636  1.00  0.00     0.170 C 
HETATM    5  S   UNL     1      -5.416   0.721 -30.383  1.00  0.00    -0.086 SA
HETATM    6  C   UNL     1      -6.116   0.338 -32.013  1.00  0.00     0.135 C 
HETATM    7  N   UNL     1      -5.621   3.284 -29.697  1.00  0.00    -0.229 NA
HETATM    8  C   UNL     1      -6.034   4.572 -29.969  1.00  0.00     0.048 C 
HETATM    9  C   UNL     1      -6.284   5.392 -28.722  1.00  0.00     0.071 C 
HETATM   10  C   UNL     1      -6.273   5.010 -31.227  1.00  0.00     0.069 C 
ENDROOT
BRANCH   3  11
HETATM   11  C   UNL     1      -6.740   1.652 -34.205  1.00  0.00     0.156 C 
BRANCH  11  12
HETATM   12  C   UNL     1      -8.247   1.527 -34.337  1.00  0.00     0.223 C 
HETATM   13  N   UNL     1      -8.932   2.713 -34.328  1.00  0.00    -0.359 N 
HETATM   14  H   UNL     1      -8.409   3.552 -34.082  1.00  0.00     0.162 HD
HETATM   15  O   UNL     1      -8.790   0.432 -34.468  1.00  0.00    -0.273 OA
BRANCH  13  16
HETATM   16  C   UNL     1     -10.386   2.886 -34.246  1.00  0.00     0.150 C 
BRANCH  16  17
HETATM   17  C   UNL     1     -11.074   2.805 -32.865  1.00  0.00     0.254 C 
BRANCH  17  18
HETATM   18  N   UNL     1     -12.345   1.971 -32.854  1.00  0.00    -0.070 N 
HETATM   19  H   UNL     1     -12.340   1.465 -31.945  1.00  0.00     0.279 HD
HETATM   20  C   UNL     1     -13.618   2.786 -32.926  1.00  0.00     0.235 C 
HETATM   21  C   UNL     1     -14.830   1.871 -32.825  1.00  0.00     0.028 C 
HETATM   22  C   UNL     1     -14.814   0.795 -33.900  1.00  0.00     0.003 C 
HETATM   23  C   UNL     1     -13.511   0.008 -33.854  1.00  0.00     0.028 C 
HETATM   24  C   UNL     1     -12.299   0.922 -33.949  1.00  0.00     0.235 C 
ENDBRANCH  17  18
ENDBRANCH  16  17
ENDBRANCH  13  16
ENDBRANCH  11  12
ENDBRANCH   3  11
BRANCH   1  25
HETATM   25  C   UNL     1      -4.753   4.518 -33.177  1.00  0.00    -0.030 A 
HETATM   26  C   UNL     1      -3.500   4.613 -32.534  1.00  0.00     0.016 A 
HETATM   27  C   UNL     1      -2.338   4.945 -33.249  1.00  0.00    -0.061 A 
HETATM   28  C   UNL     1      -1.007   5.041 -32.557  1.00  0.00     0.048 C 
HETATM   29  C   UNL     1      -2.438   5.255 -34.606  1.00  0.00     0.007 A 
HETATM   30  C   UNL     1      -3.671   5.203 -35.251  1.00  0.00     0.001 A 
HETATM   31  C   UNL     1      -4.817   4.829 -34.547  1.00  0.00     0.009 A 
ENDBRANCH   1  25
BRANCH  10  32
HETATM   32  C   UNL     1      -6.922   6.304 -31.563  1.00  0.00     0.294 C 
HETATM   33  O   UNL     1      -6.261   7.332 -31.574  1.00  0.00    -0.259 OA
BRANCH  32  34
HETATM   34  O   UNL     1      -8.235   6.174 -31.814  1.00  0.00    -0.313 OA
BRANCH  34  35
HETATM   35  C   UNL     1      -9.202   6.457 -30.772  1.00  0.00     0.124 C 
HETATM   36  C   UNL     1     -10.155   7.576 -31.170  1.00  0.00     0.040 C 
HETATM   37  C   UNL     1      -9.923   5.195 -30.303  1.00  0.00     0.040 C 
ENDBRANCH  34  35
ENDBRANCH  32  34
ENDBRANCH  10  32
TORSDOF 9
ENDMDL
MODEL 7
REMARK VINA RESULT:      -7.2      2.584      6.770
REMARK  9 active torsions:
REMARK  status: ('A' for Active; 'I' for Inactive)
REMARK    1  A    between atoms: C_4  and  C_5 
REMARK    2  A    between atoms: C_7  and  C_8 
REMARK    3  A    between atoms: C_8  and  C_9 
REMARK       I    between atoms: C_9  and  N_10 
REMARK    4  A    between atoms: N_10  and  C_11 
REMARK    5  A    between atoms: C_11  and  C_12 
REMARK    6  A    between atoms: C_12  and  N_13 
REMARK    7  A    between atoms: C_27  and  C_28 
REMARK    8  A    between atoms: C_28  and  O_29 
REMARK    9  A    between atoms: O_29  and  C_30 
ROOT
HETATM    1  C   UNL     1      -2.433   6.885 -29.555  1.00  0.00     0.166 C 
HETATM    2  N   UNL     1      -3.380   8.016 -29.548  1.00  0.00    -0.319 N 
HETATM    3  C   UNL     1      -4.341   8.378 -28.767  1.00  0.00     0.011 C 
HETATM    4  C   UNL     1      -3.130   9.048 -30.669  1.00  0.00     0.170 C 
HETATM    5  S   UNL     1      -4.039  10.500 -30.415  1.00  0.00    -0.086 SA
HETATM    6  C   UNL     1      -4.999   9.699 -29.100  1.00  0.00     0.135 C 
HETATM    7  N   UNL     1      -2.383   8.856 -31.695  1.00  0.00    -0.229 NA
HETATM    8  C   UNL     1      -1.850   7.598 -31.889  1.00  0.00     0.048 C 
HETATM    9  C   UNL     1      -1.335   7.383 -33.295  1.00  0.00     0.071 C 
HETATM   10  C   UNL     1      -1.877   6.640 -30.935  1.00  0.00     0.069 C 
ENDROOT
BRANCH   3  11
HETATM   11  C   UNL     1      -4.828   7.521 -27.636  1.00  0.00     0.156 C 
BRANCH  11  12
HETATM   12  C   UNL     1      -6.158   6.857 -27.942  1.00  0.00     0.223 C 
HETATM   13  N   UNL     1      -6.074   5.680 -28.638  1.00  0.00    -0.359 N 
HETATM   14  H   UNL     1      -5.165   5.429 -29.023  1.00  0.00     0.162 HD
HETATM   15  O   UNL     1      -7.219   7.344 -27.561  1.00  0.00    -0.273 OA
BRANCH  13  16
HETATM   16  C   UNL     1      -7.187   4.931 -29.232  1.00  0.00     0.150 C 
BRANCH  16  17
HETATM   17  C   UNL     1      -6.969   4.212 -30.583  1.00  0.00     0.254 C 
BRANCH  17  18
HETATM   18  N   UNL     1      -7.029   2.695 -30.493  1.00  0.00    -0.070 N 
HETATM   19  H   UNL     1      -7.808   2.483 -29.837  1.00  0.00     0.279 HD
HETATM   20  C   UNL     1      -7.332   2.012 -31.810  1.00  0.00     0.235 C 
HETATM   21  C   UNL     1      -7.454   0.509 -31.602  1.00  0.00     0.028 C 
HETATM   22  C   UNL     1      -6.201  -0.074 -30.965  1.00  0.00     0.003 C 
HETATM   23  C   UNL     1      -5.873   0.648 -29.665  1.00  0.00     0.028 C 
HETATM   24  C   UNL     1      -5.758   2.151 -29.870  1.00  0.00     0.235 C 
ENDBRANCH  17  18
ENDBRANCH  16  17
ENDBRANCH  13  16
ENDBRANCH  11  12
ENDBRANCH   3  11
BRANCH   1  25
HETATM   25  C   UNL     1      -1.327   7.080 -28.514  1.00  0.00    -0.030 A 
HETATM   26  C   UNL     1      -0.240   7.961 -28.699  1.00  0.00     0.016 A 
HETATM   27  C   UNL     1       0.747   8.117 -27.713  1.00  0.00    -0.061 A 
HETATM   28  C   UNL     1       1.900   9.059 -27.917  1.00  0.00     0.048 C 
HETATM   29  C   UNL     1       0.688   7.333 -26.559  1.00  0.00     0.007 A 
HETATM   30  C   UNL     1      -0.357   6.431 -26.374  1.00  0.00     0.001 A 
HETATM   31  C   UNL     1      -1.361   6.311 -27.337  1.00  0.00     0.009 A 
ENDBRANCH   1  25
BRANCH  10  32
HETATM   32  C   UNL     1      -1.520   5.215 -31.156  1.00  0.00     0.294 C 
HETATM   33  O   UNL     1      -0.345   4.879 -31.185  1.00  0.00    -0.259 OA
BRANCH  32  34
HETATM   34  O   UNL     1      -2.598   4.431 -31.321  1.00  0.00    -0.313 OA
BRANCH  34  35
HETATM   35  C   UNL     1      -2.840   3.793 -32.600  1.00  0.00     0.124 C 
HETATM   36  C   UNL     1      -3.352   2.368 -32.436  1.00  0.00     0.040 C 
HETATM   37  C   UNL     1      -3.724   4.647 -33.506  1.00  0.00     0.040 C 
ENDBRANCH  34  35
ENDBRANCH  32  34
ENDBRANCH  10  32
TORSDOF 9
ENDMDL
MODEL 8
REMARK VINA RESULT:      -7.2      3.064      7.101
REMARK  9 active torsions:
REMARK  status: ('A' for Active; 'I' for Inactive)
REMARK    1  A    between atoms: C_4  and  C_5 
REMARK    2  A    between atoms: C_7  and  C_8 
REMARK    3  A    between atoms: C_8  and  C_9 
REMARK       I    between atoms: C_9  and  N_10 
REMARK    4  A    between atoms: N_10  and  C_11 
REMARK    5  A    between atoms: C_11  and  C_12 
REMARK    6  A    between atoms: C_12  and  N_13 
REMARK    7  A    between atoms: C_27  and  C_28 
REMARK    8  A    between atoms: C_28  and  O_29 
REMARK    9  A    between atoms: O_29  and  C_30 
ROOT
HETATM    1  C   UNL     1      -5.438   2.327 -32.581  1.00  0.00     0.166 C 
HETATM    2  N   UNL     1      -4.422   3.386 -32.731  1.00  0.00    -0.319 N 
HETATM    3  C   UNL     1      -4.381   4.507 -33.370  1.00  0.00     0.011 C 
HETATM    4  C   UNL     1      -3.155   3.163 -31.879  1.00  0.00     0.170 C 
HETATM    5  S   UNL     1      -2.158   4.578 -31.834  1.00  0.00    -0.086 SA
HETATM    6  C   UNL     1      -3.139   5.342 -33.155  1.00  0.00     0.135 C 
HETATM    7  N   UNL     1      -2.835   2.059 -31.307  1.00  0.00    -0.229 NA
HETATM    8  C   UNL     1      -3.610   0.945 -31.558  1.00  0.00     0.048 C 
HETATM    9  C   UNL     1      -2.931  -0.350 -31.167  1.00  0.00     0.071 C 
HETATM   10  C   UNL     1      -4.812   1.017 -32.174  1.00  0.00     0.069 C 
ENDROOT
BRANCH   3  11
HETATM   11  C   UNL     1      -5.461   4.933 -34.321  1.00  0.00     0.156 C 
BRANCH  11  12
HETATM   12  C   UNL     1      -6.618   5.617 -33.614  1.00  0.00     0.223 C 
HETATM   13  N   UNL     1      -7.864   5.232 -34.033  1.00  0.00    -0.359 N 
HETATM   14  H   UNL     1      -7.917   4.652 -34.868  1.00  0.00     0.162 HD
HETATM   15  O   UNL     1      -6.426   6.434 -32.717  1.00  0.00    -0.273 OA
BRANCH  13  16
HETATM   16  C   UNL     1      -9.142   5.855 -33.671  1.00  0.00     0.150 C 
BRANCH  16  17
HETATM   17  C   UNL     1     -10.262   4.974 -33.075  1.00  0.00     0.254 C 
BRANCH  17  18
HETATM   18  N   UNL     1     -10.763   3.888 -34.014  1.00  0.00    -0.070 N 
HETATM   19  H   UNL     1      -9.932   3.585 -34.560  1.00  0.00     0.279 HD
HETATM   20  C   UNL     1     -11.323   2.672 -33.307  1.00  0.00     0.235 C 
HETATM   21  C   UNL     1     -11.718   1.613 -34.326  1.00  0.00     0.028 C 
HETATM   22  C   UNL     1     -12.712   2.154 -35.343  1.00  0.00     0.003 C 
HETATM   23  C   UNL     1     -12.164   3.404 -36.017  1.00  0.00     0.028 C 
HETATM   24  C   UNL     1     -11.763   4.461 -35.000  1.00  0.00     0.235 C 
ENDBRANCH  17  18
ENDBRANCH  16  17
ENDBRANCH  13  16
ENDBRANCH  11  12
ENDBRANCH   3  11
BRANCH   1  25
HETATM   25  C   UNL     1      -6.551   2.756 -31.621  1.00  0.00    -0.030 A 
HETATM   26  C   UNL     1      -6.340   3.641 -30.541  1.00  0.00     0.016 A 
HETATM   27  C   UNL     1      -7.392   4.016 -29.691  1.00  0.00    -0.061 A 
HETATM   28  C   UNL     1      -7.160   4.962 -28.546  1.00  0.00     0.048 C 
HETATM   29  C   UNL     1      -8.654   3.448 -29.876  1.00  0.00     0.007 A 
HETATM   30  C   UNL     1      -8.874   2.545 -30.913  1.00  0.00     0.001 A 
HETATM   31  C   UNL     1      -7.836   2.208 -31.783  1.00  0.00     0.009 A 
ENDBRANCH   1  25
BRANCH  10  32
HETATM   32  C   UNL     1      -5.584  -0.155 -32.663  1.00  0.00     0.294 C 
HETATM   33  O   UNL     1      -6.342  -0.743 -31.906  1.00  0.00    -0.259 OA
BRANCH  32  34
HETATM   34  O   UNL     1      -5.324  -0.446 -33.948  1.00  0.00    -0.313 OA
BRANCH  34  35
HETATM   35  C   UNL     1      -6.398  -0.865 -34.826  1.00  0.00     0.124 C 
HETATM   36  C   UNL     1      -6.807  -2.311 -34.574  1.00  0.00     0.040 C 
HETATM   37  C   UNL     1      -7.577   0.104 -34.791  1.00  0.00     0.040 C 
ENDBRANCH  34  35
ENDBRANCH  32  34
ENDBRANCH  10  32
TORSDOF 9
ENDMDL
MODEL 9
REMARK VINA RESULT:      -7.1      2.233      4.186
REMARK  9 active torsions:
REMARK  status: ('A' for Active; 'I' for Inactive)
REMARK    1  A    between atoms: C_4  and  C_5 
REMARK    2  A    between atoms: C_7  and  C_8 
REMARK    3  A    between atoms: C_8  and  C_9 
REMARK       I    between atoms: C_9  and  N_10 
REMARK    4  A    between atoms: N_10  and  C_11 
REMARK    5  A    between atoms: C_11  and  C_12 
REMARK    6  A    between atoms: C_12  and  N_13 
REMARK    7  A    between atoms: C_27  and  C_28 
REMARK    8  A    between atoms: C_28  and  O_29 
REMARK    9  A    between atoms: O_29  and  C_30 
ROOT
HETATM    1  C   UNL     1      -6.966   2.726 -32.480  1.00  0.00     0.166 C 
HETATM    2  N   UNL     1      -6.803   3.898 -31.599  1.00  0.00    -0.319 N 
HETATM    3  C   UNL     1      -6.696   5.167 -31.803  1.00  0.00     0.011 C 
HETATM    4  C   UNL     1      -6.848   3.559 -30.093  1.00  0.00     0.170 C 
HETATM    5  S   UNL     1      -6.987   4.985 -29.122  1.00  0.00    -0.086 SA
HETATM    6  C   UNL     1      -6.642   6.032 -30.564  1.00  0.00     0.135 C 
HETATM    7  N   UNL     1      -6.747   2.378 -29.600  1.00  0.00    -0.229 NA
HETATM    8  C   UNL     1      -6.458   1.335 -30.455  1.00  0.00     0.048 C 
HETATM    9  C   UNL     1      -5.978   0.093 -29.735  1.00  0.00     0.071 C 
HETATM   10  C   UNL     1      -6.517   1.458 -31.801  1.00  0.00     0.069 C 
ENDROOT
BRANCH   3  11
HETATM   11  C   UNL     1      -6.566   5.755 -33.178  1.00  0.00     0.156 C 
BRANCH  11  12
HETATM   12  C   UNL     1      -5.194   5.514 -33.784  1.00  0.00     0.223 C 
HETATM   13  N   UNL     1      -4.159   6.144 -33.147  1.00  0.00    -0.359 N 
HETATM   14  H   UNL     1      -4.397   6.832 -32.434  1.00  0.00     0.162 HD
HETATM   15  O   UNL     1      -5.046   4.782 -34.759  1.00  0.00    -0.273 OA
BRANCH  13  16
HETATM   16  C   UNL     1      -2.773   6.248 -33.617  1.00  0.00     0.150 C 
BRANCH  16  17
HETATM   17  C   UNL     1      -1.909   7.439 -33.146  1.00  0.00     0.254 C 
BRANCH  17  18
HETATM   18  N   UNL     1      -0.891   7.081 -32.075  1.00  0.00    -0.070 N 
HETATM   19  H   UNL     1       0.001   7.524 -32.376  1.00  0.00     0.279 HD
HETATM   20  C   UNL     1      -1.232   7.610 -30.699  1.00  0.00     0.235 C 
HETATM   21  C   UNL     1      -0.117   7.273 -29.719  1.00  0.00     0.028 C 
HETATM   22  C   UNL     1       0.156   5.777 -29.671  1.00  0.00     0.003 C 
HETATM   23  C   UNL     1       0.452   5.240 -31.065  1.00  0.00     0.028 C 
HETATM   24  C   UNL     1      -0.659   5.582 -32.047  1.00  0.00     0.235 C 
ENDBRANCH  17  18
ENDBRANCH  16  17
ENDBRANCH  13  16
ENDBRANCH  11  12
ENDBRANCH   3  11
BRANCH   1  25
HETATM   25  C   UNL     1      -8.401   2.621 -33.004  1.00  0.00    -0.030 A 
HETATM   26  C   UNL     1      -8.911   3.448 -34.029  1.00  0.00     0.016 A 
HETATM   27  C   UNL     1     -10.231   3.310 -34.486  1.00  0.00    -0.061 A 
HETATM   28  C   UNL     1     -10.766   4.192 -35.580  1.00  0.00     0.048 C 
HETATM   29  C   UNL     1     -11.075   2.386 -33.867  1.00  0.00     0.007 A 
HETATM   30  C   UNL     1     -10.602   1.587 -32.829  1.00  0.00     0.001 A 
HETATM   31  C   UNL     1      -9.275   1.695 -32.407  1.00  0.00     0.009 A 
ENDBRANCH   1  25
BRANCH  10  32
HETATM   32  C   UNL     1      -6.012   0.447 -32.766  1.00  0.00     0.294 C 
HETATM   33  O   UNL     1      -4.940   0.623 -33.326  1.00  0.00    -0.259 OA
BRANCH  32  34
HETATM   34  O   UNL     1      -6.854  -0.588 -32.918  1.00  0.00    -0.313 OA
BRANCH  34  35
HETATM   35  C   UNL     1      -7.182  -1.063 -34.248  1.00  0.00     0.124 C 
HETATM   36  C   UNL     1      -7.439   0.085 -35.215  1.00  0.00     0.040 C 
HETATM   37  C   UNL     1      -6.153  -2.065 -34.767  1.00  0.00     0.040 C 
ENDBRANCH  34  35
ENDBRANCH  32  34
ENDBRANCH  10  32
TORSDOF 9
ENDMDL
MODEL 10
REMARK VINA RESULT:      -7.1      2.174      7.178
REMARK  9 active torsions:
REMARK  status: ('A' for Active; 'I' for Inactive)
REMARK    1  A    between atoms: C_4  and  C_5 
REMARK    2  A    between atoms: C_7  and  C_8 
REMARK    3  A    between atoms: C_8  and  C_9 
REMARK       I    between atoms: C_9  and  N_10 
REMARK    4  A    between atoms: N_10  and  C_11 
REMARK    5  A    between atoms: C_11  and  C_12 
REMARK    6  A    between atoms: C_12  and  N_13 
REMARK    7  A    between atoms: C_27  and  C_28 
REMARK    8  A    between atoms: C_28  and  O_29 
REMARK    9  A    between atoms: O_29  and  C_30 
ROOT
HETATM    1  C   UNL     1      -4.527   7.011 -31.071  1.00  0.00     0.166 C 
HETATM    2  N   UNL     1      -5.857   6.595 -30.589  1.00  0.00    -0.319 N 
HETATM    3  C   UNL     1      -6.991   6.369 -31.162  1.00  0.00     0.011 C 
HETATM    4  C   UNL     1      -5.904   6.275 -29.079  1.00  0.00     0.170 C 
HETATM    5  S   UNL     1      -7.378   5.482 -28.639  1.00  0.00    -0.086 SA
HETATM    6  C   UNL     1      -8.092   5.852 -30.265  1.00  0.00     0.135 C 
HETATM    7  N   UNL     1      -4.995   6.594 -28.229  1.00  0.00    -0.229 NA
HETATM    8  C   UNL     1      -3.947   7.383 -28.658  1.00  0.00     0.048 C 
HETATM    9  C   UNL     1      -3.174   8.012 -27.520  1.00  0.00     0.071 C 
HETATM   10  C   UNL     1      -3.709   7.630 -29.966  1.00  0.00     0.069 C 
ENDROOT
BRANCH   3  11
HETATM   11  C   UNL     1      -7.231   6.660 -32.615  1.00  0.00     0.156 C 
BRANCH  11  12
HETATM   12  C   UNL     1      -7.465   5.399 -33.427  1.00  0.00     0.223 C 
HETATM   13  N   UNL     1      -6.654   4.343 -33.108  1.00  0.00    -0.359 N 
HETATM   14  H   UNL     1      -5.874   4.526 -32.479  1.00  0.00     0.162 HD
HETATM   15  O   UNL     1      -8.342   5.344 -34.286  1.00  0.00    -0.273 OA
BRANCH  13  16
HETATM   16  C   UNL     1      -6.525   3.081 -33.846  1.00  0.00     0.150 C 
BRANCH  16  17
HETATM   17  C   UNL     1      -7.592   1.982 -33.644  1.00  0.00     0.254 C 
BRANCH  17  18
HETATM   18  N   UNL     1      -7.024   0.575 -33.558  1.00  0.00    -0.070 N 
HETATM   19  H   UNL     1      -7.731   0.017 -33.039  1.00  0.00     0.279 HD
HETATM   20  C   UNL     1      -6.808  -0.085 -34.903  1.00  0.00     0.235 C 
HETATM   21  C   UNL     1      -6.318  -1.514 -34.711  1.00  0.00     0.028 C 
HETATM   22  C   UNL     1      -5.049  -1.565 -33.873  1.00  0.00     0.003 C 
HETATM   23  C   UNL     1      -5.256  -0.858 -32.540  1.00  0.00     0.028 C 
HETATM   24  C   UNL     1      -5.752   0.567 -32.731  1.00  0.00     0.235 C 
ENDBRANCH  17  18
ENDBRANCH  16  17
ENDBRANCH  13  16
ENDBRANCH  11  12
ENDBRANCH   3  11
BRANCH   1  25
HETATM   25  C   UNL     1      -3.794   5.851 -31.750  1.00  0.00    -0.030 A 
HETATM   26  C   UNL     1      -3.223   5.946 -33.038  1.00  0.00     0.016 A 
HETATM   27  C   UNL     1      -2.550   4.859 -33.618  1.00  0.00    -0.061 A 
HETATM   28  C   UNL     1      -1.942   4.970 -34.988  1.00  0.00     0.048 C 
HETATM   29  C   UNL     1      -2.507   3.641 -32.937  1.00  0.00     0.007 A 
HETATM   30  C   UNL     1      -3.096   3.516 -31.681  1.00  0.00     0.001 A 
HETATM   31  C   UNL     1      -3.726   4.612 -31.088  1.00  0.00     0.009 A 
ENDBRANCH   1  25
BRANCH  10  32
HETATM   32  C   UNL     1      -2.741   8.637 -30.475  1.00  0.00     0.294 C 
HETATM   33  O   UNL     1      -3.109   9.487 -31.272  1.00  0.00    -0.259 OA
BRANCH  32  34
HETATM   34  O   UNL     1      -1.507   8.466 -29.974  1.00  0.00    -0.313 OA
BRANCH  34  35
HETATM   35  C   UNL     1      -0.793   7.228 -30.215  1.00  0.00     0.124 C 
HETATM   36  C   UNL     1      -0.282   7.136 -31.647  1.00  0.00     0.040 C 
HETATM   37  C   UNL     1       0.297   6.984 -29.174  1.00  0.00     0.040 C 
ENDBRANCH  34  35
ENDBRANCH  32  34
ENDBRANCH  10  32
TORSDOF 9
ENDMDL
