MODEL 1
REMARK VINA RESULT:      -8.7      0.000      0.000
REMARK  8 active torsions:
REMARK  status: ('A' for Active; 'I' for Inactive)
REMARK    1  A    between atoms: C_2  and  C_3 
REMARK    2  A    between atoms: C_3  and  O_4 
REMARK    3  A    between atoms: O_4  and  C_5 
REMARK    4  A    between atoms: C_7  and  C_8 
REMARK    5  A    between atoms: N_9  and  C_10 
REMARK    6  A    between atoms: C_10  and  C_11 
REMARK    7  A    between atoms: C_24  and  C_25 
REMARK    8  A    between atoms: C_26  and  O_27 
ROOT
HETATM    1  C   UNL     1      -6.232   0.092 -31.693  1.00  0.00     0.159 A 
HETATM    2  N   UNL     1      -5.713   1.300 -30.994  1.00  0.00    -0.329 N 
HETATM    3  C   UNL     1      -4.364   1.563 -31.245  1.00  0.00     0.273 A 
HETATM    4  O   UNL     1      -3.661   2.439 -30.776  1.00  0.00    -0.266 OA
HETATM    5  C   UNL     1      -3.994   0.546 -32.153  1.00  0.00     0.129 A 
HETATM    6  C   UNL     1      -5.013  -0.318 -32.428  1.00  0.00     0.034 A 
HETATM    7  N   UNL     1      -2.916   0.152 -32.843  1.00  0.00    -0.272 N 
HETATM    8  H   UNL     1      -1.989   0.567 -32.878  1.00  0.00     0.189 HD
HETATM    9  N   UNL     1      -3.178  -0.959 -33.580  1.00  0.00    -0.173 NA
HETATM   10  C   UNL     1      -4.467  -1.284 -33.293  1.00  0.00     0.101 A 
ENDROOT
BRANCH   1  11
HETATM   11  C   UNL     1      -7.310   0.401 -32.705  1.00  0.00    -0.028 A 
HETATM   12  C   UNL     1      -8.667   0.104 -32.473  1.00  0.00     0.046 A 
HETATM   13  C   UNL     1      -9.651   0.386 -33.426  1.00  0.00     0.069 A 
HETATM   14  C   UNL     1      -9.286   0.982 -34.630  1.00  0.00     0.037 A 
HETATM   15  C   UNL     1      -7.945   1.279 -34.882  1.00  0.00     0.003 A 
HETATM   16  C   UNL     1      -6.965   0.986 -33.932  1.00  0.00     0.010 A 
BRANCH  13  17
HETATM   17  O   UNL     1     -10.918   0.032 -33.051  1.00  0.00    -0.348 OA
BRANCH  17  18
HETATM   18  C   UNL     1     -11.990   0.840 -33.529  1.00  0.00     0.202 C 
BRANCH  18  19
HETATM   19  C   UNL     1     -13.160  -0.067 -33.767  1.00  0.00    -0.011 C 
HETATM   20  C   UNL     1     -14.422   0.342 -33.950  1.00  0.00     0.009 C 
ENDBRANCH  18  19
ENDBRANCH  17  18
ENDBRANCH  13  17
ENDBRANCH   1  11
BRANCH   2  21
HETATM   21  C   UNL     1      -6.492   2.018 -30.010  1.00  0.00     0.167 C 
BRANCH  21  22
HETATM   22  C   UNL     1      -7.366   3.064 -30.641  1.00  0.00    -0.023 A 
HETATM   23  C   UNL     1      -6.835   4.034 -31.482  1.00  0.00     0.125 A 
HETATM   24  N   UNL     1      -7.570   4.984 -32.105  1.00  0.00    -0.273 NA
HETATM   25  C   UNL     1      -8.900   4.974 -31.869  1.00  0.00     0.116 A 
HETATM   26  C   UNL     1      -9.528   4.056 -31.046  1.00  0.00     0.020 A 
HETATM   27  C   UNL     1      -8.748   3.087 -30.425  1.00  0.00     0.012 A 
ENDBRANCH  21  22
ENDBRANCH   2  21
BRANCH  10  28
HETATM   28  C   UNL     1      -5.084  -2.478 -33.881  1.00  0.00     0.028 A 
HETATM   29  C   UNL     1      -4.449  -3.733 -33.827  1.00  0.00     0.078 A 
HETATM   30  C   UNL     1      -5.024  -4.862 -34.409  1.00  0.00     0.037 A 
HETATM   31  C   UNL     1      -6.260  -4.762 -35.042  1.00  0.00     0.003 A 
HETATM   32  C   UNL     1      -6.920  -3.536 -35.083  1.00  0.00     0.001 A 
HETATM   33  C   UNL     1      -6.338  -2.403 -34.503  1.00  0.00     0.017 A 
BRANCH  29  34
HETATM   34  O   UNL     1      -3.246  -3.923 -33.196  1.00  0.00    -0.360 OA
HETATM   35  H   UNL     1      -3.447  -3.954 -32.232  1.00  0.00     0.217 HD
ENDBRANCH  29  34
ENDBRANCH  10  28
TORSDOF 8
ENDMDL
MODEL 2
REMARK VINA RESULT:      -8.7      2.443      6.273
REMARK  8 active torsions:
REMARK  status: ('A' for Active; 'I' for Inactive)
REMARK    1  A    between atoms: C_2  and  C_3 
REMARK    2  A    between atoms: C_3  and  O_4 
REMARK    3  A    between atoms: O_4  and  C_5 
REMARK    4  A    between atoms: C_7  and  C_8 
REMARK    5  A    between atoms: N_9  and  C_10 
REMARK    6  A    between atoms: C_10  and  C_11 
REMARK    7  A    between atoms: C_24  and  C_25 
REMARK    8  A    between atoms: C_26  and  O_27 
ROOT
HETATM    1  C   UNL     1      -6.374   2.426 -33.060  1.00  0.00     0.159 A 
HETATM    2  N   UNL     1      -5.264   2.519 -32.073  1.00  0.00    -0.329 N 
HETATM    3  C   UNL     1      -5.690   2.735 -30.760  1.00  0.00     0.273 A 
HETATM    4  O   UNL     1      -5.016   2.905 -29.761  1.00  0.00    -0.266 OA
HETATM    5  C   UNL     1      -7.099   2.743 -30.869  1.00  0.00     0.129 A 
HETATM    6  C   UNL     1      -7.534   2.583 -32.152  1.00  0.00     0.034 A 
HETATM    7  N   UNL     1      -8.172   2.868 -30.078  1.00  0.00    -0.272 N 
HETATM    8  H   UNL     1      -8.216   2.995 -29.071  1.00  0.00     0.189 HD
HETATM    9  N   UNL     1      -9.326   2.799 -30.792  1.00  0.00    -0.173 NA
HETATM   10  C   UNL     1      -8.937   2.667 -32.089  1.00  0.00     0.101 A 
ENDROOT
BRANCH   1  11
HETATM   11  C   UNL     1      -6.476   1.073 -33.723  1.00  0.00    -0.028 A 
HETATM   12  C   UNL     1      -5.660  -0.012 -33.349  1.00  0.00     0.046 A 
HETATM   13  C   UNL     1      -5.759  -1.256 -33.981  1.00  0.00     0.069 A 
HETATM   14  C   UNL     1      -6.691  -1.431 -35.001  1.00  0.00     0.037 A 
HETATM   15  C   UNL     1      -7.505  -0.367 -35.392  1.00  0.00     0.003 A 
HETATM   16  C   UNL     1      -7.395   0.876 -34.764  1.00  0.00     0.010 A 
BRANCH  13  17
HETATM   17  O   UNL     1      -4.893  -2.202 -33.505  1.00  0.00    -0.348 OA
BRANCH  17  18
HETATM   18  C   UNL     1      -4.506  -3.241 -34.401  1.00  0.00     0.202 C 
BRANCH  18  19
HETATM   19  C   UNL     1      -3.696  -4.228 -33.615  1.00  0.00    -0.011 C 
HETATM   20  C   UNL     1      -3.229  -4.020 -32.377  1.00  0.00     0.009 C 
ENDBRANCH  18  19
ENDBRANCH  17  18
ENDBRANCH  13  17
ENDBRANCH   1  11
BRANCH   2  21
HETATM   21  C   UNL     1      -3.875   2.562 -32.474  1.00  0.00     0.167 C 
BRANCH  21  22
HETATM   22  C   UNL     1      -3.437   3.954 -32.832  1.00  0.00    -0.023 A 
HETATM   23  C   UNL     1      -4.206   4.759 -33.664  1.00  0.00     0.125 A 
HETATM   24  N   UNL     1      -3.884   6.029 -34.000  1.00  0.00    -0.273 NA
HETATM   25  C   UNL     1      -2.732   6.518 -33.492  1.00  0.00     0.116 A 
HETATM   26  C   UNL     1      -1.892   5.799 -32.659  1.00  0.00     0.020 A 
HETATM   27  C   UNL     1      -2.253   4.499 -32.325  1.00  0.00     0.012 A 
ENDBRANCH  21  22
ENDBRANCH   2  21
BRANCH  10  28
HETATM   28  C   UNL     1      -9.933   2.610 -33.164  1.00  0.00     0.028 A 
HETATM   29  C   UNL     1     -10.700   1.452 -33.391  1.00  0.00     0.078 A 
HETATM   30  C   UNL     1     -11.628   1.389 -34.429  1.00  0.00     0.037 A 
HETATM   31  C   UNL     1     -11.823   2.495 -35.253  1.00  0.00     0.003 A 
HETATM   32  C   UNL     1     -11.096   3.661 -35.030  1.00  0.00     0.001 A 
HETATM   33  C   UNL     1     -10.160   3.720 -33.990  1.00  0.00     0.017 A 
BRANCH  29  34
HETATM   34  O   UNL     1     -10.592   0.331 -32.608  1.00  0.00    -0.360 OA
HETATM   35  H   UNL     1     -11.469   0.219 -32.172  1.00  0.00     0.217 HD
ENDBRANCH  29  34
ENDBRANCH  10  28
TORSDOF 8
ENDMDL
MODEL 3
REMARK VINA RESULT:      -8.4      3.683      8.532
REMARK  8 active torsions:
REMARK  status: ('A' for Active; 'I' for Inactive)
REMARK    1  A    between atoms: C_2  and  C_3 
REMARK    2  A    between atoms: C_3  and  O_4 
REMARK    3  A    between atoms: O_4  and  C_5 
REMARK    4  A    between atoms: C_7  and  C_8 
REMARK    5  A    between atoms: N_9  and  C_10 
REMARK    6  A    between atoms: C_10  and  C_11 
REMARK    7  A    between atoms: C_24  and  C_25 
REMARK    8  A    between atoms: C_26  and  O_27 
ROOT
HETATM    1  C   UNL     1      -4.512   2.688 -31.036  1.00  0.00     0.159 A 
HETATM    2  N   UNL     1      -5.172   1.394 -31.364  1.00  0.00    -0.329 N 
HETATM    3  C   UNL     1      -6.437   1.243 -30.790  1.00  0.00     0.273 A 
HETATM    4  O   UNL     1      -7.182   0.282 -30.837  1.00  0.00    -0.266 OA
HETATM    5  C   UNL     1      -6.638   2.465 -30.109  1.00  0.00     0.129 A 
HETATM    6  C   UNL     1      -5.572   3.311 -30.209  1.00  0.00     0.034 A 
HETATM    7  N   UNL     1      -7.578   3.066 -29.369  1.00  0.00    -0.272 N 
HETATM    8  H   UNL     1      -8.497   2.727 -29.100  1.00  0.00     0.189 HD
HETATM    9  N   UNL     1      -7.176   4.298 -28.961  1.00  0.00    -0.173 NA
HETATM   10  C   UNL     1      -5.912   4.440 -29.443  1.00  0.00     0.101 A 
ENDROOT
BRANCH   1  11
HETATM   11  C   UNL     1      -4.280   3.566 -32.243  1.00  0.00    -0.028 A 
HETATM   12  C   UNL     1      -2.999   4.032 -32.600  1.00  0.00     0.046 A 
HETATM   13  C   UNL     1      -2.803   4.854 -33.714  1.00  0.00     0.069 A 
HETATM   14  C   UNL     1      -3.897   5.217 -34.496  1.00  0.00     0.037 A 
HETATM   15  C   UNL     1      -5.175   4.772 -34.156  1.00  0.00     0.003 A 
HETATM   16  C   UNL     1      -5.367   3.959 -33.036  1.00  0.00     0.010 A 
BRANCH  13  17
HETATM   17  O   UNL     1      -1.502   5.224 -33.921  1.00  0.00    -0.348 OA
BRANCH  17  18
HETATM   18  C   UNL     1      -1.237   6.616 -34.075  1.00  0.00     0.202 C 
BRANCH  18  19
HETATM   19  C   UNL     1      -1.296   7.233 -32.709  1.00  0.00    -0.011 C 
HETATM   20  C   UNL     1      -0.429   6.986 -31.719  1.00  0.00     0.009 C 
ENDBRANCH  18  19
ENDBRANCH  17  18
ENDBRANCH  13  17
ENDBRANCH   1  11
BRANCH   2  21
HETATM   21  C   UNL     1      -4.484   0.331 -32.061  1.00  0.00     0.167 C 
BRANCH  21  22
HETATM   22  C   UNL     1      -5.313  -0.238 -33.177  1.00  0.00    -0.023 A 
HETATM   23  C   UNL     1      -5.397  -1.610 -33.385  1.00  0.00     0.125 A 
HETATM   24  N   UNL     1      -6.148  -2.186 -34.351  1.00  0.00    -0.273 NA
HETATM   25  C   UNL     1      -6.842  -1.354 -35.158  1.00  0.00     0.116 A 
HETATM   26  C   UNL     1      -6.824   0.025 -35.040  1.00  0.00     0.020 A 
HETATM   27  C   UNL     1      -6.049   0.588 -34.033  1.00  0.00     0.012 A 
ENDBRANCH  21  22
ENDBRANCH   2  21
BRANCH  10  28
HETATM   28  C   UNL     1      -5.135   5.649 -29.152  1.00  0.00     0.028 A 
HETATM   29  C   UNL     1      -4.754   5.977 -27.837  1.00  0.00     0.078 A 
HETATM   30  C   UNL     1      -4.038   7.140 -27.557  1.00  0.00     0.037 A 
HETATM   31  C   UNL     1      -3.669   7.993 -28.595  1.00  0.00     0.003 A 
HETATM   32  C   UNL     1      -4.010   7.675 -29.907  1.00  0.00     0.001 A 
HETATM   33  C   UNL     1      -4.734   6.509 -30.185  1.00  0.00     0.017 A 
BRANCH  29  34
HETATM   34  O   UNL     1      -5.051   5.177 -26.763  1.00  0.00    -0.360 OA
HETATM   35  H   UNL     1      -5.438   4.352 -27.139  1.00  0.00     0.217 HD
ENDBRANCH  29  34
ENDBRANCH  10  28
TORSDOF 8
ENDMDL
MODEL 4
REMARK VINA RESULT:      -8.3      2.844      6.486
REMARK  8 active torsions:
REMARK  status: ('A' for Active; 'I' for Inactive)
REMARK    1  A    between atoms: C_2  and  C_3 
REMARK    2  A    between atoms: C_3  and  O_4 
REMARK    3  A    between atoms: O_4  and  C_5 
REMARK    4  A    between atoms: C_7  and  C_8 
REMARK    5  A    between atoms: N_9  and  C_10 
REMARK    6  A    between atoms: C_10  and  C_11 
REMARK    7  A    between atoms: C_24  and  C_25 
REMARK    8  A    between atoms: C_26  and  O_27 
ROOT
HETATM    1  C   UNL     1      -6.562   3.370 -34.049  1.00  0.00     0.159 A 
HETATM    2  N   UNL     1      -5.641   4.535 -33.954  1.00  0.00    -0.329 N 
HETATM    3  C   UNL     1      -6.136   5.586 -33.179  1.00  0.00     0.273 A 
HETATM    4  O   UNL     1      -5.635   6.676 -32.968  1.00  0.00    -0.266 OA
HETATM    5  C   UNL     1      -7.380   5.099 -32.720  1.00  0.00     0.129 A 
HETATM    6  C   UNL     1      -7.671   3.854 -33.195  1.00  0.00     0.034 A 
HETATM    7  N   UNL     1      -8.396   5.497 -31.944  1.00  0.00    -0.272 N 
HETATM    8  H   UNL     1      -8.509   6.365 -31.428  1.00  0.00     0.189 HD
HETATM    9  N   UNL     1      -9.371   4.553 -31.881  1.00  0.00    -0.173 NA
HETATM   10  C   UNL     1      -8.949   3.546 -32.692  1.00  0.00     0.101 A 
ENDROOT
BRANCH   1  11
HETATM   11  C   UNL     1      -6.005   2.111 -33.428  1.00  0.00    -0.028 A 
HETATM   12  C   UNL     1      -6.001   0.876 -34.105  1.00  0.00     0.046 A 
HETATM   13  C   UNL     1      -5.491  -0.283 -33.511  1.00  0.00     0.069 A 
HETATM   14  C   UNL     1      -4.968  -0.217 -32.222  1.00  0.00     0.037 A 
HETATM   15  C   UNL     1      -4.968   0.996 -31.531  1.00  0.00     0.003 A 
HETATM   16  C   UNL     1      -5.488   2.149 -32.125  1.00  0.00     0.010 A 
BRANCH  13  17
HETATM   17  O   UNL     1      -5.566  -1.400 -34.297  1.00  0.00    -0.348 OA
BRANCH  17  18
HETATM   18  C   UNL     1      -6.867  -1.886 -34.618  1.00  0.00     0.202 C 
BRANCH  18  19
HETATM   19  C   UNL     1      -6.768  -3.378 -34.732  1.00  0.00    -0.011 C 
HETATM   20  C   UNL     1      -5.622  -4.065 -34.823  1.00  0.00     0.009 C 
ENDBRANCH  18  19
ENDBRANCH  17  18
ENDBRANCH  13  17
ENDBRANCH   1  11
BRANCH   2  21
HETATM   21  C   UNL     1      -4.431   4.630 -34.740  1.00  0.00     0.167 C 
BRANCH  21  22
HETATM   22  C   UNL     1      -3.229   4.926 -33.889  1.00  0.00    -0.023 A 
HETATM   23  C   UNL     1      -2.847   4.071 -32.861  1.00  0.00     0.125 A 
HETATM   24  N   UNL     1      -1.760   4.265 -32.079  1.00  0.00    -0.273 NA
HETATM   25  C   UNL     1      -1.024   5.370 -32.324  1.00  0.00     0.116 A 
HETATM   26  C   UNL     1      -1.320   6.287 -33.318  1.00  0.00     0.020 A 
HETATM   27  C   UNL     1      -2.439   6.058 -34.111  1.00  0.00     0.012 A 
ENDBRANCH  21  22
ENDBRANCH   2  21
BRANCH  10  28
HETATM   28  C   UNL     1      -9.785   2.361 -32.908  1.00  0.00     0.028 A 
HETATM   29  C   UNL     1     -11.066   2.464 -33.483  1.00  0.00     0.078 A 
HETATM   30  C   UNL     1     -11.871   1.340 -33.665  1.00  0.00     0.037 A 
HETATM   31  C   UNL     1     -11.402   0.083 -33.291  1.00  0.00     0.003 A 
HETATM   32  C   UNL     1     -10.127  -0.046 -32.745  1.00  0.00     0.001 A 
HETATM   33  C   UNL     1      -9.323   1.084 -32.559  1.00  0.00     0.017 A 
BRANCH  29  34
HETATM   34  O   UNL     1     -11.590   3.658 -33.907  1.00  0.00    -0.360 OA
HETATM   35  H   UNL     1     -12.495   3.455 -34.237  1.00  0.00     0.217 HD
ENDBRANCH  29  34
ENDBRANCH  10  28
TORSDOF 8
ENDMDL
MODEL 5
REMARK VINA RESULT:      -8.2      2.842      6.317
REMARK  8 active torsions:
REMARK  status: ('A' for Active; 'I' for Inactive)
REMARK    1  A    between atoms: C_2  and  C_3 
REMARK    2  A    between atoms: C_3  and  O_4 
REMARK    3  A    between atoms: O_4  and  C_5 
REMARK    4  A    between atoms: C_7  and  C_8 
REMARK    5  A    between atoms: N_9  and  C_10 
REMARK    6  A    between atoms: C_10  and  C_11 
REMARK    7  A    between atoms: C_24  and  C_25 
REMARK    8  A    between atoms: C_26  and  O_27 
ROOT
HETATM    1  C   UNL     1      -5.826   3.536 -31.987  1.00  0.00     0.159 A 
HETATM    2  N   UNL     1      -4.848   4.164 -31.055  1.00  0.00    -0.329 N 
HETATM    3  C   UNL     1      -5.436   4.959 -30.069  1.00  0.00     0.273 A 
HETATM    4  O   UNL     1      -4.893   5.632 -29.212  1.00  0.00    -0.266 OA
HETATM    5  C   UNL     1      -6.820   4.825 -30.321  1.00  0.00     0.129 A 
HETATM    6  C   UNL     1      -7.091   4.040 -31.403  1.00  0.00     0.034 A 
HETATM    7  N   UNL     1      -7.985   5.249 -29.813  1.00  0.00    -0.272 N 
HETATM    8  H   UNL     1      -8.155   5.844 -29.007  1.00  0.00     0.189 HD
HETATM    9  N   UNL     1      -9.039   4.773 -30.524  1.00  0.00    -0.173 NA
HETATM   10  C   UNL     1      -8.490   4.056 -31.542  1.00  0.00     0.101 A 
ENDROOT
BRANCH   1  11
HETATM   11  C   UNL     1      -5.842   2.028 -31.914  1.00  0.00    -0.028 A 
HETATM   12  C   UNL     1      -5.761   1.218 -33.064  1.00  0.00     0.046 A 
HETATM   13  C   UNL     1      -5.789  -0.178 -32.980  1.00  0.00     0.069 A 
HETATM   14  C   UNL     1      -5.891  -0.785 -31.731  1.00  0.00     0.037 A 
HETATM   15  C   UNL     1      -5.978  -0.001 -30.579  1.00  0.00     0.003 A 
HETATM   16  C   UNL     1      -5.960   1.393 -30.670  1.00  0.00     0.010 A 
BRANCH  13  17
HETATM   17  O   UNL     1      -5.707  -0.818 -34.186  1.00  0.00    -0.348 OA
BRANCH  17  18
HETATM   18  C   UNL     1      -5.406  -2.211 -34.166  1.00  0.00     0.202 C 
BRANCH  18  19
HETATM   19  C   UNL     1      -6.608  -2.933 -34.698  1.00  0.00    -0.011 C 
HETATM   20  C   UNL     1      -6.627  -4.221 -35.064  1.00  0.00     0.009 C 
ENDBRANCH  18  19
ENDBRANCH  17  18
ENDBRANCH  13  17
ENDBRANCH   1  11
BRANCH   2  21
HETATM   21  C   UNL     1      -3.420   4.094 -31.272  1.00  0.00     0.167 C 
BRANCH  21  22
HETATM   22  C   UNL     1      -2.968   5.044 -32.344  1.00  0.00    -0.023 A 
HETATM   23  C   UNL     1      -2.842   6.406 -32.093  1.00  0.00     0.125 A 
HETATM   24  N   UNL     1      -2.412   7.308 -33.004  1.00  0.00    -0.273 NA
HETATM   25  C   UNL     1      -2.103   6.834 -34.230  1.00  0.00     0.116 A 
HETATM   26  C   UNL     1      -2.198   5.499 -34.585  1.00  0.00     0.020 A 
HETATM   27  C   UNL     1      -2.636   4.593 -33.626  1.00  0.00     0.012 A 
ENDBRANCH  21  22
ENDBRANCH   2  21
BRANCH  10  28
HETATM   28  C   UNL     1      -9.343   3.425 -32.554  1.00  0.00     0.028 A 
HETATM   29  C   UNL     1      -9.810   2.107 -32.401  1.00  0.00     0.078 A 
HETATM   30  C   UNL     1     -10.600   1.498 -33.376  1.00  0.00     0.037 A 
HETATM   31  C   UNL     1     -10.956   2.207 -34.520  1.00  0.00     0.003 A 
HETATM   32  C   UNL     1     -10.529   3.523 -34.681  1.00  0.00     0.001 A 
HETATM   33  C   UNL     1      -9.732   4.129 -33.703  1.00  0.00     0.017 A 
BRANCH  29  34
HETATM   34  O   UNL     1      -9.531   1.351 -31.291  1.00  0.00    -0.360 OA
HETATM   35  H   UNL     1      -8.557   1.199 -31.305  1.00  0.00     0.217 HD
ENDBRANCH  29  34
ENDBRANCH  10  28
TORSDOF 8
ENDMDL
MODEL 6
REMARK VINA RESULT:      -8.1      2.810      5.940
REMARK  8 active torsions:
REMARK  status: ('A' for Active; 'I' for Inactive)
REMARK    1  A    between atoms: C_2  and  C_3 
REMARK    2  A    between atoms: C_3  and  O_4 
REMARK    3  A    between atoms: O_4  and  C_5 
REMARK    4  A    between atoms: C_7  and  C_8 
REMARK    5  A    between atoms: N_9  and  C_10 
REMARK    6  A    between atoms: C_10  and  C_11 
REMARK    7  A    between atoms: C_24  and  C_25 
REMARK    8  A    between atoms: C_26  and  O_27 
ROOT
HETATM    1  C   UNL     1      -7.735   2.839 -33.666  1.00  0.00     0.159 A 
HETATM    2  N   UNL     1      -8.849   3.803 -33.448  1.00  0.00    -0.329 N 
HETATM    3  C   UNL     1     -10.041   3.206 -33.032  1.00  0.00     0.273 A 
HETATM    4  O   UNL     1     -11.122   3.728 -32.831  1.00  0.00    -0.266 OA
HETATM    5  C   UNL     1      -9.706   1.837 -32.932  1.00  0.00     0.129 A 
HETATM    6  C   UNL     1      -8.416   1.578 -33.292  1.00  0.00     0.034 A 
HETATM    7  N   UNL     1     -10.283   0.678 -32.588  1.00  0.00    -0.272 N 
HETATM    8  H   UNL     1     -11.231   0.504 -32.266  1.00  0.00     0.189 HD
HETATM    9  N   UNL     1      -9.417  -0.362 -32.707  1.00  0.00    -0.173 NA
HETATM   10  C   UNL     1      -8.266   0.183 -33.187  1.00  0.00     0.101 A 
ENDROOT
BRANCH   1  11
HETATM   11  C   UNL     1      -6.571   3.044 -32.725  1.00  0.00    -0.028 A 
HETATM   12  C   UNL     1      -5.247   3.182 -33.185  1.00  0.00     0.046 A 
HETATM   13  C   UNL     1      -4.180   3.360 -32.300  1.00  0.00     0.069 A 
HETATM   14  C   UNL     1      -4.428   3.407 -30.930  1.00  0.00     0.037 A 
HETATM   15  C   UNL     1      -5.733   3.265 -30.453  1.00  0.00     0.003 A 
HETATM   16  C   UNL     1      -6.794   3.079 -31.342  1.00  0.00     0.010 A 
BRANCH  13  17
HETATM   17  O   UNL     1      -2.958   3.472 -32.904  1.00  0.00    -0.348 OA
BRANCH  17  18
HETATM   18  C   UNL     1      -2.063   4.454 -32.387  1.00  0.00     0.202 C 
BRANCH  18  19
HETATM   19  C   UNL     1      -1.542   5.239 -33.554  1.00  0.00    -0.011 C 
HETATM   20  C   UNL     1      -1.917   5.059 -34.827  1.00  0.00     0.009 C 
ENDBRANCH  18  19
ENDBRANCH  17  18
ENDBRANCH  13  17
ENDBRANCH   1  11
BRANCH   2  21
HETATM   21  C   UNL     1      -8.744   5.199 -33.810  1.00  0.00     0.167 C 
BRANCH  21  22
HETATM   22  C   UNL     1      -8.233   6.037 -32.673  1.00  0.00    -0.023 A 
HETATM   23  C   UNL     1      -9.042   6.346 -31.585  1.00  0.00     0.125 A 
HETATM   24  N   UNL     1      -8.634   7.068 -30.517  1.00  0.00    -0.273 NA
HETATM   25  C   UNL     1      -7.360   7.516 -30.537  1.00  0.00     0.116 A 
HETATM   26  C   UNL     1      -6.475   7.270 -31.572  1.00  0.00     0.020 A 
HETATM   27  C   UNL     1      -6.920   6.518 -32.654  1.00  0.00     0.012 A 
ENDBRANCH  21  22
ENDBRANCH   2  21
BRANCH  10  28
HETATM   28  C   UNL     1      -7.108  -0.665 -33.487  1.00  0.00     0.028 A 
HETATM   29  C   UNL     1      -6.038  -0.791 -32.583  1.00  0.00     0.078 A 
HETATM   30  C   UNL     1      -4.925  -1.577 -32.880  1.00  0.00     0.037 A 
HETATM   31  C   UNL     1      -4.870  -2.272 -34.086  1.00  0.00     0.003 A 
HETATM   32  C   UNL     1      -5.931  -2.185 -34.985  1.00  0.00     0.001 A 
HETATM   33  C   UNL     1      -7.044  -1.391 -34.686  1.00  0.00     0.017 A 
BRANCH  29  34
HETATM   34  O   UNL     1      -6.027  -0.165 -31.362  1.00  0.00    -0.360 OA
HETATM   35  H   UNL     1      -6.667  -0.659 -30.799  1.00  0.00     0.217 HD
ENDBRANCH  29  34
ENDBRANCH  10  28
TORSDOF 8
ENDMDL
MODEL 7
REMARK VINA RESULT:      -8.0      1.608      2.095
REMARK  8 active torsions:
REMARK  status: ('A' for Active; 'I' for Inactive)
REMARK    1  A    between atoms: C_2  and  C_3 
REMARK    2  A    between atoms: C_3  and  O_4 
REMARK    3  A    between atoms: O_4  and  C_5 
REMARK    4  A    between atoms: C_7  and  C_8 
REMARK    5  A    between atoms: N_9  and  C_10 
REMARK    6  A    between atoms: C_10  and  C_11 
REMARK    7  A    between atoms: C_24  and  C_25 
REMARK    8  A    between atoms: C_26  and  O_27 
ROOT
HETATM    1  C   UNL     1      -7.062   1.870 -31.091  1.00  0.00     0.159 A 
HETATM    2  N   UNL     1      -6.841   3.083 -30.256  1.00  0.00    -0.329 N 
HETATM    3  C   UNL     1      -5.529   3.560 -30.288  1.00  0.00     0.273 A 
HETATM    4  O   UNL     1      -5.044   4.491 -29.671  1.00  0.00    -0.266 OA
HETATM    5  C   UNL     1      -4.880   2.681 -31.185  1.00  0.00     0.129 A 
HETATM    6  C   UNL     1      -5.703   1.701 -31.657  1.00  0.00     0.034 A 
HETATM    7  N   UNL     1      -3.669   2.505 -31.728  1.00  0.00    -0.272 N 
HETATM    8  H   UNL     1      -2.823   3.053 -31.601  1.00  0.00     0.189 HD
HETATM    9  N   UNL     1      -3.648   1.428 -32.555  1.00  0.00    -0.173 NA
HETATM   10  C   UNL     1      -4.898   0.896 -32.482  1.00  0.00     0.101 A 
ENDROOT
BRANCH   1  11
HETATM   11  C   UNL     1      -8.024   2.094 -32.234  1.00  0.00    -0.028 A 
HETATM   12  C   UNL     1      -9.208   1.346 -32.379  1.00  0.00     0.046 A 
HETATM   13  C   UNL     1     -10.082   1.559 -33.450  1.00  0.00     0.069 A 
HETATM   14  C   UNL     1      -9.781   2.539 -34.393  1.00  0.00     0.037 A 
HETATM   15  C   UNL     1      -8.609   3.287 -34.271  1.00  0.00     0.003 A 
HETATM   16  C   UNL     1      -7.735   3.064 -33.205  1.00  0.00     0.010 A 
BRANCH  13  17
HETATM   17  O   UNL     1     -11.183   0.747 -33.451  1.00  0.00    -0.348 OA
BRANCH  17  18
HETATM   18  C   UNL     1     -12.439   1.352 -33.745  1.00  0.00     0.202 C 
BRANCH  18  19
HETATM   19  C   UNL     1     -13.456   0.253 -33.816  1.00  0.00    -0.011 C 
HETATM   20  C   UNL     1     -14.736   0.416 -34.175  1.00  0.00     0.009 C 
ENDBRANCH  18  19
ENDBRANCH  17  18
ENDBRANCH  13  17
ENDBRANCH   1  11
BRANCH   2  21
HETATM   21  C   UNL     1      -7.852   3.600 -29.362  1.00  0.00     0.167 C 
BRANCH  21  22
HETATM   22  C   UNL     1      -8.755   4.587 -30.046  1.00  0.00    -0.023 A 
HETATM   23  C   UNL     1      -8.315   5.867 -30.360  1.00  0.00     0.125 A 
HETATM   24  N   UNL     1      -9.066   6.792 -31.001  1.00  0.00    -0.273 NA
HETATM   25  C   UNL     1     -10.323   6.427 -31.336  1.00  0.00     0.116 A 
HETATM   26  C   UNL     1     -10.860   5.180 -31.065  1.00  0.00     0.020 A 
HETATM   27  C   UNL     1     -10.062   4.248 -30.412  1.00  0.00     0.012 A 
ENDBRANCH  21  22
ENDBRANCH   2  21
BRANCH  10  28
HETATM   28  C   UNL     1      -5.232  -0.326 -33.221  1.00  0.00     0.028 A 
HETATM   29  C   UNL     1      -4.395  -1.456 -33.185  1.00  0.00     0.078 A 
HETATM   30  C   UNL     1      -4.699  -2.609 -33.908  1.00  0.00     0.037 A 
HETATM   31  C   UNL     1      -5.864  -2.661 -34.670  1.00  0.00     0.003 A 
HETATM   32  C   UNL     1      -6.723  -1.565 -34.699  1.00  0.00     0.001 A 
HETATM   33  C   UNL     1      -6.412  -0.407 -33.976  1.00  0.00     0.017 A 
BRANCH  29  34
HETATM   34  O   UNL     1      -3.246  -1.498 -32.436  1.00  0.00    -0.360 OA
HETATM   35  H   UNL     1      -2.509  -1.303 -33.060  1.00  0.00     0.217 HD
ENDBRANCH  29  34
ENDBRANCH  10  28
TORSDOF 8
ENDMDL
MODEL 8
REMARK VINA RESULT:      -7.9      4.317      9.377
REMARK  8 active torsions:
REMARK  status: ('A' for Active; 'I' for Inactive)
REMARK    1  A    between atoms: C_2  and  C_3 
REMARK    2  A    between atoms: C_3  and  O_4 
REMARK    3  A    between atoms: O_4  and  C_5 
REMARK    4  A    between atoms: C_7  and  C_8 
REMARK    5  A    between atoms: N_9  and  C_10 
REMARK    6  A    between atoms: C_10  and  C_11 
REMARK    7  A    between atoms: C_24  and  C_25 
REMARK    8  A    between atoms: C_26  and  O_27 
ROOT
HETATM    1  C   UNL     1      -5.196   4.715 -32.412  1.00  0.00     0.159 A 
HETATM    2  N   UNL     1      -6.209   4.303 -33.422  1.00  0.00    -0.329 N 
HETATM    3  C   UNL     1      -7.225   5.239 -33.620  1.00  0.00     0.273 A 
HETATM    4  O   UNL     1      -8.208   5.155 -34.333  1.00  0.00    -0.266 OA
HETATM    5  C   UNL     1      -6.863   6.304 -32.764  1.00  0.00     0.129 A 
HETATM    6  C   UNL     1      -5.728   6.050 -32.051  1.00  0.00     0.034 A 
HETATM    7  N   UNL     1      -7.305   7.521 -32.422  1.00  0.00    -0.272 N 
HETATM    8  H   UNL     1      -8.119   8.027 -32.762  1.00  0.00     0.189 HD
HETATM    9  N   UNL     1      -6.500   8.099 -31.494  1.00  0.00    -0.173 NA
HETATM   10  C   UNL     1      -5.541   7.173 -31.224  1.00  0.00     0.101 A 
ENDROOT
BRANCH   1  11
HETATM   11  C   UNL     1      -3.812   4.901 -32.989  1.00  0.00    -0.028 A 
HETATM   12  C   UNL     1      -2.648   4.789 -32.205  1.00  0.00     0.046 A 
HETATM   13  C   UNL     1      -1.375   4.974 -32.754  1.00  0.00     0.069 A 
HETATM   14  C   UNL     1      -1.251   5.270 -34.109  1.00  0.00     0.037 A 
HETATM   15  C   UNL     1      -2.394   5.392 -34.903  1.00  0.00     0.003 A 
HETATM   16  C   UNL     1      -3.663   5.216 -34.348  1.00  0.00     0.010 A 
BRANCH  13  17
HETATM   17  O   UNL     1      -0.349   4.837 -31.859  1.00  0.00    -0.348 OA
BRANCH  17  18
HETATM   18  C   UNL     1      -0.128   5.913 -30.951  1.00  0.00     0.202 C 
BRANCH  18  19
HETATM   19  C   UNL     1       0.245   5.309 -29.629  1.00  0.00    -0.011 C 
HETATM   20  C   UNL     1       0.565   6.007 -28.532  1.00  0.00     0.009 C 
ENDBRANCH  18  19
ENDBRANCH  17  18
ENDBRANCH  13  17
ENDBRANCH   1  11
BRANCH   2  21
HETATM   21  C   UNL     1      -6.226   2.978 -34.002  1.00  0.00     0.167 C 
BRANCH  21  22
HETATM   22  C   UNL     1      -6.251   1.905 -32.951  1.00  0.00    -0.023 A 
HETATM   23  C   UNL     1      -7.373   1.702 -32.157  1.00  0.00     0.125 A 
HETATM   24  N   UNL     1      -7.471   0.736 -31.215  1.00  0.00    -0.273 NA
HETATM   25  C   UNL     1      -6.394  -0.061 -31.048  1.00  0.00     0.116 A 
HETATM   26  C   UNL     1      -5.227   0.059 -31.782  1.00  0.00     0.020 A 
HETATM   27  C   UNL     1      -5.158   1.057 -32.748  1.00  0.00     0.012 A 
ENDBRANCH  21  22
ENDBRANCH   2  21
BRANCH  10  28
HETATM   28  C   UNL     1      -4.511   7.438 -30.215  1.00  0.00     0.028 A 
HETATM   29  C   UNL     1      -3.440   8.314 -30.474  1.00  0.00     0.078 A 
HETATM   30  C   UNL     1      -2.447   8.547 -29.524  1.00  0.00     0.037 A 
HETATM   31  C   UNL     1      -2.515   7.919 -28.282  1.00  0.00     0.003 A 
HETATM   32  C   UNL     1      -3.580   7.069 -27.993  1.00  0.00     0.001 A 
HETATM   33  C   UNL     1      -4.573   6.834 -28.951  1.00  0.00     0.017 A 
BRANCH  29  34
HETATM   34  O   UNL     1      -3.316   8.995 -31.658  1.00  0.00    -0.360 OA
HETATM   35  H   UNL     1      -3.896   9.787 -31.578  1.00  0.00     0.217 HD
ENDBRANCH  29  34
ENDBRANCH  10  28
TORSDOF 8
ENDMDL
MODEL 9
REMARK VINA RESULT:      -7.9      3.095      6.365
REMARK  8 active torsions:
REMARK  status: ('A' for Active; 'I' for Inactive)
REMARK    1  A    between atoms: C_2  and  C_3 
REMARK    2  A    between atoms: C_3  and  O_4 
REMARK    3  A    between atoms: O_4  and  C_5 
REMARK    4  A    between atoms: C_7  and  C_8 
REMARK    5  A    between atoms: N_9  and  C_10 
REMARK    6  A    between atoms: C_10  and  C_11 
REMARK    7  A    between atoms: C_24  and  C_25 
REMARK    8  A    between atoms: C_26  and  O_27 
ROOT
HETATM    1  C   UNL     1      -6.637   3.680 -32.526  1.00  0.00     0.159 A 
HETATM    2  N   UNL     1      -7.323   4.749 -31.750  1.00  0.00    -0.329 N 
HETATM    3  C   UNL     1      -7.519   4.435 -30.403  1.00  0.00     0.273 A 
HETATM    4  O   UNL     1      -8.092   5.083 -29.547  1.00  0.00    -0.266 OA
HETATM    5  C   UNL     1      -6.920   3.161 -30.272  1.00  0.00     0.129 A 
HETATM    6  C   UNL     1      -6.417   2.687 -31.449  1.00  0.00     0.034 A 
HETATM    7  N   UNL     1      -6.691   2.246 -29.323  1.00  0.00    -0.272 N 
HETATM    8  H   UNL     1      -6.925   2.273 -28.334  1.00  0.00     0.189 HD
HETATM    9  N   UNL     1      -6.047   1.160 -29.825  1.00  0.00    -0.173 NA
HETATM   10  C   UNL     1      -5.912   1.407 -31.156  1.00  0.00     0.101 A 
ENDROOT
BRANCH   1  11
HETATM   11  C   UNL     1      -5.289   4.098 -33.063  1.00  0.00    -0.028 A 
HETATM   12  C   UNL     1      -4.101   3.937 -32.324  1.00  0.00     0.046 A 
HETATM   13  C   UNL     1      -2.862   4.340 -32.831  1.00  0.00     0.069 A 
HETATM   14  C   UNL     1      -2.796   4.909 -34.101  1.00  0.00     0.037 A 
HETATM   15  C   UNL     1      -3.963   5.084 -34.848  1.00  0.00     0.003 A 
HETATM   16  C   UNL     1      -5.199   4.689 -34.332  1.00  0.00     0.010 A 
BRANCH  13  17
HETATM   17  O   UNL     1      -1.808   4.120 -31.988  1.00  0.00    -0.348 OA
BRANCH  17  18
HETATM   18  C   UNL     1      -1.445   5.180 -31.107  1.00  0.00     0.202 C 
BRANCH  18  19
HETATM   19  C   UNL     1      -0.097   5.675 -31.539  1.00  0.00    -0.011 C 
HETATM   20  C   UNL     1       0.506   6.771 -31.060  1.00  0.00     0.009 C 
ENDBRANCH  18  19
ENDBRANCH  17  18
ENDBRANCH  13  17
ENDBRANCH   1  11
BRANCH   2  21
HETATM   21  C   UNL     1      -7.889   5.921 -32.382  1.00  0.00     0.167 C 
BRANCH  21  22
HETATM   22  C   UNL     1      -9.178   5.610 -33.088  1.00  0.00    -0.023 A 
HETATM   23  C   UNL     1      -9.199   5.294 -34.442  1.00  0.00     0.125 A 
HETATM   24  N   UNL     1     -10.319   4.976 -35.129  1.00  0.00    -0.273 NA
HETATM   25  C   UNL     1     -11.479   4.984 -34.437  1.00  0.00     0.116 A 
HETATM   26  C   UNL     1     -11.569   5.288 -33.090  1.00  0.00     0.020 A 
HETATM   27  C   UNL     1     -10.400   5.604 -32.408  1.00  0.00     0.012 A 
ENDBRANCH  21  22
ENDBRANCH   2  21
BRANCH  10  28
HETATM   28  C   UNL     1      -5.295   0.414 -32.040  1.00  0.00     0.028 A 
HETATM   29  C   UNL     1      -3.905   0.191 -32.035  1.00  0.00     0.078 A 
HETATM   30  C   UNL     1      -3.316  -0.735 -32.894  1.00  0.00     0.037 A 
HETATM   31  C   UNL     1      -4.110  -1.476 -33.766  1.00  0.00     0.003 A 
HETATM   32  C   UNL     1      -5.491  -1.293 -33.769  1.00  0.00     0.001 A 
HETATM   33  C   UNL     1      -6.080  -0.358 -32.909  1.00  0.00     0.017 A 
BRANCH  29  34
HETATM   34  O   UNL     1      -3.056   0.855 -31.187  1.00  0.00    -0.360 OA
HETATM   35  H   UNL     1      -2.544   1.480 -31.751  1.00  0.00     0.217 HD
ENDBRANCH  29  34
ENDBRANCH  10  28
TORSDOF 8
ENDMDL
MODEL 10
REMARK VINA RESULT:      -7.8      3.360      6.481
REMARK  8 active torsions:
REMARK  status: ('A' for Active; 'I' for Inactive)
REMARK    1  A    between atoms: C_2  and  C_3 
REMARK    2  A    between atoms: C_3  and  O_4 
REMARK    3  A    between atoms: O_4  and  C_5 
REMARK    4  A    between atoms: C_7  and  C_8 
REMARK    5  A    between atoms: N_9  and  C_10 
REMARK    6  A    between atoms: C_10  and  C_11 
REMARK    7  A    between atoms: C_24  and  C_25 
REMARK    8  A    between atoms: C_26  and  O_27 
ROOT
HETATM    1  C   UNL     1      -7.151   4.200 -32.556  1.00  0.00     0.159 A 
HETATM    2  N   UNL     1      -7.655   5.294 -31.681  1.00  0.00    -0.329 N 
HETATM    3  C   UNL     1      -8.626   4.884 -30.765  1.00  0.00     0.273 A 
HETATM    4  O   UNL     1      -9.252   5.559 -29.968  1.00  0.00    -0.266 OA
HETATM    5  C   UNL     1      -8.739   3.496 -31.004  1.00  0.00     0.129 A 
HETATM    6  C   UNL     1      -7.933   3.064 -32.016  1.00  0.00     0.034 A 
HETATM    7  N   UNL     1      -9.418   2.442 -30.534  1.00  0.00    -0.272 N 
HETATM    8  H   UNL     1     -10.098   2.401 -29.780  1.00  0.00     0.189 HD
HETATM    9  N   UNL     1      -9.094   1.304 -31.202  1.00  0.00    -0.173 NA
HETATM   10  C   UNL     1      -8.204   1.690 -32.156  1.00  0.00     0.101 A 
ENDROOT
BRANCH   1  11
HETATM   11  C   UNL     1      -5.684   3.899 -32.357  1.00  0.00    -0.028 A 
HETATM   12  C   UNL     1      -4.694   4.357 -33.248  1.00  0.00     0.046 A 
HETATM   13  C   UNL     1      -3.341   4.059 -33.055  1.00  0.00     0.069 A 
HETATM   14  C   UNL     1      -2.959   3.299 -31.952  1.00  0.00     0.037 A 
HETATM   15  C   UNL     1      -3.926   2.830 -31.061  1.00  0.00     0.003 A 
HETATM   16  C   UNL     1      -5.277   3.121 -31.263  1.00  0.00     0.010 A 
BRANCH  13  17
HETATM   17  O   UNL     1      -2.508   4.572 -34.011  1.00  0.00    -0.348 OA
BRANCH  17  18
HETATM   18  C   UNL     1      -2.790   5.887 -34.485  1.00  0.00     0.202 C 
BRANCH  18  19
HETATM   19  C   UNL     1      -1.751   6.800 -33.906  1.00  0.00    -0.011 C 
HETATM   20  C   UNL     1      -1.961   7.656 -32.898  1.00  0.00     0.009 C 
ENDBRANCH  18  19
ENDBRANCH  17  18
ENDBRANCH  13  17
ENDBRANCH   1  11
BRANCH   2  21
HETATM   21  C   UNL     1      -7.297   6.679 -31.891  1.00  0.00     0.167 C 
BRANCH  21  22
HETATM   22  C   UNL     1      -6.404   7.200 -30.801  1.00  0.00    -0.023 A 
HETATM   23  C   UNL     1      -6.891   8.054 -29.818  1.00  0.00     0.125 A 
HETATM   24  N   UNL     1      -6.149   8.533 -28.794  1.00  0.00    -0.273 NA
HETATM   25  C   UNL     1      -4.854   8.153 -28.753  1.00  0.00     0.116 A 
HETATM   26  C   UNL     1      -4.269   7.312 -29.683  1.00  0.00     0.020 A 
HETATM   27  C   UNL     1      -5.058   6.828 -30.721  1.00  0.00     0.012 A 
ENDBRANCH  21  22
ENDBRANCH   2  21
BRANCH  10  28
HETATM   28  C   UNL     1      -7.666   0.717 -33.112  1.00  0.00     0.028 A 
HETATM   29  C   UNL     1      -6.775  -0.294 -32.705  1.00  0.00     0.078 A 
HETATM   30  C   UNL     1      -6.243  -1.203 -33.618  1.00  0.00     0.037 A 
HETATM   31  C   UNL     1      -6.610  -1.132 -34.960  1.00  0.00     0.003 A 
HETATM   32  C   UNL     1      -7.512  -0.158 -35.381  1.00  0.00     0.001 A 
HETATM   33  C   UNL     1      -8.040   0.757 -34.463  1.00  0.00     0.017 A 
BRANCH  29  34
HETATM   34  O   UNL     1      -6.387  -0.451 -31.399  1.00  0.00    -0.360 OA
HETATM   35  H   UNL     1      -6.179   0.453 -31.067  1.00  0.00     0.217 HD
ENDBRANCH  29  34
ENDBRANCH  10  28
TORSDOF 8
ENDMDL
