MODEL 1
REMARK VINA RESULT:      -8.9      0.000      0.000
REMARK  4 active torsions:
REMARK  status: ('A' for Active; 'I' for Inactive)
REMARK    1  A    between atoms: N_4  and  C_5 
REMARK    2  A    between atoms: C_16  and  C_17 
REMARK    3  A    between atoms: C_24  and  C_25 
REMARK    4  A    between atoms: C_25  and  O_26 
ROOT
HETATM    1  C   UNL     1      -8.698   1.559 -34.476  1.00  0.00     0.073 C 
HETATM    2  C   UNL     1      -7.544   0.710 -34.086  1.00  0.00     0.065 A 
HETATM    3  N   UNL     1      -7.417  -0.520 -34.588  1.00  0.00    -0.170 NA
HETATM    4  N   UNL     1      -6.278  -1.026 -34.023  1.00  0.00    -0.215 N 
HETATM    5  C   UNL     1      -5.672  -0.084 -33.190  1.00  0.00     0.165 A 
HETATM    6  C   UNL     1      -6.496   1.032 -33.196  1.00  0.00     0.039 A 
HETATM    7  N   UNL     1      -4.528  -0.208 -32.479  1.00  0.00    -0.216 NA
HETATM    8  C   UNL     1      -4.229   0.861 -31.711  1.00  0.00     0.137 A 
HETATM    9 CL   UNL     1      -2.772   0.594 -30.826  1.00  0.00    -0.062 Cl
HETATM   10  C   UNL     1      -4.976   2.034 -31.601  1.00  0.00     0.011 A 
HETATM   11  C   UNL     1      -6.144   2.123 -32.383  1.00  0.00     0.030 A 
ENDROOT
BRANCH  10  12
HETATM   12  C   UNL     1      -4.607   3.164 -30.657  1.00  0.00     0.164 C 
HETATM   13  N   UNL     1      -5.760   3.440 -29.812  1.00  0.00    -0.330 N 
HETATM   14  C   UNL     1      -6.146   4.673 -29.407  1.00  0.00     0.321 C 
HETATM   15  H   UNL     1      -6.181   2.684 -29.290  1.00  0.00     0.165 HD
HETATM   16  O   UNL     1      -7.012   4.824 -28.553  1.00  0.00    -0.247 OA
HETATM   17  N   UNL     1      -5.544   5.727 -30.020  1.00  0.00    -0.312 N 
HETATM   18  C   UNL     1      -4.575   5.640 -30.992  1.00  0.00     0.024 C 
HETATM   19  H   UNL     1      -5.884   6.635 -29.720  1.00  0.00     0.170 HD
HETATM   20  C   UNL     1      -4.090   6.958 -31.533  1.00  0.00     0.069 C 
HETATM   21  C   UNL     1      -4.118   4.420 -31.331  1.00  0.00     0.067 C 
BRANCH  21  22
HETATM   22  C   UNL     1      -3.079   4.272 -32.373  1.00  0.00     0.293 C 
HETATM   23  O   UNL     1      -3.287   4.367 -33.571  1.00  0.00    -0.259 OA
BRANCH  22  24
HETATM   24  O   UNL     1      -1.886   4.017 -31.783  1.00  0.00    -0.323 OA
HETATM   25  C   UNL     1      -0.938   5.078 -31.909  1.00  0.00     0.213 C 
ENDBRANCH  22  24
ENDBRANCH  21  22
ENDBRANCH  10  12
BRANCH   4  26
HETATM   26  C   UNL     1      -5.888  -2.372 -34.306  1.00  0.00     0.060 A 
HETATM   27  C   UNL     1      -6.857  -3.284 -34.763  1.00  0.00     0.031 A 
HETATM   28  C   UNL     1      -6.517  -4.615 -35.021  1.00  0.00     0.002 A 
HETATM   29  C   UNL     1      -5.208  -5.049 -34.831  1.00  0.00     0.000 A 
HETATM   30  C   UNL     1      -4.238  -4.154 -34.387  1.00  0.00     0.002 A 
HETATM   31  C   UNL     1      -4.574  -2.820 -34.124  1.00  0.00     0.031 A 
ENDBRANCH   4  26
TORSDOF 4
ENDMDL
MODEL 2
REMARK VINA RESULT:      -8.1      4.479      6.234
REMARK  4 active torsions:
REMARK  status: ('A' for Active; 'I' for Inactive)
REMARK    1  A    between atoms: N_4  and  C_5 
REMARK    2  A    between atoms: C_16  and  C_17 
REMARK    3  A    between atoms: C_24  and  C_25 
REMARK    4  A    between atoms: C_25  and  O_26 
ROOT
HETATM    1  C   UNL     1      -6.293   2.674 -29.744  1.00  0.00     0.073 C 
HETATM    2  C   UNL     1      -6.845   1.857 -30.854  1.00  0.00     0.065 A 
HETATM    3  N   UNL     1      -6.139   0.841 -31.356  1.00  0.00    -0.170 NA
HETATM    4  N   UNL     1      -6.914   0.319 -32.355  1.00  0.00    -0.215 N 
HETATM    5  C   UNL     1      -8.132   0.995 -32.449  1.00  0.00     0.165 A 
HETATM    6  C   UNL     1      -8.089   2.013 -31.505  1.00  0.00     0.039 A 
HETATM    7  N   UNL     1      -9.159   0.758 -33.295  1.00  0.00    -0.216 NA
HETATM    8  C   UNL     1     -10.186   1.627 -33.187  1.00  0.00     0.137 A 
HETATM    9 CL   UNL     1     -11.428   1.255 -34.325  1.00  0.00    -0.062 Cl
HETATM   10  C   UNL     1     -10.266   2.705 -32.305  1.00  0.00     0.011 A 
HETATM   11  C   UNL     1      -9.181   2.893 -31.426  1.00  0.00     0.030 A 
ENDROOT
BRANCH  10  12
HETATM   12  C   UNL     1     -11.427   3.681 -32.296  1.00  0.00     0.164 C 
HETATM   13  N   UNL     1     -12.640   2.936 -31.990  1.00  0.00    -0.330 N 
HETATM   14  C   UNL     1     -13.854   3.169 -32.544  1.00  0.00     0.321 C 
HETATM   15  H   UNL     1     -12.670   2.363 -31.158  1.00  0.00     0.165 HD
HETATM   16  O   UNL     1     -14.868   2.631 -32.113  1.00  0.00    -0.247 OA
HETATM   17  N   UNL     1     -13.878   4.004 -33.617  1.00  0.00    -0.312 N 
HETATM   18  C   UNL     1     -12.785   4.635 -34.165  1.00  0.00     0.024 C 
HETATM   19  H   UNL     1     -14.797   4.126 -34.030  1.00  0.00     0.170 HD
HETATM   20  C   UNL     1     -13.075   5.486 -35.371  1.00  0.00     0.069 C 
HETATM   21  C   UNL     1     -11.592   4.484 -33.561  1.00  0.00     0.067 C 
BRANCH  21  22
HETATM   22  C   UNL     1     -10.386   5.139 -34.112  1.00  0.00     0.293 C 
HETATM   23  O   UNL     1      -9.775   4.745 -35.092  1.00  0.00    -0.259 OA
BRANCH  22  24
HETATM   24  O   UNL     1     -10.080   6.222 -33.358  1.00  0.00    -0.323 OA
HETATM   25  C   UNL     1      -8.721   6.258 -32.919  1.00  0.00     0.213 C 
ENDBRANCH  22  24
ENDBRANCH  21  22
ENDBRANCH  10  12
BRANCH   4  26
HETATM   26  C   UNL     1      -6.410  -0.757 -33.149  1.00  0.00     0.060 A 
HETATM   27  C   UNL     1      -5.024  -0.998 -33.176  1.00  0.00     0.031 A 
HETATM   28  C   UNL     1      -4.495  -2.023 -33.965  1.00  0.00     0.002 A 
HETATM   29  C   UNL     1      -5.341  -2.822 -34.730  1.00  0.00     0.000 A 
HETATM   30  C   UNL     1      -6.715  -2.598 -34.705  1.00  0.00     0.002 A 
HETATM   31  C   UNL     1      -7.251  -1.571 -33.920  1.00  0.00     0.031 A 
ENDBRANCH   4  26
TORSDOF 4
ENDMDL
MODEL 3
REMARK VINA RESULT:      -8.1      2.893      8.372
REMARK  4 active torsions:
REMARK  status: ('A' for Active; 'I' for Inactive)
REMARK    1  A    between atoms: N_4  and  C_5 
REMARK    2  A    between atoms: C_16  and  C_17 
REMARK    3  A    between atoms: C_24  and  C_25 
REMARK    4  A    between atoms: C_25  and  O_26 
ROOT
HETATM    1  C   UNL     1      -1.329   5.180 -34.907  1.00  0.00     0.073 C 
HETATM    2  C   UNL     1      -1.945   5.541 -33.605  1.00  0.00     0.065 A 
HETATM    3  N   UNL     1      -1.591   6.669 -32.985  1.00  0.00    -0.170 NA
HETATM    4  N   UNL     1      -2.320   6.691 -31.828  1.00  0.00    -0.215 N 
HETATM    5  C   UNL     1      -3.164   5.582 -31.747  1.00  0.00     0.165 A 
HETATM    6  C   UNL     1      -2.909   4.813 -32.874  1.00  0.00     0.039 A 
HETATM    7  N   UNL     1      -4.043   5.267 -30.769  1.00  0.00    -0.216 NA
HETATM    8  C   UNL     1      -4.676   4.088 -30.944  1.00  0.00     0.137 A 
HETATM    9 CL   UNL     1      -5.751   3.768 -29.633  1.00  0.00    -0.062 Cl
HETATM   10  C   UNL     1      -4.500   3.206 -32.010  1.00  0.00     0.011 A 
HETATM   11  C   UNL     1      -3.593   3.593 -33.016  1.00  0.00     0.030 A 
ENDROOT
BRANCH  10  12
HETATM   12  C   UNL     1      -5.199   1.862 -32.095  1.00  0.00     0.164 C 
HETATM   13  N   UNL     1      -4.189   0.843 -32.343  1.00  0.00    -0.330 N 
HETATM   14  C   UNL     1      -4.354  -0.234 -33.146  1.00  0.00     0.321 C 
HETATM   15  H   UNL     1      -3.394   0.776 -31.722  1.00  0.00     0.165 HD
HETATM   16  O   UNL     1      -3.536  -1.146 -33.170  1.00  0.00    -0.247 OA
HETATM   17  N   UNL     1      -5.458  -0.231 -33.942  1.00  0.00    -0.312 N 
HETATM   18  C   UNL     1      -6.413   0.758 -33.980  1.00  0.00     0.024 C 
HETATM   19  H   UNL     1      -5.531  -1.034 -34.557  1.00  0.00     0.170 HD
HETATM   20  C   UNL     1      -7.524   0.538 -34.971  1.00  0.00     0.069 C 
HETATM   21  C   UNL     1      -6.305   1.785 -33.116  1.00  0.00     0.067 C 
BRANCH  21  22
HETATM   22  C   UNL     1      -7.305   2.875 -33.119  1.00  0.00     0.293 C 
HETATM   23  O   UNL     1      -8.259   2.936 -32.362  1.00  0.00    -0.259 OA
BRANCH  22  24
HETATM   24  O   UNL     1      -6.988   3.770 -34.085  1.00  0.00    -0.323 OA
HETATM   25  C   UNL     1      -7.039   5.131 -33.653  1.00  0.00     0.213 C 
ENDBRANCH  22  24
ENDBRANCH  21  22
ENDBRANCH  10  12
BRANCH   4  26
HETATM   26  C   UNL     1      -2.123   7.752 -30.890  1.00  0.00     0.060 A 
HETATM   27  C   UNL     1      -1.376   7.505 -29.724  1.00  0.00     0.031 A 
HETATM   28  C   UNL     1      -1.189   8.511 -28.772  1.00  0.00     0.002 A 
HETATM   29  C   UNL     1      -1.739   9.774 -28.975  1.00  0.00     0.000 A 
HETATM   30  C   UNL     1      -2.474  10.032 -30.129  1.00  0.00     0.002 A 
HETATM   31  C   UNL     1      -2.667   9.028 -31.084  1.00  0.00     0.031 A 
ENDBRANCH   4  26
TORSDOF 4
ENDMDL
MODEL 4
REMARK VINA RESULT:      -7.9      2.679      8.396
REMARK  4 active torsions:
REMARK  status: ('A' for Active; 'I' for Inactive)
REMARK    1  A    between atoms: N_4  and  C_5 
REMARK    2  A    between atoms: C_16  and  C_17 
REMARK    3  A    between atoms: C_24  and  C_25 
REMARK    4  A    between atoms: C_25  and  O_26 
ROOT
HETATM    1  C   UNL     1      -1.499   5.038 -34.915  1.00  0.00     0.073 C 
HETATM    2  C   UNL     1      -2.252   5.436 -33.698  1.00  0.00     0.065 A 
HETATM    3  N   UNL     1      -2.224   6.702 -33.277  1.00  0.00    -0.170 NA
HETATM    4  N   UNL     1      -2.993   6.724 -32.146  1.00  0.00    -0.215 N 
HETATM    5  C   UNL     1      -3.535   5.465 -31.884  1.00  0.00     0.165 A 
HETATM    6  C   UNL     1      -3.038   4.614 -32.862  1.00  0.00     0.039 A 
HETATM    7  N   UNL     1      -4.356   5.099 -30.874  1.00  0.00    -0.216 NA
HETATM    8  C   UNL     1      -4.663   3.785 -30.850  1.00  0.00     0.137 A 
HETATM    9 CL   UNL     1      -5.689   3.418 -29.513  1.00  0.00    -0.062 Cl
HETATM   10  C   UNL     1      -4.218   2.817 -31.750  1.00  0.00     0.011 A 
HETATM   11  C   UNL     1      -3.386   3.254 -32.799  1.00  0.00     0.030 A 
ENDROOT
BRANCH  10  12
HETATM   12  C   UNL     1      -4.552   1.343 -31.610  1.00  0.00     0.164 C 
HETATM   13  N   UNL     1      -3.301   0.606 -31.493  1.00  0.00    -0.330 N 
HETATM   14  C   UNL     1      -3.062  -0.607 -32.043  1.00  0.00     0.321 C 
HETATM   15  H   UNL     1      -2.636   0.874 -30.780  1.00  0.00     0.165 HD
HETATM   16  O   UNL     1      -2.060  -1.253 -31.758  1.00  0.00    -0.247 OA
HETATM   17  N   UNL     1      -3.976  -1.052 -32.947  1.00  0.00    -0.312 N 
HETATM   18  C   UNL     1      -5.116  -0.383 -33.327  1.00  0.00     0.024 C 
HETATM   19  H   UNL     1      -3.746  -1.947 -33.367  1.00  0.00     0.170 HD
HETATM   20  C   UNL     1      -5.949  -1.078 -34.370  1.00  0.00     0.069 C 
HETATM   21  C   UNL     1      -5.409   0.779 -32.714  1.00  0.00     0.067 C 
BRANCH  21  22
HETATM   22  C   UNL     1      -6.621   1.539 -33.089  1.00  0.00     0.293 C 
HETATM   23  O   UNL     1      -6.775   2.107 -34.157  1.00  0.00    -0.259 OA
BRANCH  22  24
HETATM   24  O   UNL     1      -7.508   1.499 -32.066  1.00  0.00    -0.323 OA
HETATM   25  C   UNL     1      -8.574   0.567 -32.258  1.00  0.00     0.213 C 
ENDBRANCH  22  24
ENDBRANCH  21  22
ENDBRANCH  10  12
BRANCH   4  26
HETATM   26  C   UNL     1      -3.117   7.939 -31.400  1.00  0.00     0.060 A 
HETATM   27  C   UNL     1      -2.024   8.388 -30.638  1.00  0.00     0.031 A 
HETATM   28  C   UNL     1      -2.120   9.555 -29.874  1.00  0.00     0.002 A 
HETATM   29  C   UNL     1      -3.304  10.288 -29.867  1.00  0.00     0.000 A 
HETATM   30  C   UNL     1      -4.390   9.857 -30.625  1.00  0.00     0.002 A 
HETATM   31  C   UNL     1      -4.301   8.687 -31.389  1.00  0.00     0.031 A 
ENDBRANCH   4  26
TORSDOF 4
ENDMDL
MODEL 5
REMARK VINA RESULT:      -7.9      3.287      5.645
REMARK  4 active torsions:
REMARK  status: ('A' for Active; 'I' for Inactive)
REMARK    1  A    between atoms: N_4  and  C_5 
REMARK    2  A    between atoms: C_16  and  C_17 
REMARK    3  A    between atoms: C_24  and  C_25 
REMARK    4  A    between atoms: C_25  and  O_26 
ROOT
HETATM    1  C   UNL     1      -6.385  -0.226 -34.508  1.00  0.00     0.073 C 
HETATM    2  C   UNL     1      -7.480   0.755 -34.305  1.00  0.00     0.065 A 
HETATM    3  N   UNL     1      -8.754   0.364 -34.381  1.00  0.00    -0.170 NA
HETATM    4  N   UNL     1      -9.494   1.494 -34.165  1.00  0.00    -0.215 N 
HETATM    5  C   UNL     1      -8.669   2.592 -33.915  1.00  0.00     0.165 A 
HETATM    6  C   UNL     1      -7.364   2.136 -34.034  1.00  0.00     0.039 A 
HETATM    7  N   UNL     1      -9.030   3.866 -33.640  1.00  0.00    -0.216 NA
HETATM    8  C   UNL     1      -7.997   4.723 -33.506  1.00  0.00     0.137 A 
HETATM    9 CL   UNL     1      -8.563   6.321 -33.185  1.00  0.00    -0.062 Cl
HETATM   10  C   UNL     1      -6.643   4.410 -33.623  1.00  0.00     0.011 A 
HETATM   11  C   UNL     1      -6.319   3.064 -33.884  1.00  0.00     0.030 A 
ENDROOT
BRANCH  10  12
HETATM   12  C   UNL     1      -5.542   5.451 -33.530  1.00  0.00     0.164 C 
HETATM   13  N   UNL     1      -4.557   5.159 -34.561  1.00  0.00    -0.330 N 
HETATM   14  C   UNL     1      -3.218   5.298 -34.415  1.00  0.00     0.321 C 
HETATM   15  H   UNL     1      -4.859   5.068 -35.521  1.00  0.00     0.165 HD
HETATM   16  O   UNL     1      -2.457   5.211 -35.372  1.00  0.00    -0.247 OA
HETATM   17  N   UNL     1      -2.766   5.509 -33.149  1.00  0.00    -0.312 N 
HETATM   18  C   UNL     1      -3.553   5.607 -32.025  1.00  0.00     0.024 C 
HETATM   19  H   UNL     1      -1.757   5.571 -33.071  1.00  0.00     0.170 HD
HETATM   20  C   UNL     1      -2.806   5.812 -30.736  1.00  0.00     0.069 C 
HETATM   21  C   UNL     1      -4.890   5.565 -32.176  1.00  0.00     0.067 C 
BRANCH  21  22
HETATM   22  C   UNL     1      -5.780   5.664 -30.999  1.00  0.00     0.293 C 
HETATM   23  O   UNL     1      -6.328   6.691 -30.634  1.00  0.00    -0.259 OA
BRANCH  22  24
HETATM   24  O   UNL     1      -5.877   4.449 -30.408  1.00  0.00    -0.323 OA
HETATM   25  C   UNL     1      -7.178   4.157 -29.895  1.00  0.00     0.213 C 
ENDBRANCH  22  24
ENDBRANCH  21  22
ENDBRANCH  10  12
BRANCH   4  26
HETATM   26  C   UNL     1     -10.920   1.430 -34.247  1.00  0.00     0.060 A 
HETATM   27  C   UNL     1     -11.602   0.423 -33.540  1.00  0.00     0.031 A 
HETATM   28  C   UNL     1     -12.993   0.313 -33.622  1.00  0.00     0.002 A 
HETATM   29  C   UNL     1     -13.719   1.208 -34.404  1.00  0.00     0.000 A 
HETATM   30  C   UNL     1     -13.055   2.214 -35.102  1.00  0.00     0.002 A 
HETATM   31  C   UNL     1     -11.662   2.327 -35.027  1.00  0.00     0.031 A 
ENDBRANCH   4  26
TORSDOF 4
ENDMDL
MODEL 6
REMARK VINA RESULT:      -7.9      1.815      2.239
REMARK  4 active torsions:
REMARK  status: ('A' for Active; 'I' for Inactive)
REMARK    1  A    between atoms: N_4  and  C_5 
REMARK    2  A    between atoms: C_16  and  C_17 
REMARK    3  A    between atoms: C_24  and  C_25 
REMARK    4  A    between atoms: C_25  and  O_26 
ROOT
HETATM    1  C   UNL     1      -9.511   2.216 -31.283  1.00  0.00     0.073 C 
HETATM    2  C   UNL     1      -8.176   1.757 -31.741  1.00  0.00     0.065 A 
HETATM    3  N   UNL     1      -8.054   0.606 -32.407  1.00  0.00    -0.170 NA
HETATM    4  N   UNL     1      -6.717   0.475 -32.663  1.00  0.00    -0.215 N 
HETATM    5  C   UNL     1      -6.005   1.576 -32.183  1.00  0.00     0.165 A 
HETATM    6  C   UNL     1      -6.931   2.398 -31.556  1.00  0.00     0.039 A 
HETATM    7  N   UNL     1      -4.677   1.815 -32.264  1.00  0.00    -0.216 NA
HETATM    8  C   UNL     1      -4.273   2.944 -31.645  1.00  0.00     0.137 A 
HETATM    9 CL   UNL     1      -2.564   3.143 -31.783  1.00  0.00    -0.062 Cl
HETATM   10  C   UNL     1      -5.086   3.846 -30.959  1.00  0.00     0.011 A 
HETATM   11  C   UNL     1      -6.466   3.565 -30.927  1.00  0.00     0.030 A 
ENDROOT
BRANCH  10  12
HETATM   12  C   UNL     1      -4.542   5.059 -30.227  1.00  0.00     0.164 C 
HETATM   13  N   UNL     1      -5.244   5.172 -28.957  1.00  0.00    -0.330 N 
HETATM   14  C   UNL     1      -5.619   6.338 -28.380  1.00  0.00     0.321 C 
HETATM   15  H   UNL     1      -5.265   4.378 -28.332  1.00  0.00     0.165 HD
HETATM   16  O   UNL     1      -6.043   6.376 -27.231  1.00  0.00    -0.247 OA
HETATM   17  N   UNL     1      -5.528   7.453 -29.154  1.00  0.00    -0.312 N 
HETATM   18  C   UNL     1      -5.075   7.490 -30.453  1.00  0.00     0.024 C 
HETATM   19  H   UNL     1      -5.853   8.302 -28.704  1.00  0.00     0.170 HD
HETATM   20  C   UNL     1      -5.101   8.847 -31.102  1.00  0.00     0.069 C 
HETATM   21  C   UNL     1      -4.611   6.351 -31.000  1.00  0.00     0.067 C 
BRANCH  21  22
HETATM   22  C   UNL     1      -4.116   6.337 -32.393  1.00  0.00     0.293 C 
HETATM   23  O   UNL     1      -4.833   6.298 -33.379  1.00  0.00    -0.259 OA
BRANCH  22  24
HETATM   24  O   UNL     1      -2.761   6.371 -32.388  1.00  0.00    -0.323 OA
HETATM   25  C   UNL     1      -2.205   7.427 -33.173  1.00  0.00     0.213 C 
ENDBRANCH  22  24
ENDBRANCH  21  22
ENDBRANCH  10  12
BRANCH   4  26
HETATM   26  C   UNL     1      -6.235  -0.703 -33.315  1.00  0.00     0.060 A 
HETATM   27  C   UNL     1      -7.140  -1.507 -34.031  1.00  0.00     0.031 A 
HETATM   28  C   UNL     1      -6.709  -2.681 -34.656  1.00  0.00     0.002 A 
HETATM   29  C   UNL     1      -5.372  -3.062 -34.578  1.00  0.00     0.000 A 
HETATM   30  C   UNL     1      -4.466  -2.269 -33.879  1.00  0.00     0.002 A 
HETATM   31  C   UNL     1      -4.892  -1.094 -33.248  1.00  0.00     0.031 A 
ENDBRANCH   4  26
TORSDOF 4
ENDMDL
MODEL 7
REMARK VINA RESULT:      -7.8      1.836      2.193
REMARK  4 active torsions:
REMARK  status: ('A' for Active; 'I' for Inactive)
REMARK    1  A    between atoms: N_4  and  C_5 
REMARK    2  A    between atoms: C_16  and  C_17 
REMARK    3  A    between atoms: C_24  and  C_25 
REMARK    4  A    between atoms: C_25  and  O_26 
ROOT
HETATM    1  C   UNL     1      -9.223   0.413 -33.385  1.00  0.00     0.073 C 
HETATM    2  C   UNL     1      -7.772   0.189 -33.165  1.00  0.00     0.065 A 
HETATM    3  N   UNL     1      -7.228  -0.999 -33.439  1.00  0.00    -0.170 NA
HETATM    4  N   UNL     1      -5.905  -0.874 -33.115  1.00  0.00    -0.215 N 
HETATM    5  C   UNL     1      -5.617   0.417 -32.671  1.00  0.00     0.165 A 
HETATM    6  C   UNL     1      -6.822   1.107 -32.668  1.00  0.00     0.039 A 
HETATM    7  N   UNL     1      -4.426   0.924 -32.283  1.00  0.00    -0.216 NA
HETATM    8  C   UNL     1      -4.477   2.199 -31.843  1.00  0.00     0.137 A 
HETATM    9 CL   UNL     1      -2.915   2.741 -31.347  1.00  0.00    -0.062 Cl
HETATM   10  C   UNL     1      -5.616   3.000 -31.762  1.00  0.00     0.011 A 
HETATM   11  C   UNL     1      -6.827   2.433 -32.204  1.00  0.00     0.030 A 
ENDROOT
BRANCH  10  12
HETATM   12  C   UNL     1      -5.600   4.403 -31.185  1.00  0.00     0.164 C 
HETATM   13  N   UNL     1      -6.109   4.337 -29.823  1.00  0.00    -0.330 N 
HETATM   14  C   UNL     1      -6.901   5.271 -29.245  1.00  0.00     0.321 C 
HETATM   15  H   UNL     1      -5.684   3.695 -29.168  1.00  0.00     0.165 HD
HETATM   16  O   UNL     1      -7.145   5.249 -28.044  1.00  0.00    -0.247 OA
HETATM   17  N   UNL     1      -7.430   6.212 -30.072  1.00  0.00    -0.312 N 
HETATM   18  C   UNL     1      -7.213   6.297 -31.428  1.00  0.00     0.024 C 
HETATM   19  H   UNL     1      -8.048   6.872 -29.613  1.00  0.00     0.170 HD
HETATM   20  C   UNL     1      -7.940   7.415 -32.124  1.00  0.00     0.069 C 
HETATM   21  C   UNL     1      -6.352   5.430 -31.993  1.00  0.00     0.067 C 
BRANCH  21  22
HETATM   22  C   UNL     1      -6.086   5.478 -33.447  1.00  0.00     0.293 C 
HETATM   23  O   UNL     1      -6.874   5.113 -34.303  1.00  0.00    -0.259 OA
BRANCH  22  24
HETATM   24  O   UNL     1      -4.846   5.981 -33.659  1.00  0.00    -0.323 OA
HETATM   25  C   UNL     1      -4.056   5.209 -34.566  1.00  0.00     0.213 C 
ENDBRANCH  22  24
ENDBRANCH  21  22
ENDBRANCH  10  12
BRANCH   4  26
HETATM   26  C   UNL     1      -5.041  -2.008 -33.230  1.00  0.00     0.060 A 
HETATM   27  C   UNL     1      -5.225  -2.904 -34.298  1.00  0.00     0.031 A 
HETATM   28  C   UNL     1      -4.418  -4.038 -34.424  1.00  0.00     0.002 A 
HETATM   29  C   UNL     1      -3.416  -4.288 -33.490  1.00  0.00     0.000 A 
HETATM   30  C   UNL     1      -3.219  -3.403 -32.432  1.00  0.00     0.002 A 
HETATM   31  C   UNL     1      -4.026  -2.268 -32.299  1.00  0.00     0.031 A 
ENDBRANCH   4  26
TORSDOF 4
ENDMDL
MODEL 8
REMARK VINA RESULT:      -7.8      3.077      8.074
REMARK  4 active torsions:
REMARK  status: ('A' for Active; 'I' for Inactive)
REMARK    1  A    between atoms: N_4  and  C_5 
REMARK    2  A    between atoms: C_16  and  C_17 
REMARK    3  A    between atoms: C_24  and  C_25 
REMARK    4  A    between atoms: C_25  and  O_26 
ROOT
HETATM    1  C   UNL     1      -1.055   5.469 -34.972  1.00  0.00     0.073 C 
HETATM    2  C   UNL     1      -1.519   5.682 -33.578  1.00  0.00     0.065 A 
HETATM    3  N   UNL     1      -0.828   6.475 -32.755  1.00  0.00    -0.170 NA
HETATM    4  N   UNL     1      -1.506   6.441 -31.567  1.00  0.00    -0.215 N 
HETATM    5  C   UNL     1      -2.650   5.648 -31.666  1.00  0.00     0.165 A 
HETATM    6  C   UNL     1      -2.655   5.125 -32.951  1.00  0.00     0.039 A 
HETATM    7  N   UNL     1      -3.576   5.391 -30.714  1.00  0.00    -0.216 NA
HETATM    8  C   UNL     1      -4.543   4.530 -31.093  1.00  0.00     0.137 A 
HETATM    9 CL   UNL     1      -5.655   4.248 -29.804  1.00  0.00    -0.062 Cl
HETATM   10  C   UNL     1      -4.658   3.912 -32.339  1.00  0.00     0.011 A 
HETATM   11  C   UNL     1      -3.683   4.234 -33.303  1.00  0.00     0.030 A 
ENDROOT
BRANCH  10  12
HETATM   12  C   UNL     1      -5.738   2.897 -32.662  1.00  0.00     0.164 C 
HETATM   13  N   UNL     1      -7.031   3.522 -32.420  1.00  0.00    -0.330 N 
HETATM   14  C   UNL     1      -8.109   2.895 -31.894  1.00  0.00     0.321 C 
HETATM   15  H   UNL     1      -7.245   4.402 -32.870  1.00  0.00     0.165 HD
HETATM   16  O   UNL     1      -9.216   3.423 -31.885  1.00  0.00    -0.247 OA
HETATM   17  N   UNL     1      -7.890   1.667 -31.352  1.00  0.00    -0.312 N 
HETATM   18  C   UNL     1      -6.679   1.014 -31.314  1.00  0.00     0.024 C 
HETATM   19  H   UNL     1      -8.711   1.242 -30.934  1.00  0.00     0.170 HD
HETATM   20  C   UNL     1      -6.695  -0.326 -30.630  1.00  0.00     0.069 C 
HETATM   21  C   UNL     1      -5.624   1.590 -31.920  1.00  0.00     0.067 C 
BRANCH  21  22
HETATM   22  C   UNL     1      -4.300   0.931 -31.904  1.00  0.00     0.293 C 
HETATM   23  O   UNL     1      -3.503   1.009 -30.984  1.00  0.00    -0.259 OA
BRANCH  22  24
HETATM   24  O   UNL     1      -4.127   0.246 -33.060  1.00  0.00    -0.323 OA
HETATM   25  C   UNL     1      -3.754  -1.121 -32.873  1.00  0.00     0.213 C 
ENDBRANCH  22  24
ENDBRANCH  21  22
ENDBRANCH  10  12
BRANCH   4  26
HETATM   26  C   UNL     1      -0.983   7.144 -30.437  1.00  0.00     0.060 A 
HETATM   27  C   UNL     1      -1.729   8.200 -29.882  1.00  0.00     0.031 A 
HETATM   28  C   UNL     1      -1.233   8.927 -28.796  1.00  0.00     0.002 A 
HETATM   29  C   UNL     1       0.006   8.607 -28.248  1.00  0.00     0.000 A 
HETATM   30  C   UNL     1       0.749   7.558 -28.784  1.00  0.00     0.002 A 
HETATM   31  C   UNL     1       0.260   6.828 -29.874  1.00  0.00     0.031 A 
ENDBRANCH   4  26
TORSDOF 4
ENDMDL
MODEL 9
REMARK VINA RESULT:      -7.7      3.247      4.824
REMARK  4 active torsions:
REMARK  status: ('A' for Active; 'I' for Inactive)
REMARK    1  A    between atoms: N_4  and  C_5 
REMARK    2  A    between atoms: C_16  and  C_17 
REMARK    3  A    between atoms: C_24  and  C_25 
REMARK    4  A    between atoms: C_25  and  O_26 
ROOT
HETATM    1  C   UNL     1      -3.938   2.434 -32.626  1.00  0.00     0.073 C 
HETATM    2  C   UNL     1      -4.967   1.426 -32.987  1.00  0.00     0.065 A 
HETATM    3  N   UNL     1      -4.609   0.165 -33.242  1.00  0.00    -0.170 NA
HETATM    4  N   UNL     1      -5.772  -0.486 -33.551  1.00  0.00    -0.215 N 
HETATM    5  C   UNL     1      -6.868   0.372 -33.450  1.00  0.00     0.165 A 
HETATM    6  C   UNL     1      -6.359   1.620 -33.117  1.00  0.00     0.039 A 
HETATM    7  N   UNL     1      -8.175   0.092 -33.658  1.00  0.00    -0.216 NA
HETATM    8  C   UNL     1      -9.000   1.153 -33.544  1.00  0.00     0.137 A 
HETATM    9 CL   UNL     1     -10.635   0.696 -33.853  1.00  0.00    -0.062 Cl
HETATM   10  C   UNL     1      -8.625   2.462 -33.241  1.00  0.00     0.011 A 
HETATM   11  C   UNL     1      -7.256   2.696 -33.007  1.00  0.00     0.030 A 
ENDROOT
BRANCH  10  12
HETATM   12  C   UNL     1      -9.609   3.616 -33.203  1.00  0.00     0.164 C 
HETATM   13  N   UNL     1      -9.536   4.313 -34.479  1.00  0.00    -0.330 N 
HETATM   14  C   UNL     1      -9.627   5.655 -34.636  1.00  0.00     0.321 C 
HETATM   15  H   UNL     1      -9.658   3.789 -35.335  1.00  0.00     0.165 HD
HETATM   16  O   UNL     1      -9.741   6.164 -35.746  1.00  0.00    -0.247 OA
HETATM   17  N   UNL     1      -9.555   6.403 -33.502  1.00  0.00    -0.312 N 
HETATM   18  C   UNL     1      -9.417   5.908 -32.226  1.00  0.00     0.024 C 
HETATM   19  H   UNL     1      -9.588   7.404 -33.660  1.00  0.00     0.170 HD
HETATM   20  C   UNL     1      -9.331   6.948 -31.142  1.00  0.00     0.069 C 
HETATM   21  C   UNL     1      -9.422   4.573 -32.054  1.00  0.00     0.067 C 
BRANCH  21  22
HETATM   22  C   UNL     1      -9.274   3.992 -30.702  1.00  0.00     0.293 C 
HETATM   23  O   UNL     1     -10.112   3.293 -30.157  1.00  0.00    -0.259 OA
BRANCH  22  24
HETATM   24  O   UNL     1      -8.078   4.362 -30.185  1.00  0.00    -0.323 OA
HETATM   25  C   UNL     1      -7.355   3.291 -29.573  1.00  0.00     0.213 C 
ENDBRANCH  22  24
ENDBRANCH  21  22
ENDBRANCH  10  12
BRANCH   4  26
HETATM   26  C   UNL     1      -5.729  -1.860 -33.944  1.00  0.00     0.060 A 
HETATM   27  C   UNL     1      -4.509  -2.556 -33.866  1.00  0.00     0.031 A 
HETATM   28  C   UNL     1      -4.424  -3.892 -34.270  1.00  0.00     0.002 A 
HETATM   29  C   UNL     1      -5.554  -4.548 -34.750  1.00  0.00     0.000 A 
HETATM   30  C   UNL     1      -6.769  -3.871 -34.824  1.00  0.00     0.002 A 
HETATM   31  C   UNL     1      -6.860  -2.533 -34.424  1.00  0.00     0.031 A 
ENDBRANCH   4  26
TORSDOF 4
ENDMDL
MODEL 10
REMARK VINA RESULT:      -7.4      4.543      6.571
REMARK  4 active torsions:
REMARK  status: ('A' for Active; 'I' for Inactive)
REMARK    1  A    between atoms: N_4  and  C_5 
REMARK    2  A    between atoms: C_16  and  C_17 
REMARK    3  A    between atoms: C_24  and  C_25 
REMARK    4  A    between atoms: C_25  and  O_26 
ROOT
HETATM    1  C   UNL     1      -5.388   4.278 -32.866  1.00  0.00     0.073 C 
HETATM    2  C   UNL     1      -6.159   3.066 -33.243  1.00  0.00     0.065 A 
HETATM    3  N   UNL     1      -5.557   1.876 -33.289  1.00  0.00    -0.170 NA
HETATM    4  N   UNL     1      -6.528   0.994 -33.677  1.00  0.00    -0.215 N 
HETATM    5  C   UNL     1      -7.755   1.639 -33.837  1.00  0.00     0.165 A 
HETATM    6  C   UNL     1      -7.525   2.985 -33.590  1.00  0.00     0.039 A 
HETATM    7  N   UNL     1      -8.945   1.101 -34.190  1.00  0.00    -0.216 NA
HETATM    8  C   UNL     1      -9.945   1.997 -34.324  1.00  0.00     0.137 A 
HETATM    9 CL   UNL     1     -11.408   1.217 -34.803  1.00  0.00    -0.062 Cl
HETATM   10  C   UNL     1      -9.851   3.376 -34.133  1.00  0.00     0.011 A 
HETATM   11  C   UNL     1      -8.597   3.881 -33.740  1.00  0.00     0.030 A 
ENDROOT
BRANCH  10  12
HETATM   12  C   UNL     1     -11.010   4.325 -34.376  1.00  0.00     0.164 C 
HETATM   13  N   UNL     1     -10.555   5.370 -35.281  1.00  0.00    -0.330 N 
HETATM   14  C   UNL     1     -10.912   6.674 -35.202  1.00  0.00     0.321 C 
HETATM   15  H   UNL     1     -10.136   5.111 -36.164  1.00  0.00     0.165 HD
HETATM   16  O   UNL     1     -10.642   7.467 -36.097  1.00  0.00    -0.247 OA
HETATM   17  N   UNL     1     -11.556   7.057 -34.067  1.00  0.00    -0.312 N 
HETATM   18  C   UNL     1     -11.884   6.231 -33.016  1.00  0.00     0.024 C 
HETATM   19  H   UNL     1     -11.775   8.046 -34.024  1.00  0.00     0.170 HD
HETATM   20  C   UNL     1     -12.571   6.907 -31.860  1.00  0.00     0.069 C 
HETATM   21  C   UNL     1     -11.618   4.916 -33.130  1.00  0.00     0.067 C 
BRANCH  21  22
HETATM   22  C   UNL     1     -11.948   3.987 -32.028  1.00  0.00     0.293 C 
HETATM   23  O   UNL     1     -11.342   3.931 -30.970  1.00  0.00    -0.259 OA
BRANCH  22  24
HETATM   24  O   UNL     1     -13.009   3.225 -32.386  1.00  0.00    -0.323 OA
HETATM   25  C   UNL     1     -14.178   3.451 -31.596  1.00  0.00     0.213 C 
ENDBRANCH  22  24
ENDBRANCH  21  22
ENDBRANCH  10  12
BRANCH   4  26
HETATM   26  C   UNL     1      -6.190  -0.380 -33.889  1.00  0.00     0.060 A 
HETATM   27  C   UNL     1      -4.878  -0.811 -33.619  1.00  0.00     0.031 A 
HETATM   28  C   UNL     1      -4.506  -2.139 -33.844  1.00  0.00     0.002 A 
HETATM   29  C   UNL     1      -5.437  -3.052 -34.333  1.00  0.00     0.000 A 
HETATM   30  C   UNL     1      -6.740  -2.637 -34.596  1.00  0.00     0.002 A 
HETATM   31  C   UNL     1      -7.118  -1.308 -34.377  1.00  0.00     0.031 A 
ENDBRANCH   4  26
TORSDOF 4
ENDMDL
