MODEL 1
REMARK VINA RESULT:      -8.6      0.000      0.000
REMARK  5 active torsions:
REMARK  status: ('A' for Active; 'I' for Inactive)
REMARK    1  A    between atoms: C_8  and  C_9 
REMARK       I    between atoms: N_10  and  C_11 
REMARK       I    between atoms: C_11  and  N_12 
REMARK    2  A    between atoms: N_12  and  C_13 
REMARK    3  A    between atoms: C_15  and  O_16 
REMARK    4  A    between atoms: O_16  and  C_17 
REMARK    5  A    between atoms: C_17  and  C_18 
ROOT
HETATM    1  C   UNL     1      -3.622   5.798 -31.351  1.00  0.00     0.126 C 
HETATM    2  N   UNL     1      -4.055   4.404 -31.432  1.00  0.00    -0.325 N 
HETATM    3  C   UNL     1      -3.106   3.436 -31.381  1.00  0.00     0.323 C 
HETATM    4  N   UNL     1      -3.301   2.139 -31.684  1.00  0.00    -0.309 N 
HETATM    5  O   UNL     1      -1.919   3.729 -31.169  1.00  0.00    -0.247 OA
HETATM    6  C   UNL     1      -5.504   4.327 -31.393  1.00  0.00     0.128 C 
HETATM    7  C   UNL     1      -6.013   5.757 -31.539  1.00  0.00     0.022 C 
HETATM    8  C   UNL     1      -4.876   6.589 -30.971  1.00  0.00     0.032 C 
HETATM    9  H   UNL     1      -2.380   1.759 -31.877  1.00  0.00     0.170 HD
ENDROOT
BRANCH   4  10
HETATM   10  C   UNL     1      -4.336   1.215 -31.871  1.00  0.00     0.039 A 
HETATM   11  C   UNL     1      -4.733   0.669 -33.085  1.00  0.00     0.066 A 
HETATM   12  C   UNL     1      -5.792  -0.250 -33.157  1.00  0.00     0.071 A 
HETATM   13  C   UNL     1      -6.510  -0.566 -32.004  1.00  0.00     0.037 A 
HETATM   14  C   UNL     1      -6.168   0.025 -30.792  1.00  0.00     0.005 A 
HETATM   15  C   UNL     1      -5.092   0.911 -30.730  1.00  0.00     0.030 A 
BRANCH  12  16
HETATM   16  O   UNL     1      -6.026  -0.758 -34.407  1.00  0.00    -0.347 OA
BRANCH  16  17
HETATM   17  C   UNL     1      -6.837  -1.931 -34.487  1.00  0.00     0.208 C 
BRANCH  17  18
HETATM   18  C   UNL     1      -5.947  -3.114 -34.779  1.00  0.00    -0.069 C 
HETATM   19  C   UNL     1      -6.650  -4.383 -35.172  1.00  0.00     0.044 C 
HETATM   20  C   UNL     1      -4.606  -3.036 -34.725  1.00  0.00     0.016 C 
ENDBRANCH  17  18
ENDBRANCH  16  17
ENDBRANCH  12  16
ENDBRANCH   4  10
BRANCH   1  21
HETATM   21  C   UNL     1      -2.996   6.264 -32.647  1.00  0.00     0.014 A 
HETATM   22  C   UNL     1      -3.271   5.952 -33.974  1.00  0.00     0.034 A 
HETATM   23  C   UNL     1      -4.235   5.046 -34.641  1.00  0.00     0.070 C 
HETATM   24  N   UNL     1      -2.394   6.689 -34.723  1.00  0.00    -0.282 N 
HETATM   25  H   UNL     1      -2.304   6.713 -35.733  1.00  0.00     0.189 HD
HETATM   26  N   UNL     1      -1.566   7.451 -34.004  1.00  0.00    -0.179 NA
HETATM   27  C   UNL     1      -1.896   7.177 -32.739  1.00  0.00     0.061 A 
HETATM   28  C   UNL     1      -1.131   7.803 -31.629  1.00  0.00     0.073 C 
ENDBRANCH   1  21
TORSDOF 5
ENDMDL
MODEL 2
REMARK VINA RESULT:      -8.2      5.764      7.983
REMARK  5 active torsions:
REMARK  status: ('A' for Active; 'I' for Inactive)
REMARK    1  A    between atoms: C_8  and  C_9 
REMARK       I    between atoms: N_10  and  C_11 
REMARK       I    between atoms: C_11  and  N_12 
REMARK    2  A    between atoms: N_12  and  C_13 
REMARK    3  A    between atoms: C_15  and  O_16 
REMARK    4  A    between atoms: O_16  and  C_17 
REMARK    5  A    between atoms: C_17  and  C_18 
ROOT
HETATM    1  C   UNL     1     -12.302   2.445 -34.264  1.00  0.00     0.126 C 
HETATM    2  N   UNL     1     -11.046   1.795 -33.892  1.00  0.00    -0.325 N 
HETATM    3  C   UNL     1     -11.103   0.538 -33.385  1.00  0.00     0.323 C 
HETATM    4  N   UNL     1     -10.088  -0.102 -32.774  1.00  0.00    -0.309 N 
HETATM    5  O   UNL     1     -12.181  -0.073 -33.339  1.00  0.00    -0.247 OA
HETATM    6  C   UNL     1      -9.918   2.611 -34.305  1.00  0.00     0.128 C 
HETATM    7  C   UNL     1     -10.497   3.952 -34.741  1.00  0.00     0.022 C 
HETATM    8  C   UNL     1     -11.901   3.592 -35.195  1.00  0.00     0.032 C 
HETATM    9  H   UNL     1     -10.516  -0.842 -32.229  1.00  0.00     0.170 HD
ENDROOT
BRANCH   4  10
HETATM   10  C   UNL     1      -8.700  -0.021 -32.612  1.00  0.00     0.039 A 
HETATM   11  C   UNL     1      -7.748  -0.662 -33.397  1.00  0.00     0.066 A 
HETATM   12  C   UNL     1      -6.376  -0.513 -33.141  1.00  0.00     0.071 A 
HETATM   13  C   UNL     1      -5.956   0.227 -32.036  1.00  0.00     0.037 A 
HETATM   14  C   UNL     1      -6.900   0.817 -31.201  1.00  0.00     0.005 A 
HETATM   15  C   UNL     1      -8.259   0.689 -31.486  1.00  0.00     0.030 A 
BRANCH  12  16
HETATM   16  O   UNL     1      -5.554  -1.143 -34.038  1.00  0.00    -0.347 OA
BRANCH  16  17
HETATM   17  C   UNL     1      -6.182  -1.973 -35.016  1.00  0.00     0.208 C 
BRANCH  17  18
HETATM   18  C   UNL     1      -5.710  -3.392 -34.817  1.00  0.00    -0.069 C 
HETATM   19  C   UNL     1      -4.334  -3.551 -34.232  1.00  0.00     0.044 C 
HETATM   20  C   UNL     1      -6.480  -4.455 -35.111  1.00  0.00     0.016 C 
ENDBRANCH  17  18
ENDBRANCH  16  17
ENDBRANCH  12  16
ENDBRANCH   4  10
BRANCH   1  21
HETATM   21  C   UNL     1     -13.072   2.909 -33.048  1.00  0.00     0.014 A 
HETATM   22  C   UNL     1     -12.733   3.766 -32.007  1.00  0.00     0.034 A 
HETATM   23  C   UNL     1     -11.512   4.528 -31.656  1.00  0.00     0.070 C 
HETATM   24  N   UNL     1     -13.833   3.827 -31.196  1.00  0.00    -0.282 N 
HETATM   25  H   UNL     1     -13.947   4.356 -30.338  1.00  0.00     0.189 HD
HETATM   26  N   UNL     1     -14.861   3.081 -31.610  1.00  0.00    -0.179 NA
HETATM   27  C   UNL     1     -14.401   2.489 -32.716  1.00  0.00     0.061 A 
HETATM   28  C   UNL     1     -15.259   1.514 -33.438  1.00  0.00     0.073 C 
ENDBRANCH   1  21
TORSDOF 5
ENDMDL
MODEL 3
REMARK VINA RESULT:      -8.0      2.364      7.964
REMARK  5 active torsions:
REMARK  status: ('A' for Active; 'I' for Inactive)
REMARK    1  A    between atoms: C_8  and  C_9 
REMARK       I    between atoms: N_10  and  C_11 
REMARK       I    between atoms: C_11  and  N_12 
REMARK    2  A    between atoms: N_12  and  C_13 
REMARK    3  A    between atoms: C_15  and  O_16 
REMARK    4  A    between atoms: O_16  and  C_17 
REMARK    5  A    between atoms: C_17  and  C_18 
ROOT
HETATM    1  C   UNL     1      -6.397   0.262 -32.038  1.00  0.00     0.126 C 
HETATM    2  N   UNL     1      -5.716   1.555 -31.992  1.00  0.00    -0.325 N 
HETATM    3  C   UNL     1      -5.671   2.295 -33.128  1.00  0.00     0.323 C 
HETATM    4  N   UNL     1      -4.890   3.373 -33.325  1.00  0.00    -0.309 N 
HETATM    5  O   UNL     1      -6.281   1.925 -34.144  1.00  0.00    -0.247 OA
HETATM    6  C   UNL     1      -5.339   1.874 -30.627  1.00  0.00     0.128 C 
HETATM    7  C   UNL     1      -5.578   0.609 -29.810  1.00  0.00     0.022 C 
HETATM    8  C   UNL     1      -6.684  -0.095 -30.578  1.00  0.00     0.032 C 
HETATM    9  H   UNL     1      -4.826   3.489 -34.330  1.00  0.00     0.170 HD
ENDROOT
BRANCH   4  10
HETATM   10  C   UNL     1      -4.120   4.297 -32.608  1.00  0.00     0.039 A 
HETATM   11  C   UNL     1      -2.766   4.181 -32.318  1.00  0.00     0.066 A 
HETATM   12  C   UNL     1      -2.093   5.170 -31.584  1.00  0.00     0.071 A 
HETATM   13  C   UNL     1      -2.806   6.252 -31.069  1.00  0.00     0.037 A 
HETATM   14  C   UNL     1      -4.176   6.346 -31.293  1.00  0.00     0.005 A 
HETATM   15  C   UNL     1      -4.826   5.374 -32.052  1.00  0.00     0.030 A 
BRANCH  12  16
HETATM   16  O   UNL     1      -0.748   4.959 -31.437  1.00  0.00    -0.347 OA
BRANCH  16  17
HETATM   17  C   UNL     1       0.074   6.115 -31.270  1.00  0.00     0.208 C 
BRANCH  17  18
HETATM   18  C   UNL     1       0.506   6.194 -29.826  1.00  0.00    -0.069 C 
HETATM   19  C   UNL     1       0.982   4.907 -29.213  1.00  0.00     0.044 C 
HETATM   20  C   UNL     1       0.500   7.346 -29.134  1.00  0.00     0.016 C 
ENDBRANCH  17  18
ENDBRANCH  16  17
ENDBRANCH  12  16
ENDBRANCH   4  10
BRANCH   1  21
HETATM   21  C   UNL     1      -5.566  -0.781 -32.752  1.00  0.00     0.014 A 
HETATM   22  C   UNL     1      -4.263  -1.226 -32.550  1.00  0.00     0.034 A 
HETATM   23  C   UNL     1      -3.183  -0.856 -31.606  1.00  0.00     0.070 C 
HETATM   24  N   UNL     1      -4.049  -2.199 -33.488  1.00  0.00    -0.282 N 
HETATM   25  H   UNL     1      -3.207  -2.744 -33.639  1.00  0.00     0.189 HD
HETATM   26  N   UNL     1      -5.093  -2.426 -34.290  1.00  0.00    -0.179 NA
HETATM   27  C   UNL     1      -6.011  -1.548 -33.877  1.00  0.00     0.061 A 
HETATM   28  C   UNL     1      -7.312  -1.457 -34.588  1.00  0.00     0.073 C 
ENDBRANCH   1  21
TORSDOF 5
ENDMDL
MODEL 4
REMARK VINA RESULT:      -7.7      4.732      7.077
REMARK  5 active torsions:
REMARK  status: ('A' for Active; 'I' for Inactive)
REMARK    1  A    between atoms: C_8  and  C_9 
REMARK       I    between atoms: N_10  and  C_11 
REMARK       I    between atoms: C_11  and  N_12 
REMARK    2  A    between atoms: N_12  and  C_13 
REMARK    3  A    between atoms: C_15  and  O_16 
REMARK    4  A    between atoms: O_16  and  C_17 
REMARK    5  A    between atoms: C_17  and  C_18 
ROOT
HETATM    1  C   UNL     1      -4.938   0.650 -32.084  1.00  0.00     0.126 C 
HETATM    2  N   UNL     1      -6.261   1.254 -31.926  1.00  0.00    -0.325 N 
HETATM    3  C   UNL     1      -7.172   0.606 -31.159  1.00  0.00     0.323 C 
HETATM    4  N   UNL     1      -8.488   0.887 -31.108  1.00  0.00    -0.309 N 
HETATM    5  O   UNL     1      -6.853  -0.415 -30.531  1.00  0.00    -0.247 OA
HETATM    6  C   UNL     1      -6.282   2.575 -32.529  1.00  0.00     0.128 C 
HETATM    7  C   UNL     1      -4.983   2.708 -33.315  1.00  0.00     0.022 C 
HETATM    8  C   UNL     1      -4.033   1.783 -32.575  1.00  0.00     0.032 C 
HETATM    9  H   UNL     1      -8.934   0.056 -30.737  1.00  0.00     0.170 HD
ENDROOT
BRANCH   4  10
HETATM   10  C   UNL     1      -9.392   1.898 -31.455  1.00  0.00     0.039 A 
HETATM   11  C   UNL     1     -10.079   2.000 -32.658  1.00  0.00     0.066 A 
HETATM   12  C   UNL     1     -10.963   3.064 -32.902  1.00  0.00     0.071 A 
HETATM   13  C   UNL     1     -11.099   4.078 -31.956  1.00  0.00     0.037 A 
HETATM   14  C   UNL     1     -10.365   4.025 -30.775  1.00  0.00     0.005 A 
HETATM   15  C   UNL     1      -9.516   2.946 -30.531  1.00  0.00     0.030 A 
BRANCH  12  16
HETATM   16  O   UNL     1     -11.624   2.996 -34.100  1.00  0.00    -0.347 OA
BRANCH  16  17
HETATM   17  C   UNL     1     -13.022   3.286 -34.084  1.00  0.00     0.208 C 
BRANCH  17  18
HETATM   18  C   UNL     1     -13.768   2.036 -33.684  1.00  0.00    -0.069 C 
HETATM   19  C   UNL     1     -14.680   2.168 -32.497  1.00  0.00     0.044 C 
HETATM   20  C   UNL     1     -13.654   0.882 -34.363  1.00  0.00     0.016 C 
ENDBRANCH  17  18
ENDBRANCH  16  17
ENDBRANCH  12  16
ENDBRANCH   4  10
BRANCH   1  21
HETATM   21  C   UNL     1      -4.974  -0.533 -33.026  1.00  0.00     0.014 A 
HETATM   22  C   UNL     1      -5.768  -0.812 -34.134  1.00  0.00     0.034 A 
HETATM   23  C   UNL     1      -6.884  -0.106 -34.806  1.00  0.00     0.070 C 
HETATM   24  N   UNL     1      -5.341  -2.023 -34.606  1.00  0.00    -0.282 N 
HETATM   25  H   UNL     1      -5.695  -2.540 -35.404  1.00  0.00     0.189 HD
HETATM   26  N   UNL     1      -4.343  -2.564 -33.904  1.00  0.00    -0.179 NA
HETATM   27  C   UNL     1      -4.132  -1.686 -32.919  1.00  0.00     0.061 A 
HETATM   28  C   UNL     1      -3.116  -1.983 -31.876  1.00  0.00     0.073 C 
ENDBRANCH   1  21
TORSDOF 5
ENDMDL
MODEL 5
REMARK VINA RESULT:      -7.7      2.346      3.665
REMARK  5 active torsions:
REMARK  status: ('A' for Active; 'I' for Inactive)
REMARK    1  A    between atoms: C_8  and  C_9 
REMARK       I    between atoms: N_10  and  C_11 
REMARK       I    between atoms: C_11  and  N_12 
REMARK    2  A    between atoms: N_12  and  C_13 
REMARK    3  A    between atoms: C_15  and  O_16 
REMARK    4  A    between atoms: O_16  and  C_17 
REMARK    5  A    between atoms: C_17  and  C_18 
ROOT
HETATM    1  C   UNL     1      -2.191   7.476 -31.463  1.00  0.00     0.126 C 
HETATM    2  N   UNL     1      -2.877   6.194 -31.620  1.00  0.00    -0.325 N 
HETATM    3  C   UNL     1      -3.766   5.824 -30.664  1.00  0.00     0.323 C 
HETATM    4  N   UNL     1      -4.292   4.593 -30.525  1.00  0.00    -0.309 N 
HETATM    5  O   UNL     1      -4.058   6.601 -29.742  1.00  0.00    -0.247 OA
HETATM    6  C   UNL     1      -2.567   5.615 -32.915  1.00  0.00     0.128 C 
HETATM    7  C   UNL     1      -1.441   6.458 -33.501  1.00  0.00     0.022 C 
HETATM    8  C   UNL     1      -1.649   7.816 -32.854  1.00  0.00     0.032 C 
HETATM    9  H   UNL     1      -4.629   4.542 -29.570  1.00  0.00     0.170 HD
ENDROOT
BRANCH   4  10
HETATM   10  C   UNL     1      -4.449   3.397 -31.236  1.00  0.00     0.039 A 
HETATM   11  C   UNL     1      -5.633   2.926 -31.789  1.00  0.00     0.066 A 
HETATM   12  C   UNL     1      -5.676   1.705 -32.482  1.00  0.00     0.071 A 
HETATM   13  C   UNL     1      -4.532   0.911 -32.553  1.00  0.00     0.037 A 
HETATM   14  C   UNL     1      -3.356   1.338 -31.944  1.00  0.00     0.005 A 
HETATM   15  C   UNL     1      -3.319   2.569 -31.288  1.00  0.00     0.030 A 
BRANCH  12  16
HETATM   16  O   UNL     1      -6.893   1.403 -33.035  1.00  0.00    -0.347 OA
BRANCH  16  17
HETATM   17  C   UNL     1      -7.360   0.063 -32.875  1.00  0.00     0.208 C 
BRANCH  17  18
HETATM   18  C   UNL     1      -7.315  -0.626 -34.217  1.00  0.00    -0.069 C 
HETATM   19  C   UNL     1      -6.873  -2.063 -34.202  1.00  0.00     0.044 C 
HETATM   20  C   UNL     1      -7.678  -0.009 -35.355  1.00  0.00     0.016 C 
ENDBRANCH  17  18
ENDBRANCH  16  17
ENDBRANCH  12  16
ENDBRANCH   4  10
BRANCH   1  21
HETATM   21  C   UNL     1      -1.111   7.405 -30.406  1.00  0.00     0.014 A 
HETATM   22  C   UNL     1      -0.053   6.522 -30.219  1.00  0.00     0.034 A 
HETATM   23  C   UNL     1       0.419   5.313 -30.935  1.00  0.00     0.070 C 
HETATM   24  N   UNL     1       0.608   6.958 -29.103  1.00  0.00    -0.282 N 
HETATM   25  H   UNL     1       1.430   6.554 -28.669  1.00  0.00     0.189 HD
HETATM   26  N   UNL     1       0.073   8.044 -28.540  1.00  0.00    -0.179 NA
HETATM   27  C   UNL     1      -0.993   8.308 -29.300  1.00  0.00     0.061 A 
HETATM   28  C   UNL     1      -1.892   9.433 -28.938  1.00  0.00     0.073 C 
ENDBRANCH   1  21
TORSDOF 5
ENDMDL
MODEL 6
REMARK VINA RESULT:      -7.7      2.003      2.953
REMARK  5 active torsions:
REMARK  status: ('A' for Active; 'I' for Inactive)
REMARK    1  A    between atoms: C_8  and  C_9 
REMARK       I    between atoms: N_10  and  C_11 
REMARK       I    between atoms: C_11  and  N_12 
REMARK    2  A    between atoms: N_12  and  C_13 
REMARK    3  A    between atoms: C_15  and  O_16 
REMARK    4  A    between atoms: O_16  and  C_17 
REMARK    5  A    between atoms: C_17  and  C_18 
ROOT
HETATM    1  C   UNL     1      -2.865   6.632 -32.684  1.00  0.00     0.126 C 
HETATM    2  N   UNL     1      -3.256   5.225 -32.628  1.00  0.00    -0.325 N 
HETATM    3  C   UNL     1      -4.342   4.892 -31.885  1.00  0.00     0.323 C 
HETATM    4  N   UNL     1      -4.689   3.640 -31.531  1.00  0.00    -0.309 N 
HETATM    5  O   UNL     1      -5.035   5.774 -31.355  1.00  0.00    -0.247 OA
HETATM    6  C   UNL     1      -2.454   4.445 -33.554  1.00  0.00     0.128 C 
HETATM    7  C   UNL     1      -1.341   5.367 -34.037  1.00  0.00     0.022 C 
HETATM    8  C   UNL     1      -1.956   6.750 -33.910  1.00  0.00     0.032 C 
HETATM    9  H   UNL     1      -5.308   3.740 -30.734  1.00  0.00     0.170 HD
ENDROOT
BRANCH   4  10
HETATM   10  C   UNL     1      -4.418   2.308 -31.864  1.00  0.00     0.039 A 
HETATM   11  C   UNL     1      -5.114   1.541 -32.790  1.00  0.00     0.066 A 
HETATM   12  C   UNL     1      -4.757   0.207 -33.043  1.00  0.00     0.071 A 
HETATM   13  C   UNL     1      -3.737  -0.387 -32.301  1.00  0.00     0.037 A 
HETATM   14  C   UNL     1      -3.077   0.348 -31.321  1.00  0.00     0.005 A 
HETATM   15  C   UNL     1      -3.419   1.683 -31.104  1.00  0.00     0.030 A 
BRANCH  12  16
HETATM   16  O   UNL     1      -5.484  -0.403 -34.031  1.00  0.00    -0.347 OA
BRANCH  16  17
HETATM   17  C   UNL     1      -6.271  -1.532 -33.651  1.00  0.00     0.208 C 
BRANCH  17  18
HETATM   18  C   UNL     1      -5.801  -2.733 -34.435  1.00  0.00    -0.069 C 
HETATM   19  C   UNL     1      -6.871  -3.698 -34.863  1.00  0.00     0.044 C 
HETATM   20  C   UNL     1      -4.510  -2.918 -34.763  1.00  0.00     0.016 C 
ENDBRANCH  17  18
ENDBRANCH  16  17
ENDBRANCH  12  16
ENDBRANCH   4  10
BRANCH   1  21
HETATM   21  C   UNL     1      -2.194   7.076 -31.403  1.00  0.00     0.014 A 
HETATM   22  C   UNL     1      -1.190   6.497 -30.634  1.00  0.00     0.034 A 
HETATM   23  C   UNL     1      -0.412   5.239 -30.732  1.00  0.00     0.070 C 
HETATM   24  N   UNL     1      -0.972   7.356 -29.591  1.00  0.00    -0.282 N 
HETATM   25  H   UNL     1      -0.311   7.256 -28.829  1.00  0.00     0.189 HD
HETATM   26  N   UNL     1      -1.748   8.442 -29.606  1.00  0.00    -0.179 NA
HETATM   27  C   UNL     1      -2.521   8.270 -30.682  1.00  0.00     0.061 A 
HETATM   28  C   UNL     1      -3.576   9.267 -30.996  1.00  0.00     0.073 C 
ENDBRANCH   1  21
TORSDOF 5
ENDMDL
MODEL 7
REMARK VINA RESULT:      -7.7      2.477      8.074
REMARK  5 active torsions:
REMARK  status: ('A' for Active; 'I' for Inactive)
REMARK    1  A    between atoms: C_8  and  C_9 
REMARK       I    between atoms: N_10  and  C_11 
REMARK       I    between atoms: C_11  and  N_12 
REMARK    2  A    between atoms: N_12  and  C_13 
REMARK    3  A    between atoms: C_15  and  O_16 
REMARK    4  A    between atoms: O_16  and  C_17 
REMARK    5  A    between atoms: C_17  and  C_18 
ROOT
HETATM    1  C   UNL     1      -5.568   2.391 -32.935  1.00  0.00     0.126 C 
HETATM    2  N   UNL     1      -4.572   3.451 -32.783  1.00  0.00    -0.325 N 
HETATM    3  C   UNL     1      -3.287   3.089 -32.538  1.00  0.00     0.323 C 
HETATM    4  N   UNL     1      -2.308   3.921 -32.134  1.00  0.00    -0.309 N 
HETATM    5  O   UNL     1      -2.958   1.894 -32.546  1.00  0.00    -0.247 OA
HETATM    6  C   UNL     1      -5.161   4.740 -33.095  1.00  0.00     0.128 C 
HETATM    7  C   UNL     1      -6.662   4.507 -33.214  1.00  0.00     0.022 C 
HETATM    8  C   UNL     1      -6.755   3.052 -33.640  1.00  0.00     0.032 C 
HETATM    9  H   UNL     1      -1.595   3.329 -31.723  1.00  0.00     0.170 HD
ENDROOT
BRANCH   4  10
HETATM   10  C   UNL     1      -2.017   5.288 -32.049  1.00  0.00     0.039 A 
HETATM   11  C   UNL     1      -2.025   6.054 -30.890  1.00  0.00     0.066 A 
HETATM   12  C   UNL     1      -1.719   7.424 -30.922  1.00  0.00     0.071 A 
HETATM   13  C   UNL     1      -1.476   8.048 -32.145  1.00  0.00     0.037 A 
HETATM   14  C   UNL     1      -1.531   7.307 -33.322  1.00  0.00     0.005 A 
HETATM   15  C   UNL     1      -1.804   5.940 -33.272  1.00  0.00     0.030 A 
BRANCH  12  16
HETATM   16  O   UNL     1      -1.696   8.034 -29.696  1.00  0.00    -0.347 OA
BRANCH  16  17
HETATM   17  C   UNL     1      -1.363   7.217 -28.573  1.00  0.00     0.208 C 
BRANCH  17  18
HETATM   18  C   UNL     1       0.139   7.096 -28.494  1.00  0.00    -0.069 C 
HETATM   19  C   UNL     1       0.692   5.703 -28.609  1.00  0.00     0.044 C 
HETATM   20  C   UNL     1       0.941   8.166 -28.362  1.00  0.00     0.016 C 
ENDBRANCH  17  18
ENDBRANCH  16  17
ENDBRANCH  12  16
ENDBRANCH   4  10
BRANCH   1  21
HETATM   21  C   UNL     1      -5.935   1.775 -31.603  1.00  0.00     0.014 A 
HETATM   22  C   UNL     1      -6.178   2.341 -30.355  1.00  0.00     0.034 A 
HETATM   23  C   UNL     1      -6.148   3.725 -29.829  1.00  0.00     0.070 C 
HETATM   24  N   UNL     1      -6.484   1.298 -29.524  1.00  0.00    -0.282 N 
HETATM   25  H   UNL     1      -6.715   1.336 -28.537  1.00  0.00     0.189 HD
HETATM   26  N   UNL     1      -6.458   0.101 -30.114  1.00  0.00    -0.179 NA
HETATM   27  C   UNL     1      -6.092   0.371 -31.370  1.00  0.00     0.061 A 
HETATM   28  C   UNL     1      -5.891  -0.744 -32.332  1.00  0.00     0.073 C 
ENDBRANCH   1  21
TORSDOF 5
ENDMDL
MODEL 8
REMARK VINA RESULT:      -7.5      2.120      2.653
REMARK  5 active torsions:
REMARK  status: ('A' for Active; 'I' for Inactive)
REMARK    1  A    between atoms: C_8  and  C_9 
REMARK       I    between atoms: N_10  and  C_11 
REMARK       I    between atoms: C_11  and  N_12 
REMARK    2  A    between atoms: N_12  and  C_13 
REMARK    3  A    between atoms: C_15  and  O_16 
REMARK    4  A    between atoms: O_16  and  C_17 
REMARK    5  A    between atoms: C_17  and  C_18 
ROOT
HETATM    1  C   UNL     1      -5.448   5.341 -31.513  1.00  0.00     0.126 C 
HETATM    2  N   UNL     1      -5.878   3.980 -31.834  1.00  0.00    -0.325 N 
HETATM    3  C   UNL     1      -6.007   3.094 -30.814  1.00  0.00     0.323 C 
HETATM    4  N   UNL     1      -6.151   1.763 -30.954  1.00  0.00    -0.309 N 
HETATM    5  O   UNL     1      -5.862   3.462 -29.639  1.00  0.00    -0.247 OA
HETATM    6  C   UNL     1      -6.250   3.889 -33.234  1.00  0.00     0.128 C 
HETATM    7  C   UNL     1      -5.801   5.194 -33.881  1.00  0.00     0.022 C 
HETATM    8  C   UNL     1      -5.839   6.184 -32.729  1.00  0.00     0.032 C 
HETATM    9  H   UNL     1      -5.885   1.361 -30.062  1.00  0.00     0.170 HD
ENDROOT
BRANCH   4  10
HETATM   10  C   UNL     1      -6.474   0.805 -31.923  1.00  0.00     0.039 A 
HETATM   11  C   UNL     1      -5.568   0.058 -32.665  1.00  0.00     0.066 A 
HETATM   12  C   UNL     1      -6.005  -0.876 -33.618  1.00  0.00     0.071 A 
HETATM   13  C   UNL     1      -7.367  -1.006 -33.883  1.00  0.00     0.037 A 
HETATM   14  C   UNL     1      -8.283  -0.214 -33.196  1.00  0.00     0.005 A 
HETATM   15  C   UNL     1      -7.837   0.685 -32.228  1.00  0.00     0.030 A 
BRANCH  12  16
HETATM   16  O   UNL     1      -5.003  -1.590 -34.221  1.00  0.00    -0.347 OA
BRANCH  16  17
HETATM   17  C   UNL     1      -4.280  -2.509 -33.400  1.00  0.00     0.208 C 
BRANCH  17  18
HETATM   18  C   UNL     1      -4.359  -3.879 -34.027  1.00  0.00    -0.069 C 
HETATM   19  C   UNL     1      -5.603  -4.167 -34.821  1.00  0.00     0.044 C 
HETATM   20  C   UNL     1      -3.368  -4.781 -33.914  1.00  0.00     0.016 C 
ENDBRANCH  17  18
ENDBRANCH  16  17
ENDBRANCH  12  16
ENDBRANCH   4  10
BRANCH   1  21
HETATM   21  C   UNL     1      -3.969   5.398 -31.200  1.00  0.00     0.014 A 
HETATM   22  C   UNL     1      -2.895   4.638 -31.652  1.00  0.00     0.034 A 
HETATM   23  C   UNL     1      -2.765   3.482 -32.569  1.00  0.00     0.070 C 
HETATM   24  N   UNL     1      -1.786   5.155 -31.040  1.00  0.00    -0.282 N 
HETATM   25  H   UNL     1      -0.824   4.847 -31.132  1.00  0.00     0.189 HD
HETATM   26  N   UNL     1      -2.038   6.181 -30.224  1.00  0.00    -0.179 NA
HETATM   27  C   UNL     1      -3.365   6.319 -30.284  1.00  0.00     0.061 A 
HETATM   28  C   UNL     1      -4.036   7.343 -29.441  1.00  0.00     0.073 C 
ENDBRANCH   1  21
TORSDOF 5
ENDMDL
MODEL 9
REMARK VINA RESULT:      -7.4      2.289      3.380
REMARK  5 active torsions:
REMARK  status: ('A' for Active; 'I' for Inactive)
REMARK    1  A    between atoms: C_8  and  C_9 
REMARK       I    between atoms: N_10  and  C_11 
REMARK       I    between atoms: C_11  and  N_12 
REMARK    2  A    between atoms: N_12  and  C_13 
REMARK    3  A    between atoms: C_15  and  O_16 
REMARK    4  A    between atoms: O_16  and  C_17 
REMARK    5  A    between atoms: C_17  and  C_18 
ROOT
HETATM    1  C   UNL     1      -3.922   4.717 -31.735  1.00  0.00     0.126 C 
HETATM    2  N   UNL     1      -4.630   3.470 -32.023  1.00  0.00    -0.325 N 
HETATM    3  C   UNL     1      -3.974   2.301 -31.818  1.00  0.00     0.323 C 
HETATM    4  N   UNL     1      -4.379   1.094 -32.256  1.00  0.00    -0.309 N 
HETATM    5  O   UNL     1      -2.844   2.295 -31.305  1.00  0.00    -0.247 OA
HETATM    6  C   UNL     1      -6.020   3.745 -32.340  1.00  0.00     0.128 C 
HETATM    7  C   UNL     1      -6.132   5.257 -32.496  1.00  0.00     0.022 C 
HETATM    8  C   UNL     1      -5.015   5.781 -31.610  1.00  0.00     0.032 C 
HETATM    9  H   UNL     1      -3.553   0.506 -32.250  1.00  0.00     0.170 HD
ENDROOT
BRANCH   4  10
HETATM   10  C   UNL     1      -5.518   0.451 -32.755  1.00  0.00     0.039 A 
HETATM   11  C   UNL     1      -6.807   0.563 -32.249  1.00  0.00     0.066 A 
HETATM   12  C   UNL     1      -7.879  -0.134 -32.829  1.00  0.00     0.071 A 
HETATM   13  C   UNL     1      -7.639  -1.014 -33.884  1.00  0.00     0.037 A 
HETATM   14  C   UNL     1      -6.342  -1.189 -34.358  1.00  0.00     0.005 A 
HETATM   15  C   UNL     1      -5.292  -0.465 -33.794  1.00  0.00     0.030 A 
BRANCH  12  16
HETATM   16  O   UNL     1      -9.102   0.128 -32.271  1.00  0.00    -0.347 OA
BRANCH  16  17
HETATM   17  C   UNL     1     -10.031   0.864 -33.068  1.00  0.00     0.208 C 
BRANCH  17  18
HETATM   18  C   UNL     1      -9.771   2.338 -32.871  1.00  0.00    -0.069 C 
HETATM   19  C   UNL     1      -9.564   3.140 -34.125  1.00  0.00     0.044 C 
HETATM   20  C   UNL     1      -9.757   2.911 -31.655  1.00  0.00     0.016 C 
ENDBRANCH  17  18
ENDBRANCH  16  17
ENDBRANCH  12  16
ENDBRANCH   4  10
BRANCH   1  21
HETATM   21  C   UNL     1      -2.900   5.038 -32.803  1.00  0.00     0.014 A 
HETATM   22  C   UNL     1      -3.010   5.160 -34.184  1.00  0.00     0.034 A 
HETATM   23  C   UNL     1      -4.125   5.003 -35.147  1.00  0.00     0.070 C 
HETATM   24  N   UNL     1      -1.758   5.481 -34.634  1.00  0.00    -0.282 N 
HETATM   25  H   UNL     1      -1.462   5.644 -35.590  1.00  0.00     0.189 HD
HETATM   26  N   UNL     1      -0.838   5.574 -33.671  1.00  0.00    -0.179 NA
HETATM   27  C   UNL     1      -1.509   5.273 -32.556  1.00  0.00     0.061 A 
HETATM   28  C   UNL     1      -0.788   5.211 -31.258  1.00  0.00     0.073 C 
ENDBRANCH   1  21
TORSDOF 5
ENDMDL
MODEL 10
REMARK VINA RESULT:      -7.4      2.530      8.155
REMARK  5 active torsions:
REMARK  status: ('A' for Active; 'I' for Inactive)
REMARK    1  A    between atoms: C_8  and  C_9 
REMARK       I    between atoms: N_10  and  C_11 
REMARK       I    between atoms: C_11  and  N_12 
REMARK    2  A    between atoms: N_12  and  C_13 
REMARK    3  A    between atoms: C_15  and  O_16 
REMARK    4  A    between atoms: O_16  and  C_17 
REMARK    5  A    between atoms: C_17  and  C_18 
ROOT
HETATM    1  C   UNL     1      -6.280   0.988 -31.826  1.00  0.00     0.126 C 
HETATM    2  N   UNL     1      -5.309   2.058 -32.052  1.00  0.00    -0.325 N 
HETATM    3  C   UNL     1      -5.655   3.069 -32.888  1.00  0.00     0.323 C 
HETATM    4  N   UNL     1      -4.808   3.988 -33.390  1.00  0.00    -0.309 N 
HETATM    5  O   UNL     1      -6.800   3.130 -33.362  1.00  0.00    -0.247 OA
HETATM    6  C   UNL     1      -4.169   1.894 -31.168  1.00  0.00     0.128 C 
HETATM    7  C   UNL     1      -4.320   0.519 -30.527  1.00  0.00     0.022 C 
HETATM    8  C   UNL     1      -5.821   0.291 -30.544  1.00  0.00     0.032 C 
HETATM    9  H   UNL     1      -5.270   4.372 -34.207  1.00  0.00     0.170 HD
ENDROOT
BRANCH   4  10
HETATM   10  C   UNL     1      -3.523   4.501 -33.183  1.00  0.00     0.039 A 
HETATM   11  C   UNL     1      -2.994   4.911 -31.966  1.00  0.00     0.066 A 
HETATM   12  C   UNL     1      -1.687   5.417 -31.874  1.00  0.00     0.071 A 
HETATM   13  C   UNL     1      -0.930   5.585 -33.032  1.00  0.00     0.037 A 
HETATM   14  C   UNL     1      -1.472   5.243 -34.268  1.00  0.00     0.005 A 
HETATM   15  C   UNL     1      -2.758   4.711 -34.340  1.00  0.00     0.030 A 
BRANCH  12  16
HETATM   16  O   UNL     1      -1.275   5.713 -30.601  1.00  0.00    -0.347 OA
BRANCH  16  17
HETATM   17  C   UNL     1      -0.065   6.460 -30.472  1.00  0.00     0.208 C 
BRANCH  17  18
HETATM   18  C   UNL     1      -0.235   7.460 -29.354  1.00  0.00    -0.069 C 
HETATM   19  C   UNL     1      -1.622   8.008 -29.169  1.00  0.00     0.044 C 
HETATM   20  C   UNL     1       0.780   7.819 -28.549  1.00  0.00     0.016 C 
ENDBRANCH  17  18
ENDBRANCH  16  17
ENDBRANCH  12  16
ENDBRANCH   4  10
BRANCH   1  21
HETATM   21  C   UNL     1      -6.366   0.054 -33.013  1.00  0.00     0.014 A 
HETATM   22  C   UNL     1      -5.397  -0.686 -33.682  1.00  0.00     0.034 A 
HETATM   23  C   UNL     1      -3.931  -0.837 -33.533  1.00  0.00     0.070 C 
HETATM   24  N   UNL     1      -6.058  -1.364 -34.671  1.00  0.00    -0.282 N 
HETATM   25  H   UNL     1      -5.668  -2.000 -35.357  1.00  0.00     0.189 HD
HETATM   26  N   UNL     1      -7.371  -1.128 -34.712  1.00  0.00    -0.179 NA
HETATM   27  C   UNL     1      -7.569  -0.242 -33.732  1.00  0.00     0.061 A 
HETATM   28  C   UNL     1      -8.928   0.317 -33.510  1.00  0.00     0.073 C 
ENDBRANCH   1  21
TORSDOF 5
ENDMDL
