MODEL 1
REMARK VINA RESULT:      -8.8      0.000      0.000
REMARK  4 active torsions:
REMARK  status: ('A' for Active; 'I' for Inactive)
REMARK    1  A    between atoms: C_6  and  N_7 
REMARK       I    between atoms: N_7  and  C_8 
REMARK    2  A    between atoms: C_8  and  C_9 
REMARK    3  A    between atoms: C_10  and  C_11 
REMARK    4  A    between atoms: C_14  and  O_15 
ROOT
HETATM    1  C   UNL     1      -7.972   2.420 -33.607  1.00  0.00     0.131 C 
HETATM    2  C   UNL     1      -7.514   3.681 -32.829  1.00  0.00     0.177 C 
HETATM    3  N   UNL     1      -8.321   3.909 -31.626  1.00  0.00    -0.088 N 
HETATM    4  C   UNL     1      -9.525   3.296 -31.383  1.00  0.00     0.721 A 
HETATM    5  N   UNL     1      -9.991   2.321 -32.192  1.00  0.00    -0.218 N 
HETATM    6  C   UNL     1      -9.509   2.303 -33.576  1.00  0.00     0.111 C 
HETATM    7  C   UNL     1     -10.041   1.068 -34.298  1.00  0.00     0.034 C 
HETATM    8  N   UNL     1      -8.108   4.906 -30.745  1.00  0.00    -0.149 NA
HETATM    9  C   UNL     1      -9.165   4.765 -29.938  1.00  0.00     0.275 A 
HETATM   10  N   UNL     1     -10.053   3.786 -30.294  1.00  0.00    -0.055 NA
HETATM   11  H   UNL     1     -10.987   2.122 -32.077  1.00  0.00     0.178 HD
ENDROOT
BRANCH   1  12
HETATM   12  C   UNL     1      -7.251   1.144 -33.164  1.00  0.00     0.230 C 
HETATM   13  N   UNL     1      -6.420   0.576 -34.104  1.00  0.00    -0.326 N 
HETATM   14  H   UNL     1      -6.423   1.009 -35.023  1.00  0.00     0.169 HD
HETATM   15  O   UNL     1      -7.505   0.689 -32.051  1.00  0.00    -0.273 OA
BRANCH  13  16
HETATM   16  C   UNL     1      -5.703  -0.640 -34.035  1.00  0.00     0.040 A 
HETATM   17  C   UNL     1      -4.511  -0.875 -33.331  1.00  0.00    -0.035 A 
HETATM   18  C   UNL     1      -3.986  -2.185 -33.304  1.00  0.00     0.015 A 
HETATM   19  C   UNL     1      -3.700   0.183 -32.638  1.00  0.00     0.050 C 
HETATM   20  C   UNL     1      -4.574  -3.234 -34.021  1.00  0.00    -0.061 A 
HETATM   21  C   UNL     1      -4.012  -4.622 -33.940  1.00  0.00     0.048 C 
HETATM   22  C   UNL     1      -5.718  -2.973 -34.769  1.00  0.00     0.009 A 
HETATM   23  C   UNL     1      -6.264  -1.687 -34.787  1.00  0.00     0.030 A 
ENDBRANCH  13  16
ENDBRANCH   1  12
BRANCH   2  24
HETATM   24  C   UNL     1      -6.008   3.765 -32.609  1.00  0.00    -0.032 A 
HETATM   25  C   UNL     1      -5.193   4.210 -33.663  1.00  0.00     0.012 A 
HETATM   26  C   UNL     1      -3.808   4.305 -33.507  1.00  0.00     0.037 A 
HETATM   27  C   UNL     1      -3.209   3.974 -32.294  1.00  0.00     0.068 A 
HETATM   28  C   UNL     1      -3.997   3.489 -31.253  1.00  0.00     0.037 A 
HETATM   29  C   UNL     1      -5.384   3.378 -31.411  1.00  0.00     0.012 A 
BRANCH  27  30
HETATM   30  O   UNL     1      -1.851   4.133 -32.248  1.00  0.00    -0.356 OA
HETATM   31  C   UNL     1      -1.342   5.216 -33.019  1.00  0.00     0.210 C 
ENDBRANCH  27  30
ENDBRANCH   2  24
TORSDOF 4
ENDMDL
MODEL 2
REMARK VINA RESULT:      -8.2      1.928      5.737
REMARK  4 active torsions:
REMARK  status: ('A' for Active; 'I' for Inactive)
REMARK    1  A    between atoms: C_6  and  N_7 
REMARK       I    between atoms: N_7  and  C_8 
REMARK    2  A    between atoms: C_8  and  C_9 
REMARK    3  A    between atoms: C_10  and  C_11 
REMARK    4  A    between atoms: C_14  and  O_15 
ROOT
HETATM    1  C   UNL     1      -7.995   2.628 -31.230  1.00  0.00     0.131 C 
HETATM    2  C   UNL     1      -8.455   1.232 -31.727  1.00  0.00     0.177 C 
HETATM    3  N   UNL     1      -9.679   1.309 -32.529  1.00  0.00    -0.088 N 
HETATM    4  C   UNL     1     -10.501   2.408 -32.571  1.00  0.00     0.721 A 
HETATM    5  N   UNL     1     -10.157   3.564 -31.964  1.00  0.00    -0.218 N 
HETATM    6  C   UNL     1      -9.217   3.485 -30.842  1.00  0.00     0.111 C 
HETATM    7  C   UNL     1      -8.850   4.889 -30.368  1.00  0.00     0.034 C 
HETATM    8  N   UNL     1     -10.268   0.253 -33.122  1.00  0.00    -0.149 NA
HETATM    9  C   UNL     1     -11.388   0.812 -33.592  1.00  0.00     0.275 A 
HETATM   10  N   UNL     1     -11.564   2.133 -33.278  1.00  0.00    -0.055 NA
HETATM   11  H   UNL     1     -10.933   4.215 -31.834  1.00  0.00     0.178 HD
ENDROOT
BRANCH   1  12
HETATM   12  C   UNL     1      -7.038   3.327 -32.199  1.00  0.00     0.230 C 
HETATM   13  N   UNL     1      -5.790   3.617 -31.693  1.00  0.00    -0.326 N 
HETATM   14  H   UNL     1      -5.648   3.413 -30.708  1.00  0.00     0.169 HD
HETATM   15  O   UNL     1      -7.458   3.632 -33.313  1.00  0.00    -0.273 OA
BRANCH  13  16
HETATM   16  C   UNL     1      -4.734   4.336 -32.297  1.00  0.00     0.040 A 
HETATM   17  C   UNL     1      -4.684   5.719 -32.534  1.00  0.00    -0.035 A 
HETATM   18  C   UNL     1      -3.501   6.273 -33.069  1.00  0.00     0.015 A 
HETATM   19  C   UNL     1      -5.827   6.669 -32.316  1.00  0.00     0.050 C 
HETATM   20  C   UNL     1      -2.412   5.478 -33.441  1.00  0.00    -0.061 A 
HETATM   21  C   UNL     1      -1.156   6.103 -33.971  1.00  0.00     0.048 C 
HETATM   22  C   UNL     1      -2.498   4.100 -33.263  1.00  0.00     0.009 A 
HETATM   23  C   UNL     1      -3.653   3.538 -32.713  1.00  0.00     0.030 A 
ENDBRANCH  13  16
ENDBRANCH   1  12
BRANCH   2  24
HETATM   24  C   UNL     1      -7.342   0.392 -32.344  1.00  0.00    -0.032 A 
HETATM   25  C   UNL     1      -6.334  -0.117 -31.508  1.00  0.00     0.012 A 
HETATM   26  C   UNL     1      -5.296  -0.892 -32.029  1.00  0.00     0.037 A 
HETATM   27  C   UNL     1      -5.249  -1.189 -33.389  1.00  0.00     0.068 A 
HETATM   28  C   UNL     1      -6.215  -0.655 -34.239  1.00  0.00     0.037 A 
HETATM   29  C   UNL     1      -7.249   0.135 -33.722  1.00  0.00     0.012 A 
BRANCH  27  30
HETATM   30  O   UNL     1      -4.204  -1.980 -33.781  1.00  0.00    -0.356 OA
HETATM   31  C   UNL     1      -4.547  -3.047 -34.658  1.00  0.00     0.210 C 
ENDBRANCH  27  30
ENDBRANCH   2  24
TORSDOF 4
ENDMDL
MODEL 3
REMARK VINA RESULT:      -8.2      1.970      5.656
REMARK  4 active torsions:
REMARK  status: ('A' for Active; 'I' for Inactive)
REMARK    1  A    between atoms: C_6  and  N_7 
REMARK       I    between atoms: N_7  and  C_8 
REMARK    2  A    between atoms: C_8  and  C_9 
REMARK    3  A    between atoms: C_10  and  C_11 
REMARK    4  A    between atoms: C_14  and  O_15 
ROOT
HETATM    1  C   UNL     1      -8.201   2.748 -31.200  1.00  0.00     0.131 C 
HETATM    2  C   UNL     1      -8.684   1.364 -31.709  1.00  0.00     0.177 C 
HETATM    3  N   UNL     1      -9.855   1.477 -32.584  1.00  0.00    -0.088 N 
HETATM    4  C   UNL     1     -10.631   2.605 -32.686  1.00  0.00     0.721 A 
HETATM    5  N   UNL     1     -10.279   3.756 -32.071  1.00  0.00    -0.218 N 
HETATM    6  C   UNL     1      -9.410   3.655 -30.895  1.00  0.00     0.111 C 
HETATM    7  C   UNL     1      -9.019   5.050 -30.414  1.00  0.00     0.034 C 
HETATM    8  N   UNL     1     -10.448   0.436 -33.200  1.00  0.00    -0.149 NA
HETATM    9  C   UNL     1     -11.516   1.031 -33.741  1.00  0.00     0.275 A 
HETATM   10  N   UNL     1     -11.659   2.362 -33.452  1.00  0.00    -0.055 NA
HETATM   11  H   UNL     1     -11.036   4.437 -31.994  1.00  0.00     0.178 HD
ENDROOT
BRANCH   1  12
HETATM   12  C   UNL     1      -7.162   3.398 -32.118  1.00  0.00     0.230 C 
HETATM   13  N   UNL     1      -5.896   3.517 -31.589  1.00  0.00    -0.326 N 
HETATM   14  H   UNL     1      -5.789   3.236 -30.619  1.00  0.00     0.169 HD
HETATM   15  O   UNL     1      -7.534   3.818 -33.211  1.00  0.00    -0.273 OA
BRANCH  13  16
HETATM   16  C   UNL     1      -4.761   4.152 -32.141  1.00  0.00     0.040 A 
HETATM   17  C   UNL     1      -3.593   3.530 -32.608  1.00  0.00    -0.035 A 
HETATM   18  C   UNL     1      -2.595   4.325 -33.213  1.00  0.00     0.015 A 
HETATM   19  C   UNL     1      -3.282   2.067 -32.464  1.00  0.00     0.050 C 
HETATM   20  C   UNL     1      -2.703   5.718 -33.288  1.00  0.00    -0.061 A 
HETATM   21  C   UNL     1      -1.643   6.530 -33.971  1.00  0.00     0.048 C 
HETATM   22  C   UNL     1      -3.837   6.330 -32.762  1.00  0.00     0.009 A 
HETATM   23  C   UNL     1      -4.844   5.555 -32.181  1.00  0.00     0.030 A 
ENDBRANCH  13  16
ENDBRANCH   1  12
BRANCH   2  24
HETATM   24  C   UNL     1      -7.570   0.476 -32.250  1.00  0.00    -0.032 A 
HETATM   25  C   UNL     1      -6.608  -0.025 -31.357  1.00  0.00     0.012 A 
HETATM   26  C   UNL     1      -5.570  -0.844 -31.807  1.00  0.00     0.037 A 
HETATM   27  C   UNL     1      -5.478  -1.194 -33.152  1.00  0.00     0.068 A 
HETATM   28  C   UNL     1      -6.397  -0.670 -34.059  1.00  0.00     0.037 A 
HETATM   29  C   UNL     1      -7.430   0.163 -33.613  1.00  0.00     0.012 A 
BRANCH  27  30
HETATM   30  O   UNL     1      -4.439  -2.023 -33.473  1.00  0.00    -0.356 OA
HETATM   31  C   UNL     1      -4.681  -2.904 -34.565  1.00  0.00     0.210 C 
ENDBRANCH  27  30
ENDBRANCH   2  24
TORSDOF 4
ENDMDL
MODEL 4
REMARK VINA RESULT:      -8.0     16.037     17.820
REMARK  4 active torsions:
REMARK  status: ('A' for Active; 'I' for Inactive)
REMARK    1  A    between atoms: C_6  and  N_7 
REMARK       I    between atoms: N_7  and  C_8 
REMARK    2  A    between atoms: C_8  and  C_9 
REMARK    3  A    between atoms: C_10  and  C_11 
REMARK    4  A    between atoms: C_14  and  O_15 
ROOT
HETATM    1  C   UNL     1      -5.115 -12.628 -39.359  1.00  0.00     0.131 C 
HETATM    2  C   UNL     1      -4.476 -12.720 -37.948  1.00  0.00     0.177 C 
HETATM    3  N   UNL     1      -5.385 -13.326 -36.970  1.00  0.00    -0.088 N 
HETATM    4  C   UNL     1      -6.732 -13.492 -37.175  1.00  0.00     0.721 A 
HETATM    5  N   UNL     1      -7.298 -13.223 -38.372  1.00  0.00    -0.218 N 
HETATM    6  C   UNL     1      -6.610 -12.267 -39.244  1.00  0.00     0.111 C 
HETATM    7  C   UNL     1      -7.321 -12.185 -40.592  1.00  0.00     0.034 C 
HETATM    8  N   UNL     1      -5.067 -13.568 -35.684  1.00  0.00    -0.149 NA
HETATM    9  C   UNL     1      -6.243 -13.979 -35.201  1.00  0.00     0.275 A 
HETATM   10  N   UNL     1      -7.287 -13.951 -36.086  1.00  0.00    -0.055 NA
HETATM   11  H   UNL     1      -8.314 -13.129 -38.342  1.00  0.00     0.178 HD
ENDROOT
BRANCH   1  12
HETATM   12  C   UNL     1      -4.847 -13.864 -40.223  1.00  0.00     0.230 C 
HETATM   13  N   UNL     1      -4.010 -13.664 -41.298  1.00  0.00    -0.326 N 
HETATM   14  H   UNL     1      -3.713 -12.707 -41.462  1.00  0.00     0.169 HD
HETATM   15  O   UNL     1      -5.432 -14.908 -39.943  1.00  0.00    -0.273 OA
BRANCH  13  16
HETATM   16  C   UNL     1      -3.654 -14.569 -42.324  1.00  0.00     0.040 A 
HETATM   17  C   UNL     1      -2.619 -15.517 -42.287  1.00  0.00    -0.035 A 
HETATM   18  C   UNL     1      -2.470 -16.401 -43.378  1.00  0.00     0.015 A 
HETATM   19  C   UNL     1      -1.601 -15.636 -41.189  1.00  0.00     0.050 C 
HETATM   20  C   UNL     1      -3.269 -16.307 -44.523  1.00  0.00    -0.061 A 
HETATM   21  C   UNL     1      -3.108 -17.285 -45.648  1.00  0.00     0.048 C 
HETATM   22  C   UNL     1      -4.248 -15.319 -44.575  1.00  0.00     0.009 A 
HETATM   23  C   UNL     1      -4.425 -14.452 -43.494  1.00  0.00     0.030 A 
ENDBRANCH  13  16
ENDBRANCH   1  12
BRANCH   2  24
HETATM   24  C   UNL     1      -3.062 -13.291 -37.940  1.00  0.00    -0.032 A 
HETATM   25  C   UNL     1      -2.854 -14.578 -37.417  1.00  0.00     0.012 A 
HETATM   26  C   UNL     1      -1.576 -15.142 -37.390  1.00  0.00     0.037 A 
HETATM   27  C   UNL     1      -0.484 -14.443 -37.898  1.00  0.00     0.068 A 
HETATM   28  C   UNL     1      -0.666 -13.148 -38.380  1.00  0.00     0.037 A 
HETATM   29  C   UNL     1      -1.942 -12.574 -38.394  1.00  0.00     0.012 A 
BRANCH  27  30
HETATM   30  O   UNL     1       0.712 -15.105 -37.846  1.00  0.00    -0.356 OA
HETATM   31  C   UNL     1       1.701 -14.642 -38.760  1.00  0.00     0.210 C 
ENDBRANCH  27  30
ENDBRANCH   2  24
TORSDOF 4
ENDMDL
MODEL 5
REMARK VINA RESULT:      -7.7     16.059     18.184
REMARK  4 active torsions:
REMARK  status: ('A' for Active; 'I' for Inactive)
REMARK    1  A    between atoms: C_6  and  N_7 
REMARK       I    between atoms: N_7  and  C_8 
REMARK    2  A    between atoms: C_8  and  C_9 
REMARK    3  A    between atoms: C_10  and  C_11 
REMARK    4  A    between atoms: C_14  and  O_15 
ROOT
HETATM    1  C   UNL     1      -4.295 -12.748 -39.246  1.00  0.00     0.131 C 
HETATM    2  C   UNL     1      -4.959 -12.925 -40.638  1.00  0.00     0.177 C 
HETATM    3  N   UNL     1      -4.183 -13.814 -41.508  1.00  0.00    -0.088 N 
HETATM    4  C   UNL     1      -2.884 -14.185 -41.264  1.00  0.00     0.721 A 
HETATM    5  N   UNL     1      -2.264 -13.852 -40.111  1.00  0.00    -0.218 N 
HETATM    6  C   UNL     1      -2.762 -12.675 -39.392  1.00  0.00     0.111 C 
HETATM    7  C   UNL     1      -2.030 -12.529 -38.061  1.00  0.00     0.034 C 
HETATM    8  N   UNL     1      -4.555 -14.177 -42.750  1.00  0.00    -0.149 NA
HETATM    9  C   UNL     1      -3.475 -14.853 -43.155  1.00  0.00     0.275 A 
HETATM   10  N   UNL     1      -2.432 -14.884 -42.270  1.00  0.00    -0.055 NA
HETATM   11  H   UNL     1      -1.247 -13.944 -40.141  1.00  0.00     0.178 HD
ENDROOT
BRANCH   1  12
HETATM   12  C   UNL     1      -4.765 -13.781 -38.218  1.00  0.00     0.230 C 
HETATM   13  N   UNL     1      -5.462 -13.273 -37.144  1.00  0.00    -0.326 N 
HETATM   14  H   UNL     1      -5.530 -12.261 -37.094  1.00  0.00     0.169 HD
HETATM   15  O   UNL     1      -4.443 -14.955 -38.384  1.00  0.00    -0.273 OA
BRANCH  13  16
HETATM   16  C   UNL     1      -5.935 -13.947 -35.996  1.00  0.00     0.040 A 
HETATM   17  C   UNL     1      -6.931 -14.936 -35.951  1.00  0.00    -0.035 A 
HETATM   18  C   UNL     1      -7.209 -15.564 -34.717  1.00  0.00     0.015 A 
HETATM   19  C   UNL     1      -7.785 -15.349 -37.116  1.00  0.00     0.050 C 
HETATM   20  C   UNL     1      -6.578 -15.176 -33.530  1.00  0.00    -0.061 A 
HETATM   21  C   UNL     1      -6.869 -15.890 -32.243  1.00  0.00     0.048 C 
HETATM   22  C   UNL     1      -5.639 -14.149 -33.576  1.00  0.00     0.009 A 
HETATM   23  C   UNL     1      -5.336 -13.534 -34.793  1.00  0.00     0.030 A 
ENDBRANCH  13  16
ENDBRANCH   1  12
BRANCH   2  24
HETATM   24  C   UNL     1      -6.450 -13.233 -40.582  1.00  0.00    -0.032 A 
HETATM   25  C   UNL     1      -7.347 -12.190 -40.297  1.00  0.00     0.012 A 
HETATM   26  C   UNL     1      -8.723 -12.424 -40.237  1.00  0.00     0.037 A 
HETATM   27  C   UNL     1      -9.234 -13.697 -40.476  1.00  0.00     0.068 A 
HETATM   28  C   UNL     1      -8.356 -14.752 -40.716  1.00  0.00     0.037 A 
HETATM   29  C   UNL     1      -6.976 -14.523 -40.761  1.00  0.00     0.012 A 
BRANCH  27  30
HETATM   30  O   UNL     1     -10.597 -13.802 -40.419  1.00  0.00    -0.356 OA
HETATM   31  C   UNL     1     -11.165 -14.783 -41.281  1.00  0.00     0.210 C 
ENDBRANCH  27  30
ENDBRANCH   2  24
TORSDOF 4
ENDMDL
MODEL 6
REMARK VINA RESULT:      -7.7      1.546      2.416
REMARK  4 active torsions:
REMARK  status: ('A' for Active; 'I' for Inactive)
REMARK    1  A    between atoms: C_6  and  N_7 
REMARK       I    between atoms: N_7  and  C_8 
REMARK    2  A    between atoms: C_8  and  C_9 
REMARK    3  A    between atoms: C_10  and  C_11 
REMARK    4  A    between atoms: C_14  and  O_15 
ROOT
HETATM    1  C   UNL     1      -7.022   3.750 -33.704  1.00  0.00     0.131 C 
HETATM    2  C   UNL     1      -6.379   5.087 -33.246  1.00  0.00     0.177 C 
HETATM    3  N   UNL     1      -7.143   5.724 -32.169  1.00  0.00    -0.088 N 
HETATM    4  C   UNL     1      -8.426   5.375 -31.827  1.00  0.00     0.721 A 
HETATM    5  N   UNL     1      -9.034   4.306 -32.386  1.00  0.00    -0.218 N 
HETATM    6  C   UNL     1      -8.559   3.871 -33.703  1.00  0.00     0.111 C 
HETATM    7  C   UNL     1      -9.271   2.586 -34.116  1.00  0.00     0.034 C 
HETATM    8  N   UNL     1      -6.783   6.868 -31.556  1.00  0.00    -0.149 NA
HETATM    9  C   UNL     1      -7.848   7.091 -30.780  1.00  0.00     0.275 A 
HETATM   10  N   UNL     1      -8.874   6.194 -30.915  1.00  0.00    -0.055 NA
HETATM   11  H   UNL     1     -10.048   4.290 -32.264  1.00  0.00     0.178 HD
ENDROOT
BRANCH   1  12
HETATM   12  C   UNL     1      -6.502   2.535 -32.931  1.00  0.00     0.230 C 
HETATM   13  N   UNL     1      -5.695   1.680 -33.646  1.00  0.00    -0.326 N 
HETATM   14  H   UNL     1      -5.584   1.890 -34.634  1.00  0.00     0.169 HD
HETATM   15  O   UNL     1      -6.882   2.376 -31.773  1.00  0.00    -0.273 OA
BRANCH  13  16
HETATM   16  C   UNL     1      -5.147   0.438 -33.250  1.00  0.00     0.040 A 
HETATM   17  C   UNL     1      -5.508  -0.831 -33.729  1.00  0.00    -0.035 A 
HETATM   18  C   UNL     1      -4.784  -1.957 -33.280  1.00  0.00     0.015 A 
HETATM   19  C   UNL     1      -6.660  -1.106 -34.653  1.00  0.00     0.050 C 
HETATM   20  C   UNL     1      -3.774  -1.852 -32.317  1.00  0.00    -0.061 A 
HETATM   21  C   UNL     1      -2.999  -3.063 -31.889  1.00  0.00     0.048 C 
HETATM   22  C   UNL     1      -3.470  -0.596 -31.800  1.00  0.00     0.009 A 
HETATM   23  C   UNL     1      -4.161   0.531 -32.252  1.00  0.00     0.030 A 
ENDBRANCH  13  16
ENDBRANCH   1  12
BRANCH   2  24
HETATM   24  C   UNL     1      -4.878   5.002 -32.996  1.00  0.00    -0.032 A 
HETATM   25  C   UNL     1      -4.414   4.924 -31.672  1.00  0.00     0.012 A 
HETATM   26  C   UNL     1      -3.047   4.844 -31.395  1.00  0.00     0.037 A 
HETATM   27  C   UNL     1      -2.116   4.823 -32.431  1.00  0.00     0.068 A 
HETATM   28  C   UNL     1      -2.556   4.946 -33.747  1.00  0.00     0.037 A 
HETATM   29  C   UNL     1      -3.924   5.041 -34.027  1.00  0.00     0.012 A 
BRANCH  27  30
HETATM   30  O   UNL     1      -0.810   4.713 -32.043  1.00  0.00    -0.356 OA
HETATM   31  C   UNL     1      -0.534   5.147 -30.715  1.00  0.00     0.210 C 
ENDBRANCH  27  30
ENDBRANCH   2  24
TORSDOF 4
ENDMDL
MODEL 7
REMARK VINA RESULT:      -7.5      2.387      3.322
REMARK  4 active torsions:
REMARK  status: ('A' for Active; 'I' for Inactive)
REMARK    1  A    between atoms: C_6  and  N_7 
REMARK       I    between atoms: N_7  and  C_8 
REMARK    2  A    between atoms: C_8  and  C_9 
REMARK    3  A    between atoms: C_10  and  C_11 
REMARK    4  A    between atoms: C_14  and  O_15 
ROOT
HETATM    1  C   UNL     1     -10.737   3.417 -33.994  1.00  0.00     0.131 C 
HETATM    2  C   UNL     1     -10.787   4.580 -32.966  1.00  0.00     0.177 C 
HETATM    3  N   UNL     1     -11.837   4.382 -31.962  1.00  0.00    -0.088 N 
HETATM    4  C   UNL     1     -12.857   3.473 -32.088  1.00  0.00     0.721 A 
HETATM    5  N   UNL     1     -12.886   2.587 -33.108  1.00  0.00    -0.218 N 
HETATM    6  C   UNL     1     -12.165   2.945 -34.333  1.00  0.00     0.111 C 
HETATM    7  C   UNL     1     -12.203   1.780 -35.319  1.00  0.00     0.034 C 
HETATM    8  N   UNL     1     -12.067   5.215 -30.929  1.00  0.00    -0.149 NA
HETATM    9  C   UNL     1     -13.180   4.683 -30.413  1.00  0.00     0.275 A 
HETATM   10  N   UNL     1     -13.692   3.611 -31.093  1.00  0.00    -0.055 NA
HETATM   11  H   UNL     1     -13.796   2.146 -33.253  1.00  0.00     0.178 HD
ENDROOT
BRANCH   1  12
HETATM   12  C   UNL     1      -9.799   2.283 -33.575  1.00  0.00     0.230 C 
HETATM   13  N   UNL     1      -8.637   2.174 -34.306  1.00  0.00    -0.326 N 
HETATM   14  H   UNL     1      -8.548   2.802 -35.099  1.00  0.00     0.169 HD
HETATM   15  O   UNL     1     -10.166   1.525 -32.679  1.00  0.00    -0.273 OA
BRANCH  13  16
HETATM   16  C   UNL     1      -7.631   1.185 -34.229  1.00  0.00     0.040 A 
HETATM   17  C   UNL     1      -6.420   1.269 -33.524  1.00  0.00    -0.035 A 
HETATM   18  C   UNL     1      -5.574   0.139 -33.490  1.00  0.00     0.015 A 
HETATM   19  C   UNL     1      -5.910   2.505 -32.838  1.00  0.00     0.050 C 
HETATM   20  C   UNL     1      -5.870  -1.030 -34.199  1.00  0.00    -0.061 A 
HETATM   21  C   UNL     1      -4.969  -2.225 -34.111  1.00  0.00     0.048 C 
HETATM   22  C   UNL     1      -7.042  -1.078 -34.949  1.00  0.00     0.009 A 
HETATM   23  C   UNL     1      -7.901   0.023 -34.975  1.00  0.00     0.030 A 
ENDBRANCH  13  16
ENDBRANCH   1  12
BRANCH   2  24
HETATM   24  C   UNL     1      -9.427   4.966 -32.397  1.00  0.00    -0.032 A 
HETATM   25  C   UNL     1      -8.571   5.766 -33.171  1.00  0.00     0.012 A 
HETATM   26  C   UNL     1      -7.316   6.147 -32.690  1.00  0.00     0.037 A 
HETATM   27  C   UNL     1      -6.896   5.752 -31.422  1.00  0.00     0.068 A 
HETATM   28  C   UNL     1      -7.714   4.921 -30.659  1.00  0.00     0.037 A 
HETATM   29  C   UNL     1      -8.966   4.526 -31.145  1.00  0.00     0.012 A 
BRANCH  27  30
HETATM   30  O   UNL     1      -5.662   6.207 -31.045  1.00  0.00    -0.356 OA
HETATM   31  C   UNL     1      -4.609   5.934 -31.963  1.00  0.00     0.210 C 
ENDBRANCH  27  30
ENDBRANCH   2  24
TORSDOF 4
ENDMDL
MODEL 8
REMARK VINA RESULT:      -7.4     16.249     17.564
REMARK  4 active torsions:
REMARK  status: ('A' for Active; 'I' for Inactive)
REMARK    1  A    between atoms: C_6  and  N_7 
REMARK       I    between atoms: N_7  and  C_8 
REMARK    2  A    between atoms: C_8  and  C_9 
REMARK    3  A    between atoms: C_10  and  C_11 
REMARK    4  A    between atoms: C_14  and  O_15 
ROOT
HETATM    1  C   UNL     1      -6.443 -12.844 -38.663  1.00  0.00     0.131 C 
HETATM    2  C   UNL     1      -7.667 -13.553 -38.024  1.00  0.00     0.177 C 
HETATM    3  N   UNL     1      -8.434 -14.320 -39.010  1.00  0.00    -0.088 N 
HETATM    4  C   UNL     1      -8.298 -14.178 -40.369  1.00  0.00     0.721 A 
HETATM    5  N   UNL     1      -7.331 -13.397 -40.898  1.00  0.00    -0.218 N 
HETATM    6  C   UNL     1      -6.806 -12.312 -40.064  1.00  0.00     0.111 C 
HETATM    7  C   UNL     1      -5.643 -11.624 -40.774  1.00  0.00     0.034 C 
HETATM    8  N   UNL     1      -9.516 -15.068 -38.717  1.00  0.00    -0.149 NA
HETATM    9  C   UNL     1      -9.916 -15.431 -39.940  1.00  0.00     0.275 A 
HETATM   10  N   UNL     1      -9.192 -14.909 -40.977  1.00  0.00    -0.055 NA
HETATM   11  H   UNL     1      -7.478 -13.157 -41.880  1.00  0.00     0.178 HD
ENDROOT
BRANCH   1  12
HETATM   12  C   UNL     1      -5.173 -13.699 -38.641  1.00  0.00     0.230 C 
HETATM   13  N   UNL     1      -4.117 -13.173 -37.930  1.00  0.00    -0.326 N 
HETATM   14  H   UNL     1      -4.252 -12.238 -37.556  1.00  0.00     0.169 HD
HETATM   15  O   UNL     1      -5.161 -14.739 -39.294  1.00  0.00    -0.273 OA
BRANCH  13  16
HETATM   16  C   UNL     1      -2.799 -13.666 -37.806  1.00  0.00     0.040 A 
HETATM   17  C   UNL     1      -2.315 -14.532 -36.813  1.00  0.00    -0.035 A 
HETATM   18  C   UNL     1      -0.983 -14.992 -36.903  1.00  0.00     0.015 A 
HETATM   19  C   UNL     1      -3.092 -14.974 -35.605  1.00  0.00     0.050 C 
HETATM   20  C   UNL     1      -0.113 -14.550 -37.906  1.00  0.00    -0.061 A 
HETATM   21  C   UNL     1       1.285 -15.087 -37.995  1.00  0.00     0.048 C 
HETATM   22  C   UNL     1      -0.585 -13.639 -38.847  1.00  0.00     0.009 A 
HETATM   23  C   UNL     1      -1.907 -13.193 -38.786  1.00  0.00     0.030 A 
ENDBRANCH  13  16
ENDBRANCH   1  12
BRANCH   2  24
HETATM   24  C   UNL     1      -7.350 -14.307 -36.739  1.00  0.00    -0.032 A 
HETATM   25  C   UNL     1      -7.163 -13.577 -35.553  1.00  0.00     0.012 A 
HETATM   26  C   UNL     1      -6.872 -14.226 -34.350  1.00  0.00     0.037 A 
HETATM   27  C   UNL     1      -6.778 -15.615 -34.301  1.00  0.00     0.068 A 
HETATM   28  C   UNL     1      -6.915 -16.351 -35.476  1.00  0.00     0.037 A 
HETATM   29  C   UNL     1      -7.192 -15.702 -36.686  1.00  0.00     0.012 A 
BRANCH  27  30
HETATM   30  O   UNL     1      -6.518 -16.141 -33.066  1.00  0.00    -0.356 OA
HETATM   31  C   UNL     1      -5.819 -15.278 -32.175  1.00  0.00     0.210 C 
ENDBRANCH  27  30
ENDBRANCH   2  24
TORSDOF 4
ENDMDL
MODEL 9
REMARK VINA RESULT:      -7.4      2.339      5.028
REMARK  4 active torsions:
REMARK  status: ('A' for Active; 'I' for Inactive)
REMARK    1  A    between atoms: C_6  and  N_7 
REMARK       I    between atoms: N_7  and  C_8 
REMARK    2  A    between atoms: C_8  and  C_9 
REMARK    3  A    between atoms: C_10  and  C_11 
REMARK    4  A    between atoms: C_14  and  O_15 
ROOT
HETATM    1  C   UNL     1      -7.396   2.825 -31.180  1.00  0.00     0.131 C 
HETATM    2  C   UNL     1      -8.418   3.884 -31.674  1.00  0.00     0.177 C 
HETATM    3  N   UNL     1      -7.771   5.151 -32.026  1.00  0.00    -0.088 N 
HETATM    4  C   UNL     1      -6.489   5.484 -31.666  1.00  0.00     0.721 A 
HETATM    5  N   UNL     1      -5.675   4.590 -31.062  1.00  0.00    -0.218 N 
HETATM    6  C   UNL     1      -6.308   3.496 -30.319  1.00  0.00     0.111 C 
HETATM    7  C   UNL     1      -5.243   2.524 -29.816  1.00  0.00     0.034 C 
HETATM    8  N   UNL     1      -8.417   6.222 -32.526  1.00  0.00    -0.149 NA
HETATM    9  C   UNL     1      -7.437   7.131 -32.540  1.00  0.00     0.275 A 
HETATM   10  N   UNL     1      -6.239   6.714 -32.025  1.00  0.00    -0.055 NA
HETATM   11  H   UNL     1      -4.859   5.006 -30.611  1.00  0.00     0.178 HD
ENDROOT
BRANCH   1  12
HETATM   12  C   UNL     1      -6.836   1.956 -32.310  1.00  0.00     0.230 C 
HETATM   13  N   UNL     1      -6.976   0.597 -32.137  1.00  0.00    -0.326 N 
HETATM   14  H   UNL     1      -7.364   0.297 -31.247  1.00  0.00     0.169 HD
HETATM   15  O   UNL     1      -6.257   2.513 -33.240  1.00  0.00    -0.273 OA
BRANCH  13  16
HETATM   16  C   UNL     1      -6.482  -0.454 -32.941  1.00  0.00     0.040 A 
HETATM   17  C   UNL     1      -5.161  -0.929 -32.988  1.00  0.00    -0.035 A 
HETATM   18  C   UNL     1      -4.872  -2.054 -33.791  1.00  0.00     0.015 A 
HETATM   19  C   UNL     1      -3.994  -0.292 -32.288  1.00  0.00     0.050 C 
HETATM   20  C   UNL     1      -5.843  -2.658 -34.597  1.00  0.00    -0.061 A 
HETATM   21  C   UNL     1      -5.512  -3.875 -35.409  1.00  0.00     0.048 C 
HETATM   22  C   UNL     1      -7.134  -2.137 -34.593  1.00  0.00     0.009 A 
HETATM   23  C   UNL     1      -7.442  -1.039 -33.786  1.00  0.00     0.030 A 
ENDBRANCH  13  16
ENDBRANCH   1  12
BRANCH   2  24
HETATM   24  C   UNL     1      -9.402   3.362 -32.714  1.00  0.00    -0.032 A 
HETATM   25  C   UNL     1     -10.196   2.247 -32.396  1.00  0.00     0.012 A 
HETATM   26  C   UNL     1     -11.113   1.735 -33.317  1.00  0.00     0.037 A 
HETATM   27  C   UNL     1     -11.270   2.332 -34.566  1.00  0.00     0.068 A 
HETATM   28  C   UNL     1     -10.459   3.410 -34.914  1.00  0.00     0.037 A 
HETATM   29  C   UNL     1      -9.529   3.917 -33.998  1.00  0.00     0.012 A 
BRANCH  27  30
HETATM   30  O   UNL     1     -12.216   1.764 -35.373  1.00  0.00    -0.356 OA
HETATM   31  C   UNL     1     -13.425   1.391 -34.719  1.00  0.00     0.210 C 
ENDBRANCH  27  30
ENDBRANCH   2  24
TORSDOF 4
ENDMDL
MODEL 10
REMARK VINA RESULT:      -7.2      2.832      6.146
REMARK  4 active torsions:
REMARK  status: ('A' for Active; 'I' for Inactive)
REMARK    1  A    between atoms: C_6  and  N_7 
REMARK       I    between atoms: N_7  and  C_8 
REMARK    2  A    between atoms: C_8  and  C_9 
REMARK    3  A    between atoms: C_10  and  C_11 
REMARK    4  A    between atoms: C_14  and  O_15 
ROOT
HETATM    1  C   UNL     1      -5.753   2.172 -30.765  1.00  0.00     0.131 C 
HETATM    2  C   UNL     1      -5.160   3.555 -30.384  1.00  0.00     0.177 C 
HETATM    3  N   UNL     1      -4.030   3.924 -31.242  1.00  0.00    -0.088 N 
HETATM    4  C   UNL     1      -3.364   3.043 -32.056  1.00  0.00     0.721 A 
HETATM    5  N   UNL     1      -3.801   1.776 -32.224  1.00  0.00    -0.218 N 
HETATM    6  C   UNL     1      -4.623   1.198 -31.157  1.00  0.00     0.111 C 
HETATM    7  C   UNL     1      -5.126  -0.182 -31.575  1.00  0.00     0.034 C 
HETATM    8  N   UNL     1      -3.363   5.092 -31.159  1.00  0.00    -0.149 NA
HETATM    9  C   UNL     1      -2.370   4.883 -32.029  1.00  0.00     0.275 A 
HETATM   10  N   UNL     1      -2.340   3.641 -32.603  1.00  0.00    -0.055 NA
HETATM   11  H   UNL     1      -3.108   1.144 -32.628  1.00  0.00     0.178 HD
ENDROOT
BRANCH   1  12
HETATM   12  C   UNL     1      -6.873   2.262 -31.806  1.00  0.00     0.230 C 
HETATM   13  N   UNL     1      -8.133   1.949 -31.348  1.00  0.00    -0.326 N 
HETATM   14  H   UNL     1      -8.190   1.614 -30.390  1.00  0.00     0.169 HD
HETATM   15  O   UNL     1      -6.569   2.539 -32.964  1.00  0.00    -0.273 OA
BRANCH  13  16
HETATM   16  C   UNL     1      -9.340   1.844 -32.075  1.00  0.00     0.040 A 
HETATM   17  C   UNL     1     -10.237   2.883 -32.371  1.00  0.00    -0.035 A 
HETATM   18  C   UNL     1     -11.351   2.604 -33.192  1.00  0.00     0.015 A 
HETATM   19  C   UNL     1     -10.142   4.281 -31.829  1.00  0.00     0.050 C 
HETATM   20  C   UNL     1     -11.628   1.312 -33.652  1.00  0.00    -0.061 A 
HETATM   21  C   UNL     1     -12.799   1.057 -34.553  1.00  0.00     0.048 C 
HETATM   22  C   UNL     1     -10.766   0.277 -33.297  1.00  0.00     0.009 A 
HETATM   23  C   UNL     1      -9.646   0.541 -32.506  1.00  0.00     0.030 A 
ENDBRANCH  13  16
ENDBRANCH   1  12
BRANCH   2  24
HETATM   24  C   UNL     1      -6.204   4.650 -30.200  1.00  0.00    -0.032 A 
HETATM   25  C   UNL     1      -6.976   4.660 -29.026  1.00  0.00     0.012 A 
HETATM   26  C   UNL     1      -7.943   5.645 -28.813  1.00  0.00     0.037 A 
HETATM   27  C   UNL     1      -8.149   6.649 -29.757  1.00  0.00     0.068 A 
HETATM   28  C   UNL     1      -7.424   6.628 -30.946  1.00  0.00     0.037 A 
HETATM   29  C   UNL     1      -6.465   5.633 -31.169  1.00  0.00     0.012 A 
BRANCH  27  30
HETATM   30  O   UNL     1      -9.101   7.575 -29.429  1.00  0.00    -0.356 OA
HETATM   31  C   UNL     1      -9.236   7.837 -28.036  1.00  0.00     0.210 C 
ENDBRANCH  27  30
ENDBRANCH   2  24
TORSDOF 4
ENDMDL
