MODEL 1
REMARK VINA RESULT:      -9.0      0.000      0.000
REMARK  8 active torsions:
REMARK  status: ('A' for Active; 'I' for Inactive)
REMARK    1  A    between atoms: C_2  and  O_3 
REMARK    2  A    between atoms: O_3  and  C_4 
REMARK    3  A    between atoms: C_4  and  C_5 
REMARK    4  A    between atoms: C_6  and  O_7 
REMARK    5  A    between atoms: C_6  and  C_8 
REMARK    6  A    between atoms: C_16  and  C_17 
REMARK    7  A    between atoms: C_18  and  C_19 
REMARK    8  A    between atoms: N_26  and  C_27 
ROOT
HETATM    1  C   UNL     1      -8.865   3.075 -33.462  1.00  0.00     0.177 C 
HETATM    2  C   UNL     1      -9.507   2.646 -32.140  1.00  0.00     0.250 C 
HETATM    3  N   UNL     1     -10.635   1.756 -32.331  1.00  0.00    -0.303 N 
HETATM    4  C   UNL     1     -10.835   0.966 -33.407  1.00  0.00     0.319 C 
HETATM    5  O   UNL     1     -11.747   0.149 -33.428  1.00  0.00    -0.247 OA
HETATM    6  N   UNL     1     -10.008   1.133 -34.462  1.00  0.00    -0.333 N 
HETATM    7  C   UNL     1      -8.788   1.920 -34.462  1.00  0.00     0.142 C 
HETATM    8  H   UNL     1     -11.266   1.566 -31.561  1.00  0.00     0.167 HD
HETATM    9  H   UNL     1     -10.157   0.469 -35.213  1.00  0.00     0.165 HD
ENDROOT
BRANCH   7  10
HETATM   10  C   UNL     1      -7.621   0.984 -34.255  1.00  0.00     0.015 A 
HETATM   11  C   UNL     1      -6.283   1.257 -33.814  1.00  0.00     0.097 A 
HETATM   12  N   UNL     1      -5.557   0.127 -33.782  1.00  0.00    -0.167 NA
HETATM   13  N   UNL     1      -6.368  -0.861 -34.210  1.00  0.00    -0.244 N 
HETATM   14  C   UNL     1      -7.610  -0.376 -34.515  1.00  0.00     0.130 A 
BRANCH  11  15
HETATM   15  C   UNL     1      -5.626   2.523 -33.446  1.00  0.00    -0.005 A 
HETATM   16  C   UNL     1      -5.611   3.644 -34.283  1.00  0.00     0.014 A 
HETATM   17  C   UNL     1      -4.982   4.831 -33.885  1.00  0.00     0.001 A 
HETATM   18  C   UNL     1      -4.372   4.919 -32.637  1.00  0.00     0.000 A 
HETATM   19  C   UNL     1      -4.388   3.822 -31.783  1.00  0.00     0.001 A 
HETATM   20  C   UNL     1      -5.008   2.636 -32.186  1.00  0.00     0.014 A 
ENDBRANCH  11  15
BRANCH  13  21
HETATM   21  C   UNL     1      -5.904  -2.203 -34.317  1.00  0.00     0.058 A 
HETATM   22  C   UNL     1      -6.786  -3.206 -34.747  1.00  0.00     0.031 A 
HETATM   23  C   UNL     1      -6.348  -4.528 -34.857  1.00  0.00     0.002 A 
HETATM   24  C   UNL     1      -5.032  -4.858 -34.538  1.00  0.00     0.000 A 
HETATM   25  C   UNL     1      -4.151  -3.868 -34.106  1.00  0.00     0.002 A 
HETATM   26  C   UNL     1      -4.580  -2.542 -33.996  1.00  0.00     0.031 A 
ENDBRANCH  13  21
ENDBRANCH   7  10
BRANCH   1  27
HETATM   27  C   UNL     1      -9.563   4.234 -34.136  1.00  0.00     0.270 C 
HETATM   28  O   UNL     1      -8.962   5.223 -34.534  1.00  0.00    -0.265 OA
BRANCH  27  29
HETATM   29  O   UNL     1     -10.892   4.018 -34.296  1.00  0.00    -0.321 OA
BRANCH  29  30
HETATM   30  C   UNL     1     -11.455   4.339 -35.579  1.00  0.00     0.174 C 
HETATM   31  C   UNL     1     -12.383   3.235 -36.050  1.00  0.00     0.034 C 
ENDBRANCH  29  30
ENDBRANCH  27  29
ENDBRANCH   1  27
BRANCH   2  32
HETATM   32  O   UNL     1      -8.547   1.839 -31.428  1.00  0.00    -0.363 OA
HETATM   33  H   UNL     1      -7.687   1.972 -31.865  1.00  0.00     0.213 HD
ENDBRANCH   2  32
BRANCH   2  34
HETATM   34  C   UNL     1      -9.850   3.883 -31.239  1.00  0.00     0.439 C 
HETATM   35  F   UNL     1      -8.947   4.875 -31.385  1.00  0.00    -0.166 F 
HETATM   36  F   UNL     1     -11.072   4.396 -31.476  1.00  0.00    -0.166 F 
HETATM   37  F   UNL     1      -9.828   3.505 -29.933  1.00  0.00    -0.166 F 
ENDBRANCH   2  34
TORSDOF 8
ENDMDL
MODEL 2
REMARK VINA RESULT:      -8.8      2.421      4.707
REMARK  8 active torsions:
REMARK  status: ('A' for Active; 'I' for Inactive)
REMARK    1  A    between atoms: C_2  and  O_3 
REMARK    2  A    between atoms: O_3  and  C_4 
REMARK    3  A    between atoms: C_4  and  C_5 
REMARK    4  A    between atoms: C_6  and  O_7 
REMARK    5  A    between atoms: C_6  and  C_8 
REMARK    6  A    between atoms: C_16  and  C_17 
REMARK    7  A    between atoms: C_18  and  C_19 
REMARK    8  A    between atoms: N_26  and  C_27 
ROOT
HETATM    1  C   UNL     1      -6.751   3.302 -32.252  1.00  0.00     0.177 C 
HETATM    2  C   UNL     1      -5.556   3.765 -33.089  1.00  0.00     0.250 C 
HETATM    3  N   UNL     1      -4.284   3.466 -32.458  1.00  0.00    -0.303 N 
HETATM    4  C   UNL     1      -4.072   2.489 -31.553  1.00  0.00     0.319 C 
HETATM    5  O   UNL     1      -2.940   2.222 -31.168  1.00  0.00    -0.247 OA
HETATM    6  N   UNL     1      -5.155   1.840 -31.072  1.00  0.00    -0.333 N 
HETATM    7  C   UNL     1      -6.502   1.940 -31.603  1.00  0.00     0.142 C 
HETATM    8  H   UNL     1      -3.435   3.896 -32.804  1.00  0.00     0.167 HD
HETATM    9  H   UNL     1      -4.934   1.071 -30.450  1.00  0.00     0.165 HD
ENDROOT
BRANCH   7  10
HETATM   10  C   UNL     1      -6.742   0.756 -32.510  1.00  0.00     0.015 A 
HETATM   11  C   UNL     1      -7.856   0.455 -33.362  1.00  0.00     0.097 A 
HETATM   12  N   UNL     1      -7.666  -0.718 -33.991  1.00  0.00    -0.167 NA
HETATM   13  N   UNL     1      -6.482  -1.196 -33.558  1.00  0.00    -0.244 N 
HETATM   14  C   UNL     1      -5.909  -0.341 -32.658  1.00  0.00     0.130 A 
BRANCH  11  15
HETATM   15  C   UNL     1      -9.113   1.184 -33.605  1.00  0.00    -0.005 A 
HETATM   16  C   UNL     1      -9.156   2.451 -34.197  1.00  0.00     0.014 A 
HETATM   17  C   UNL     1     -10.377   3.100 -34.419  1.00  0.00     0.001 A 
HETATM   18  C   UNL     1     -11.575   2.485 -34.066  1.00  0.00     0.000 A 
HETATM   19  C   UNL     1     -11.556   1.219 -33.490  1.00  0.00     0.001 A 
HETATM   20  C   UNL     1     -10.336   0.578 -33.262  1.00  0.00     0.014 A 
ENDBRANCH  11  15
BRANCH  13  21
HETATM   21  C   UNL     1      -5.979  -2.446 -34.017  1.00  0.00     0.058 A 
HETATM   22  C   UNL     1      -6.844  -3.345 -34.660  1.00  0.00     0.031 A 
HETATM   23  C   UNL     1      -6.368  -4.576 -35.116  1.00  0.00     0.002 A 
HETATM   24  C   UNL     1      -5.030  -4.920 -34.932  1.00  0.00     0.000 A 
HETATM   25  C   UNL     1      -4.165  -4.035 -34.291  1.00  0.00     0.002 A 
HETATM   26  C   UNL     1      -4.633  -2.799 -33.835  1.00  0.00     0.031 A 
ENDBRANCH  13  21
ENDBRANCH   7  10
BRANCH   1  27
HETATM   27  C   UNL     1      -7.152   4.274 -31.166  1.00  0.00     0.270 C 
HETATM   28  O   UNL     1      -6.413   4.562 -30.234  1.00  0.00    -0.265 OA
BRANCH  27  29
HETATM   29  O   UNL     1      -8.375   4.818 -31.383  1.00  0.00    -0.321 OA
BRANCH  29  30
HETATM   30  C   UNL     1      -9.363   4.633 -30.356  1.00  0.00     0.174 C 
HETATM   31  C   UNL     1     -10.060   3.295 -30.516  1.00  0.00     0.034 C 
ENDBRANCH  29  30
ENDBRANCH  27  29
ENDBRANCH   1  27
BRANCH   2  32
HETATM   32  O   UNL     1      -5.535   2.977 -34.297  1.00  0.00    -0.363 OA
HETATM   33  H   UNL     1      -6.239   3.324 -34.873  1.00  0.00     0.213 HD
ENDBRANCH   2  32
BRANCH   2  34
HETATM   34  C   UNL     1      -5.692   5.270 -33.505  1.00  0.00     0.439 C 
HETATM   35  F   UNL     1      -6.940   5.561 -33.930  1.00  0.00    -0.166 F 
HETATM   36  F   UNL     1      -5.379   6.130 -32.517  1.00  0.00    -0.166 F 
HETATM   37  F   UNL     1      -4.844   5.529 -34.536  1.00  0.00    -0.166 F 
ENDBRANCH   2  34
TORSDOF 8
ENDMDL
MODEL 3
REMARK VINA RESULT:      -8.7      2.595      5.905
REMARK  8 active torsions:
REMARK  status: ('A' for Active; 'I' for Inactive)
REMARK    1  A    between atoms: C_2  and  O_3 
REMARK    2  A    between atoms: O_3  and  C_4 
REMARK    3  A    between atoms: C_4  and  C_5 
REMARK    4  A    between atoms: C_6  and  O_7 
REMARK    5  A    between atoms: C_6  and  C_8 
REMARK    6  A    between atoms: C_16  and  C_17 
REMARK    7  A    between atoms: C_18  and  C_19 
REMARK    8  A    between atoms: N_26  and  C_27 
ROOT
HETATM    1  C   UNL     1      -9.068   3.623 -33.386  1.00  0.00     0.177 C 
HETATM    2  C   UNL     1      -9.166   5.082 -33.840  1.00  0.00     0.250 C 
HETATM    3  N   UNL     1      -9.369   5.997 -32.732  1.00  0.00    -0.303 N 
HETATM    4  C   UNL     1      -9.018   5.763 -31.451  1.00  0.00     0.319 C 
HETATM    5  O   UNL     1      -9.108   6.643 -30.603  1.00  0.00    -0.247 OA
HETATM    6  N   UNL     1      -8.592   4.520 -31.140  1.00  0.00    -0.333 N 
HETATM    7  C   UNL     1      -8.261   3.478 -32.095  1.00  0.00     0.142 C 
HETATM    8  H   UNL     1      -9.652   6.953 -32.912  1.00  0.00     0.167 HD
HETATM    9  H   UNL     1      -8.275   4.419 -30.182  1.00  0.00     0.165 HD
ENDROOT
BRANCH   7  10
HETATM   10  C   UNL     1      -6.763   3.468 -32.285  1.00  0.00     0.015 A 
HETATM   11  C   UNL     1      -5.915   2.485 -32.896  1.00  0.00     0.097 A 
HETATM   12  N   UNL     1      -4.629   2.872 -32.841  1.00  0.00    -0.167 NA
HETATM   13  N   UNL     1      -4.612   4.056 -32.197  1.00  0.00    -0.244 N 
HETATM   14  C   UNL     1      -5.877   4.434 -31.838  1.00  0.00     0.130 A 
BRANCH  11  15
HETATM   15  C   UNL     1      -6.228   1.181 -33.506  1.00  0.00    -0.005 A 
HETATM   16  C   UNL     1      -5.933  -0.039 -32.887  1.00  0.00     0.014 A 
HETATM   17  C   UNL     1      -6.261  -1.255 -33.500  1.00  0.00     0.001 A 
HETATM   18  C   UNL     1      -6.904  -1.268 -34.735  1.00  0.00     0.000 A 
HETATM   19  C   UNL     1      -7.221  -0.067 -35.360  1.00  0.00     0.001 A 
HETATM   20  C   UNL     1      -6.885   1.144 -34.750  1.00  0.00     0.014 A 
ENDBRANCH  11  15
BRANCH  13  21
HETATM   21  C   UNL     1      -3.391   4.744 -31.949  1.00  0.00     0.058 A 
HETATM   22  C   UNL     1      -2.253   4.425 -32.704  1.00  0.00     0.031 A 
HETATM   23  C   UNL     1      -1.046   5.090 -32.474  1.00  0.00     0.002 A 
HETATM   24  C   UNL     1      -0.966   6.073 -31.489  1.00  0.00     0.000 A 
HETATM   25  C   UNL     1      -2.092   6.392 -30.731  1.00  0.00     0.002 A 
HETATM   26  C   UNL     1      -3.304   5.734 -30.958  1.00  0.00     0.031 A 
ENDBRANCH  13  21
ENDBRANCH   7  10
BRANCH   1  27
HETATM   27  C   UNL     1     -10.407   2.952 -33.181  1.00  0.00     0.270 C 
HETATM   28  O   UNL     1     -11.241   3.374 -32.390  1.00  0.00    -0.265 OA
BRANCH  27  29
HETATM   29  O   UNL     1     -10.588   1.892 -34.007  1.00  0.00    -0.321 OA
BRANCH  29  30
HETATM   30  C   UNL     1     -10.994   0.654 -33.399  1.00  0.00     0.174 C 
HETATM   31  C   UNL     1      -9.826  -0.002 -32.686  1.00  0.00     0.034 C 
ENDBRANCH  29  30
ENDBRANCH  27  29
ENDBRANCH   1  27
BRANCH   2  32
HETATM   32  O   UNL     1      -7.881   5.463 -34.371  1.00  0.00    -0.363 OA
HETATM   33  H   UNL     1      -7.215   4.912 -33.923  1.00  0.00     0.213 HD
ENDBRANCH   2  32
BRANCH   2  34
HETATM   34  C   UNL     1     -10.226   5.260 -34.981  1.00  0.00     0.439 C 
HETATM   35  F   UNL     1     -10.272   4.183 -35.794  1.00  0.00    -0.166 F 
HETATM   36  F   UNL     1     -11.472   5.489 -34.525  1.00  0.00    -0.166 F 
HETATM   37  F   UNL     1      -9.884   6.330 -35.747  1.00  0.00    -0.166 F 
ENDBRANCH   2  34
TORSDOF 8
ENDMDL
MODEL 4
REMARK VINA RESULT:      -8.7      2.605      6.089
REMARK  8 active torsions:
REMARK  status: ('A' for Active; 'I' for Inactive)
REMARK    1  A    between atoms: C_2  and  O_3 
REMARK    2  A    between atoms: O_3  and  C_4 
REMARK    3  A    between atoms: C_4  and  C_5 
REMARK    4  A    between atoms: C_6  and  O_7 
REMARK    5  A    between atoms: C_6  and  C_8 
REMARK    6  A    between atoms: C_16  and  C_17 
REMARK    7  A    between atoms: C_18  and  C_19 
REMARK    8  A    between atoms: N_26  and  C_27 
ROOT
HETATM    1  C   UNL     1      -5.799   2.939 -32.453  1.00  0.00     0.177 C 
HETATM    2  C   UNL     1      -6.442   3.727 -31.308  1.00  0.00     0.250 C 
HETATM    3  N   UNL     1      -6.994   4.995 -31.747  1.00  0.00    -0.303 N 
HETATM    4  C   UNL     1      -7.391   5.282 -33.003  1.00  0.00     0.319 C 
HETATM    5  O   UNL     1      -7.965   6.334 -33.257  1.00  0.00    -0.247 OA
HETATM    6  N   UNL     1      -7.106   4.380 -33.967  1.00  0.00    -0.333 N 
HETATM    7  C   UNL     1      -6.617   3.031 -33.742  1.00  0.00     0.142 C 
HETATM    8  H   UNL     1      -7.259   5.693 -31.063  1.00  0.00     0.167 HD
HETATM    9  H   UNL     1      -7.488   4.612 -34.877  1.00  0.00     0.165 HD
ENDROOT
BRANCH   7  10
HETATM   10  C   UNL     1      -7.790   2.084 -33.814  1.00  0.00     0.015 A 
HETATM   11  C   UNL     1      -7.820   0.649 -33.835  1.00  0.00     0.097 A 
HETATM   12  N   UNL     1      -9.087   0.205 -33.918  1.00  0.00    -0.167 NA
HETATM   13  N   UNL     1      -9.873   1.298 -33.976  1.00  0.00    -0.244 N 
HETATM   14  C   UNL     1      -9.123   2.442 -33.929  1.00  0.00     0.130 A 
BRANCH  11  15
HETATM   15  C   UNL     1      -6.731  -0.342 -33.814  1.00  0.00    -0.005 A 
HETATM   16  C   UNL     1      -5.740  -0.362 -32.826  1.00  0.00     0.014 A 
HETATM   17  C   UNL     1      -4.729  -1.332 -32.840  1.00  0.00     0.001 A 
HETATM   18  C   UNL     1      -4.704  -2.306 -33.835  1.00  0.00     0.000 A 
HETATM   19  C   UNL     1      -5.688  -2.313 -34.818  1.00  0.00     0.001 A 
HETATM   20  C   UNL     1      -6.689  -1.339 -34.806  1.00  0.00     0.014 A 
ENDBRANCH  11  15
BRANCH  13  21
HETATM   21  C   UNL     1     -11.287   1.186 -34.088  1.00  0.00     0.058 A 
HETATM   22  C   UNL     1     -11.940   0.086 -33.510  1.00  0.00     0.031 A 
HETATM   23  C   UNL     1     -13.328  -0.041 -33.611  1.00  0.00     0.002 A 
HETATM   24  C   UNL     1     -14.071   0.922 -34.291  1.00  0.00     0.000 A 
HETATM   25  C   UNL     1     -13.429   2.015 -34.871  1.00  0.00     0.002 A 
HETATM   26  C   UNL     1     -12.042   2.152 -34.771  1.00  0.00     0.031 A 
ENDBRANCH  13  21
ENDBRANCH   7  10
BRANCH   1  27
HETATM   27  C   UNL     1      -4.381   3.357 -32.765  1.00  0.00     0.270 C 
HETATM   28  O   UNL     1      -3.414   2.648 -32.513  1.00  0.00    -0.265 OA
BRANCH  27  29
HETATM   29  O   UNL     1      -4.320   4.554 -33.399  1.00  0.00    -0.321 OA
BRANCH  29  30
HETATM   30  C   UNL     1      -3.047   5.222 -33.410  1.00  0.00     0.174 C 
HETATM   31  C   UNL     1      -2.459   5.234 -34.809  1.00  0.00     0.034 C 
ENDBRANCH  29  30
ENDBRANCH  27  29
ENDBRANCH   1  27
BRANCH   2  32
HETATM   32  O   UNL     1      -7.595   2.986 -30.859  1.00  0.00    -0.363 OA
HETATM   33  H   UNL     1      -8.241   3.638 -30.534  1.00  0.00     0.213 HD
ENDBRANCH   2  32
BRANCH   2  34
HETATM   34  C   UNL     1      -5.466   3.873 -30.090  1.00  0.00     0.439 C 
HETATM   35  F   UNL     1      -4.901   2.693 -29.757  1.00  0.00    -0.166 F 
HETATM   36  F   UNL     1      -4.477   4.763 -30.300  1.00  0.00    -0.166 F 
HETATM   37  F   UNL     1      -6.163   4.308 -29.007  1.00  0.00    -0.166 F 
ENDBRANCH   2  34
TORSDOF 8
ENDMDL
MODEL 5
REMARK VINA RESULT:      -8.4      2.363      4.601
REMARK  8 active torsions:
REMARK  status: ('A' for Active; 'I' for Inactive)
REMARK    1  A    between atoms: C_2  and  O_3 
REMARK    2  A    between atoms: O_3  and  C_4 
REMARK    3  A    between atoms: C_4  and  C_5 
REMARK    4  A    between atoms: C_6  and  O_7 
REMARK    5  A    between atoms: C_6  and  C_8 
REMARK    6  A    between atoms: C_16  and  C_17 
REMARK    7  A    between atoms: C_18  and  C_19 
REMARK    8  A    between atoms: N_26  and  C_27 
ROOT
HETATM    1  C   UNL     1      -8.865   3.674 -31.870  1.00  0.00     0.177 C 
HETATM    2  C   UNL     1      -7.544   4.368 -32.212  1.00  0.00     0.250 C 
HETATM    3  N   UNL     1      -6.531   4.169 -31.193  1.00  0.00    -0.303 N 
HETATM    4  C   UNL     1      -6.489   3.140 -30.323  1.00  0.00     0.319 C 
HETATM    5  O   UNL     1      -5.527   2.981 -29.581  1.00  0.00    -0.247 OA
HETATM    6  N   UNL     1      -7.556   2.313 -30.285  1.00  0.00    -0.333 N 
HETATM    7  C   UNL     1      -8.643   2.295 -31.248  1.00  0.00     0.142 C 
HETATM    8  H   UNL     1      -5.692   4.737 -31.197  1.00  0.00     0.167 HD
HETATM    9  H   UNL     1      -7.443   1.519 -29.666  1.00  0.00     0.165 HD
ENDROOT
BRANCH   7  10
HETATM   10  C   UNL     1      -8.376   1.190 -32.241  1.00  0.00     0.015 A 
HETATM   11  C   UNL     1      -9.188   0.698 -33.318  1.00  0.00     0.097 A 
HETATM   12  N   UNL     1      -8.570  -0.313 -33.952  1.00  0.00    -0.167 NA
HETATM   13  N   UNL     1      -7.401  -0.509 -33.310  1.00  0.00    -0.244 N 
HETATM   14  C   UNL     1      -7.261   0.369 -32.270  1.00  0.00     0.130 A 
BRANCH  11  15
HETATM   15  C   UNL     1     -10.530   1.096 -33.777  1.00  0.00    -0.005 A 
HETATM   16  C   UNL     1     -10.759   2.220 -34.579  1.00  0.00     0.014 A 
HETATM   17  C   UNL     1     -12.052   2.552 -35.001  1.00  0.00     0.001 A 
HETATM   18  C   UNL     1     -13.136   1.755 -34.640  1.00  0.00     0.000 A 
HETATM   19  C   UNL     1     -12.929   0.625 -33.856  1.00  0.00     0.001 A 
HETATM   20  C   UNL     1     -11.639   0.301 -33.429  1.00  0.00     0.014 A 
ENDBRANCH  11  15
BRANCH  13  21
HETATM   21  C   UNL     1      -6.497  -1.531 -33.717  1.00  0.00     0.058 A 
HETATM   22  C   UNL     1      -5.147  -1.449 -33.341  1.00  0.00     0.031 A 
HETATM   23  C   UNL     1      -4.246  -2.442 -33.732  1.00  0.00     0.002 A 
HETATM   24  C   UNL     1      -4.683  -3.519 -34.501  1.00  0.00     0.000 A 
HETATM   25  C   UNL     1      -6.021  -3.605 -34.882  1.00  0.00     0.002 A 
HETATM   26  C   UNL     1      -6.930  -2.618 -34.492  1.00  0.00     0.031 A 
ENDBRANCH  13  21
ENDBRANCH   7  10
BRANCH   1  27
HETATM   27  C   UNL     1      -9.755   4.470 -30.944  1.00  0.00     0.270 C 
HETATM   28  O   UNL     1      -9.382   4.858 -29.844  1.00  0.00    -0.265 OA
BRANCH  27  29
HETATM   29  O   UNL     1     -10.962   4.748 -31.495  1.00  0.00    -0.321 OA
BRANCH  29  30
HETATM   30  C   UNL     1     -12.126   4.359 -30.747  1.00  0.00     0.174 C 
HETATM   31  C   UNL     1     -13.225   3.876 -31.675  1.00  0.00     0.034 C 
ENDBRANCH  29  30
ENDBRANCH  27  29
ENDBRANCH   1  27
BRANCH   2  32
HETATM   32  O   UNL     1      -6.995   3.717 -33.376  1.00  0.00    -0.363 OA
HETATM   33  H   UNL     1      -7.747   3.366 -33.884  1.00  0.00     0.213 HD
ENDBRANCH   2  32
BRANCH   2  34
HETATM   34  C   UNL     1      -7.762   5.879 -32.570  1.00  0.00     0.439 C 
HETATM   35  F   UNL     1      -8.832   6.052 -33.375  1.00  0.00    -0.166 F 
HETATM   36  F   UNL     1      -7.924   6.668 -31.490  1.00  0.00    -0.166 F 
HETATM   37  F   UNL     1      -6.673   6.343 -33.238  1.00  0.00    -0.166 F 
ENDBRANCH   2  34
TORSDOF 8
ENDMDL
MODEL 6
REMARK VINA RESULT:      -8.3      2.665      6.308
REMARK  8 active torsions:
REMARK  status: ('A' for Active; 'I' for Inactive)
REMARK    1  A    between atoms: C_2  and  O_3 
REMARK    2  A    between atoms: O_3  and  C_4 
REMARK    3  A    between atoms: C_4  and  C_5 
REMARK    4  A    between atoms: C_6  and  O_7 
REMARK    5  A    between atoms: C_6  and  C_8 
REMARK    6  A    between atoms: C_16  and  C_17 
REMARK    7  A    between atoms: C_18  and  C_19 
REMARK    8  A    between atoms: N_26  and  C_27 
ROOT
HETATM    1  C   UNL     1      -6.666   3.621 -32.544  1.00  0.00     0.177 C 
HETATM    2  C   UNL     1      -7.162   4.398 -31.321  1.00  0.00     0.250 C 
HETATM    3  N   UNL     1      -7.816   5.642 -31.680  1.00  0.00    -0.303 N 
HETATM    4  C   UNL     1      -8.402   5.904 -32.866  1.00  0.00     0.319 C 
HETATM    5  O   UNL     1      -9.043   6.933 -33.038  1.00  0.00    -0.247 OA
HETATM    6  N   UNL     1      -8.230   5.003 -33.857  1.00  0.00    -0.333 N 
HETATM    7  C   UNL     1      -7.666   3.674 -33.700  1.00  0.00     0.142 C 
HETATM    8  H   UNL     1      -8.003   6.338 -30.967  1.00  0.00     0.167 HD
HETATM    9  H   UNL     1      -8.748   5.213 -34.702  1.00  0.00     0.165 HD
ENDROOT
BRANCH   7  10
HETATM   10  C   UNL     1      -8.804   2.687 -33.596  1.00  0.00     0.015 A 
HETATM   11  C   UNL     1      -8.782   1.253 -33.538  1.00  0.00     0.097 A 
HETATM   12  N   UNL     1     -10.032   0.764 -33.461  1.00  0.00    -0.167 NA
HETATM   13  N   UNL     1     -10.860   1.827 -33.491  1.00  0.00    -0.244 N 
HETATM   14  C   UNL     1     -10.154   2.995 -33.585  1.00  0.00     0.130 A 
BRANCH  11  15
HETATM   15  C   UNL     1      -7.659   0.300 -33.583  1.00  0.00    -0.005 A 
HETATM   16  C   UNL     1      -6.823   0.057 -32.487  1.00  0.00     0.014 A 
HETATM   17  C   UNL     1      -5.775  -0.868 -32.573  1.00  0.00     0.001 A 
HETATM   18  C   UNL     1      -5.556  -1.575 -33.752  1.00  0.00     0.000 A 
HETATM   19  C   UNL     1      -6.384  -1.359 -34.849  1.00  0.00     0.001 A 
HETATM   20  C   UNL     1      -7.424  -0.430 -34.763  1.00  0.00     0.014 A 
ENDBRANCH  11  15
BRANCH  13  21
HETATM   21  C   UNL     1     -12.274   1.663 -33.444  1.00  0.00     0.058 A 
HETATM   22  C   UNL     1     -13.073   2.697 -32.934  1.00  0.00     0.031 A 
HETATM   23  C   UNL     1     -14.461   2.554 -32.880  1.00  0.00     0.002 A 
HETATM   24  C   UNL     1     -15.060   1.379 -33.331  1.00  0.00     0.000 A 
HETATM   25  C   UNL     1     -14.273   0.345 -33.835  1.00  0.00     0.002 A 
HETATM   26  C   UNL     1     -12.884   0.482 -33.896  1.00  0.00     0.031 A 
ENDBRANCH  13  21
ENDBRANCH   7  10
BRANCH   1  27
HETATM   27  C   UNL     1      -5.324   4.084 -33.062  1.00  0.00     0.270 C 
HETATM   28  O   UNL     1      -5.166   5.170 -33.605  1.00  0.00    -0.265 OA
BRANCH  27  29
HETATM   29  O   UNL     1      -4.332   3.197 -32.800  1.00  0.00    -0.321 OA
BRANCH  29  30
HETATM   30  C   UNL     1      -2.982   3.664 -32.952  1.00  0.00     0.174 C 
HETATM   31  C   UNL     1      -2.405   4.086 -31.614  1.00  0.00     0.034 C 
ENDBRANCH  29  30
ENDBRANCH  27  29
ENDBRANCH   1  27
BRANCH   2  32
HETATM   32  O   UNL     1      -8.211   3.623 -30.705  1.00  0.00    -0.363 OA
HETATM   33  H   UNL     1      -8.225   3.866 -29.762  1.00  0.00     0.213 HD
ENDBRANCH   2  32
BRANCH   2  34
HETATM   34  C   UNL     1      -6.024   4.589 -30.260  1.00  0.00     0.439 C 
HETATM   35  F   UNL     1      -5.325   3.450 -30.065  1.00  0.00    -0.166 F 
HETATM   36  F   UNL     1      -5.151   5.562 -30.579  1.00  0.00    -0.166 F 
HETATM   37  F   UNL     1      -6.578   4.932 -29.066  1.00  0.00    -0.166 F 
ENDBRANCH   2  34
TORSDOF 8
ENDMDL
MODEL 7
REMARK VINA RESULT:      -8.2      3.371      4.794
REMARK  8 active torsions:
REMARK  status: ('A' for Active; 'I' for Inactive)
REMARK    1  A    between atoms: C_2  and  O_3 
REMARK    2  A    between atoms: O_3  and  C_4 
REMARK    3  A    between atoms: C_4  and  C_5 
REMARK    4  A    between atoms: C_6  and  O_7 
REMARK    5  A    between atoms: C_6  and  C_8 
REMARK    6  A    between atoms: C_16  and  C_17 
REMARK    7  A    between atoms: C_18  and  C_19 
REMARK    8  A    between atoms: N_26  and  C_27 
ROOT
HETATM    1  C   UNL     1      -5.630   5.016 -31.111  1.00  0.00     0.177 C 
HETATM    2  C   UNL     1      -6.019   4.564 -29.700  1.00  0.00     0.250 C 
HETATM    3  N   UNL     1      -7.309   3.903 -29.664  1.00  0.00    -0.303 N 
HETATM    4  C   UNL     1      -7.897   3.278 -30.704  1.00  0.00     0.319 C 
HETATM    5  O   UNL     1      -8.928   2.634 -30.551  1.00  0.00    -0.247 OA
HETATM    6  N   UNL     1      -7.320   3.413 -31.917  1.00  0.00    -0.333 N 
HETATM    7  C   UNL     1      -6.006   3.978 -32.169  1.00  0.00     0.142 C 
HETATM    8  H   UNL     1      -7.769   3.742 -28.775  1.00  0.00     0.167 HD
HETATM    9  H   UNL     1      -7.761   2.867 -32.649  1.00  0.00     0.165 HD
ENDROOT
BRANCH   7  10
HETATM   10  C   UNL     1      -5.023   2.842 -32.315  1.00  0.00     0.015 A 
HETATM   11  C   UNL     1      -3.591   2.864 -32.413  1.00  0.00     0.097 A 
HETATM   12  N   UNL     1      -3.108   1.617 -32.545  1.00  0.00    -0.167 NA
HETATM   13  N   UNL     1      -4.174   0.793 -32.559  1.00  0.00    -0.244 N 
HETATM   14  C   UNL     1      -5.339   1.499 -32.437  1.00  0.00     0.130 A 
BRANCH  11  15
HETATM   15  C   UNL     1      -2.640   3.989 -32.424  1.00  0.00    -0.005 A 
HETATM   16  C   UNL     1      -2.057   4.504 -31.261  1.00  0.00     0.014 A 
HETATM   17  C   UNL     1      -1.147   5.567 -31.322  1.00  0.00     0.001 A 
HETATM   18  C   UNL     1      -0.796   6.123 -32.550  1.00  0.00     0.000 A 
HETATM   19  C   UNL     1      -1.353   5.616 -33.720  1.00  0.00     0.001 A 
HETATM   20  C   UNL     1      -2.266   4.561 -33.655  1.00  0.00     0.014 A 
ENDBRANCH  11  15
BRANCH  13  21
HETATM   21  C   UNL     1      -4.017  -0.615 -32.706  1.00  0.00     0.058 A 
HETATM   22  C   UNL     1      -3.235  -1.322 -31.780  1.00  0.00     0.031 A 
HETATM   23  C   UNL     1      -3.070  -2.703 -31.908  1.00  0.00     0.002 A 
HETATM   24  C   UNL     1      -3.679  -3.386 -32.960  1.00  0.00     0.000 A 
HETATM   25  C   UNL     1      -4.454  -2.690 -33.886  1.00  0.00     0.002 A 
HETATM   26  C   UNL     1      -4.627  -1.308 -33.763  1.00  0.00     0.031 A 
ENDBRANCH  13  21
ENDBRANCH   7  10
BRANCH   1  27
HETATM   27  C   UNL     1      -6.232   6.342 -31.518  1.00  0.00     0.270 C 
HETATM   28  O   UNL     1      -7.440   6.514 -31.620  1.00  0.00    -0.265 OA
BRANCH  27  29
HETATM   29  O   UNL     1      -5.294   7.306 -31.690  1.00  0.00    -0.321 OA
BRANCH  29  30
HETATM   30  C   UNL     1      -5.599   8.611 -31.171  1.00  0.00     0.174 C 
HETATM   31  C   UNL     1      -4.354   9.268 -30.605  1.00  0.00     0.034 C 
ENDBRANCH  29  30
ENDBRANCH  27  29
ENDBRANCH   1  27
BRANCH   2  32
HETATM   32  O   UNL     1      -5.092   3.535 -29.299  1.00  0.00    -0.363 OA
HETATM   33  H   UNL     1      -5.440   2.693 -29.642  1.00  0.00     0.213 HD
ENDBRANCH   2  32
BRANCH   2  34
HETATM   34  C   UNL     1      -5.904   5.738 -28.667  1.00  0.00     0.439 C 
HETATM   35  F   UNL     1      -4.747   6.421 -28.812  1.00  0.00    -0.166 F 
HETATM   36  F   UNL     1      -6.918   6.621 -28.743  1.00  0.00    -0.166 F 
HETATM   37  F   UNL     1      -5.918   5.229 -27.407  1.00  0.00    -0.166 F 
ENDBRANCH   2  34
TORSDOF 8
ENDMDL
MODEL 8
REMARK VINA RESULT:      -8.2      2.916      5.314
REMARK  8 active torsions:
REMARK  status: ('A' for Active; 'I' for Inactive)
REMARK    1  A    between atoms: C_2  and  O_3 
REMARK    2  A    between atoms: O_3  and  C_4 
REMARK    3  A    between atoms: C_4  and  C_5 
REMARK    4  A    between atoms: C_6  and  O_7 
REMARK    5  A    between atoms: C_6  and  C_8 
REMARK    6  A    between atoms: C_16  and  C_17 
REMARK    7  A    between atoms: C_18  and  C_19 
REMARK    8  A    between atoms: N_26  and  C_27 
ROOT
HETATM    1  C   UNL     1      -5.193   3.201 -33.325  1.00  0.00     0.177 C 
HETATM    2  C   UNL     1      -4.606   2.814 -31.965  1.00  0.00     0.250 C 
HETATM    3  N   UNL     1      -5.501   3.118 -30.865  1.00  0.00    -0.303 N 
HETATM    4  C   UNL     1      -6.842   3.233 -30.957  1.00  0.00     0.319 C 
HETATM    5  O   UNL     1      -7.533   3.364 -29.954  1.00  0.00    -0.247 OA
HETATM    6  N   UNL     1      -7.383   3.223 -32.194  1.00  0.00    -0.333 N 
HETATM    7  C   UNL     1      -6.684   2.875 -33.419  1.00  0.00     0.142 C 
HETATM    8  H   UNL     1      -5.155   3.102 -29.913  1.00  0.00     0.167 HD
HETATM    9  H   UNL     1      -8.397   3.241 -32.203  1.00  0.00     0.165 HD
ENDROOT
BRANCH   7  10
HETATM   10  C   UNL     1      -6.996   1.436 -33.748  1.00  0.00     0.015 A 
HETATM   11  C   UNL     1      -8.256   0.799 -34.010  1.00  0.00     0.097 A 
HETATM   12  N   UNL     1      -8.081  -0.512 -34.250  1.00  0.00    -0.167 NA
HETATM   13  N   UNL     1      -6.760  -0.750 -34.130  1.00  0.00    -0.244 N 
HETATM   14  C   UNL     1      -6.083   0.396 -33.816  1.00  0.00     0.130 A 
BRANCH  11  15
HETATM   15  C   UNL     1      -9.628   1.336 -34.018  1.00  0.00    -0.005 A 
HETATM   16  C   UNL     1      -9.952   2.586 -34.557  1.00  0.00     0.014 A 
HETATM   17  C   UNL     1     -11.274   3.050 -34.553  1.00  0.00     0.001 A 
HETATM   18  C   UNL     1     -12.294   2.264 -34.024  1.00  0.00     0.000 A 
HETATM   19  C   UNL     1     -11.996   1.012 -33.497  1.00  0.00     0.001 A 
HETATM   20  C   UNL     1     -10.675   0.555 -33.494  1.00  0.00     0.014 A 
ENDBRANCH  11  15
BRANCH  13  21
HETATM   21  C   UNL     1      -6.227  -2.059 -34.305  1.00  0.00     0.058 A 
HETATM   22  C   UNL     1      -4.855  -2.277 -34.108  1.00  0.00     0.031 A 
HETATM   23  C   UNL     1      -4.315  -3.554 -34.276  1.00  0.00     0.002 A 
HETATM   24  C   UNL     1      -5.136  -4.618 -34.644  1.00  0.00     0.000 A 
HETATM   25  C   UNL     1      -6.499  -4.408 -34.846  1.00  0.00     0.002 A 
HETATM   26  C   UNL     1      -7.048  -3.134 -34.676  1.00  0.00     0.031 A 
ENDBRANCH  13  21
ENDBRANCH   7  10
BRANCH   1  27
HETATM   27  C   UNL     1      -5.006   4.658 -33.682  1.00  0.00     0.270 C 
HETATM   28  O   UNL     1      -5.495   5.566 -33.021  1.00  0.00    -0.265 OA
BRANCH  27  29
HETATM   29  O   UNL     1      -4.199   4.829 -34.757  1.00  0.00    -0.321 OA
BRANCH  29  30
HETATM   30  C   UNL     1      -3.173   5.830 -34.649  1.00  0.00     0.174 C 
HETATM   31  C   UNL     1      -1.816   5.248 -34.996  1.00  0.00     0.034 C 
ENDBRANCH  29  30
ENDBRANCH  27  29
ENDBRANCH   1  27
BRANCH   2  32
HETATM   32  O   UNL     1      -4.493   1.376 -31.929  1.00  0.00    -0.363 OA
HETATM   33  H   UNL     1      -3.691   1.144 -32.430  1.00  0.00     0.213 HD
ENDBRANCH   2  32
BRANCH   2  34
HETATM   34  C   UNL     1      -3.169   3.410 -31.766  1.00  0.00     0.439 C 
HETATM   35  F   UNL     1      -2.502   2.786 -30.772  1.00  0.00    -0.166 F 
HETATM   36  F   UNL     1      -2.408   3.355 -32.876  1.00  0.00    -0.166 F 
HETATM   37  F   UNL     1      -3.272   4.721 -31.423  1.00  0.00    -0.166 F 
ENDBRANCH   2  34
TORSDOF 8
ENDMDL
MODEL 9
REMARK VINA RESULT:      -8.2      3.038      6.558
REMARK  8 active torsions:
REMARK  status: ('A' for Active; 'I' for Inactive)
REMARK    1  A    between atoms: C_2  and  O_3 
REMARK    2  A    between atoms: O_3  and  C_4 
REMARK    3  A    between atoms: C_4  and  C_5 
REMARK    4  A    between atoms: C_6  and  O_7 
REMARK    5  A    between atoms: C_6  and  C_8 
REMARK    6  A    between atoms: C_16  and  C_17 
REMARK    7  A    between atoms: C_18  and  C_19 
REMARK    8  A    between atoms: N_26  and  C_27 
ROOT
HETATM    1  C   UNL     1      -7.139   2.849 -32.194  1.00  0.00     0.177 C 
HETATM    2  C   UNL     1      -7.184   2.481 -30.709  1.00  0.00     0.250 C 
HETATM    3  N   UNL     1      -7.741   3.540 -29.889  1.00  0.00    -0.303 N 
HETATM    4  C   UNL     1      -8.584   4.500 -30.320  1.00  0.00     0.319 C 
HETATM    5  O   UNL     1      -9.109   5.278 -29.532  1.00  0.00    -0.247 OA
HETATM    6  N   UNL     1      -8.803   4.584 -31.650  1.00  0.00    -0.333 N 
HETATM    7  C   UNL     1      -8.396   3.599 -32.636  1.00  0.00     0.142 C 
HETATM    8  H   UNL     1      -7.638   3.506 -28.882  1.00  0.00     0.167 HD
HETATM    9  H   UNL     1      -9.497   5.275 -31.912  1.00  0.00     0.165 HD
ENDROOT
BRANCH   7  10
HETATM   10  C   UNL     1      -9.583   2.717 -32.941  1.00  0.00     0.015 A 
HETATM   11  C   UNL     1      -9.633   1.387 -33.479  1.00  0.00     0.097 A 
HETATM   12  N   UNL     1     -10.906   0.975 -33.602  1.00  0.00    -0.167 NA
HETATM   13  N   UNL     1     -11.681   1.997 -33.186  1.00  0.00    -0.244 N 
HETATM   14  C   UNL     1     -10.916   3.062 -32.796  1.00  0.00     0.130 A 
BRANCH  11  15
HETATM   15  C   UNL     1      -8.558   0.481 -33.919  1.00  0.00    -0.005 A 
HETATM   16  C   UNL     1      -8.234  -0.701 -33.243  1.00  0.00     0.014 A 
HETATM   17  C   UNL     1      -7.212  -1.538 -33.707  1.00  0.00     0.001 A 
HETATM   18  C   UNL     1      -6.507  -1.213 -34.863  1.00  0.00     0.000 A 
HETATM   19  C   UNL     1      -6.822  -0.051 -35.559  1.00  0.00     0.001 A 
HETATM   20  C   UNL     1      -7.838   0.787 -35.089  1.00  0.00     0.014 A 
ENDBRANCH  11  15
BRANCH  13  21
HETATM   21  C   UNL     1     -13.101   1.901 -33.203  1.00  0.00     0.058 A 
HETATM   22  C   UNL     1     -13.723   1.015 -34.096  1.00  0.00     0.031 A 
HETATM   23  C   UNL     1     -15.115   0.908 -34.126  1.00  0.00     0.002 A 
HETATM   24  C   UNL     1     -15.895   1.685 -33.271  1.00  0.00     0.000 A 
HETATM   25  C   UNL     1     -15.285   2.571 -32.385  1.00  0.00     0.002 A 
HETATM   26  C   UNL     1     -13.893   2.681 -32.346  1.00  0.00     0.031 A 
ENDBRANCH  13  21
ENDBRANCH   7  10
BRANCH   1  27
HETATM   27  C   UNL     1      -5.936   3.676 -32.586  1.00  0.00     0.270 C 
HETATM   28  O   UNL     1      -5.076   3.266 -33.355  1.00  0.00    -0.265 OA
BRANCH  27  29
HETATM   29  O   UNL     1      -5.961   4.919 -32.043  1.00  0.00    -0.321 OA
BRANCH  29  30
HETATM   30  C   UNL     1      -4.844   5.777 -32.326  1.00  0.00     0.174 C 
HETATM   31  C   UNL     1      -3.865   5.783 -31.167  1.00  0.00     0.034 C 
ENDBRANCH  29  30
ENDBRANCH  27  29
ENDBRANCH   1  27
BRANCH   2  32
HETATM   32  O   UNL     1      -8.120   1.395 -30.554  1.00  0.00    -0.363 OA
HETATM   33  H   UNL     1      -8.861   1.573 -31.161  1.00  0.00     0.213 HD
ENDBRANCH   2  32
BRANCH   2  34
HETATM   34  C   UNL     1      -5.788   1.982 -30.196  1.00  0.00     0.439 C 
HETATM   35  F   UNL     1      -5.140   1.259 -31.135  1.00  0.00    -0.166 F 
HETATM   36  F   UNL     1      -4.972   2.980 -29.806  1.00  0.00    -0.166 F 
HETATM   37  F   UNL     1      -5.969   1.176 -29.117  1.00  0.00    -0.166 F 
ENDBRANCH   2  34
TORSDOF 8
ENDMDL
MODEL 10
REMARK VINA RESULT:      -8.0      3.603      5.485
REMARK  8 active torsions:
REMARK  status: ('A' for Active; 'I' for Inactive)
REMARK    1  A    between atoms: C_2  and  O_3 
REMARK    2  A    between atoms: O_3  and  C_4 
REMARK    3  A    between atoms: C_4  and  C_5 
REMARK    4  A    between atoms: C_6  and  O_7 
REMARK    5  A    between atoms: C_6  and  C_8 
REMARK    6  A    between atoms: C_16  and  C_17 
REMARK    7  A    between atoms: C_18  and  C_19 
REMARK    8  A    between atoms: N_26  and  C_27 
ROOT
HETATM    1  C   UNL     1      -5.310   5.817 -30.394  1.00  0.00     0.177 C 
HETATM    2  C   UNL     1      -5.820   5.173 -29.102  1.00  0.00     0.250 C 
HETATM    3  N   UNL     1      -7.258   4.982 -29.105  1.00  0.00    -0.303 N 
HETATM    4  C   UNL     1      -8.029   4.870 -30.206  1.00  0.00     0.319 C 
HETATM    5  O   UNL     1      -9.216   4.581 -30.116  1.00  0.00    -0.247 OA
HETATM    6  N   UNL     1      -7.448   5.114 -31.400  1.00  0.00    -0.333 N 
HETATM    7  C   UNL     1      -6.021   5.263 -31.629  1.00  0.00     0.142 C 
HETATM    8  H   UNL     1      -7.740   4.760 -28.242  1.00  0.00     0.167 HD
HETATM    9  H   UNL     1      -8.052   4.947 -32.196  1.00  0.00     0.165 HD
ENDROOT
BRANCH   7  10
HETATM   10  C   UNL     1      -5.482   3.946 -32.130  1.00  0.00     0.015 A 
HETATM   11  C   UNL     1      -4.136   3.553 -32.434  1.00  0.00     0.097 A 
HETATM   12  N   UNL     1      -4.101   2.281 -32.868  1.00  0.00    -0.167 NA
HETATM   13  N   UNL     1      -5.377   1.846 -32.879  1.00  0.00    -0.244 N 
HETATM   14  C   UNL     1      -6.232   2.827 -32.455  1.00  0.00     0.130 A 
BRANCH  11  15
HETATM   15  C   UNL     1      -2.872   4.306 -32.374  1.00  0.00    -0.005 A 
HETATM   16  C   UNL     1      -2.328   4.971 -33.480  1.00  0.00     0.014 A 
HETATM   17  C   UNL     1      -1.129   5.686 -33.371  1.00  0.00     0.001 A 
HETATM   18  C   UNL     1      -0.461   5.759 -32.151  1.00  0.00     0.000 A 
HETATM   19  C   UNL     1      -0.991   5.119 -31.037  1.00  0.00     0.001 A 
HETATM   20  C   UNL     1      -2.184   4.399 -31.150  1.00  0.00     0.014 A 
ENDBRANCH  11  15
BRANCH  13  21
HETATM   21  C   UNL     1      -5.704   0.529 -33.309  1.00  0.00     0.058 A 
HETATM   22  C   UNL     1      -4.726  -0.476 -33.261  1.00  0.00     0.031 A 
HETATM   23  C   UNL     1      -5.029  -1.774 -33.679  1.00  0.00     0.002 A 
HETATM   24  C   UNL     1      -6.305  -2.076 -34.151  1.00  0.00     0.000 A 
HETATM   25  C   UNL     1      -7.281  -1.083 -34.206  1.00  0.00     0.002 A 
HETATM   26  C   UNL     1      -6.987   0.217 -33.786  1.00  0.00     0.031 A 
ENDBRANCH  13  21
ENDBRANCH   7  10
BRANCH   1  27
HETATM   27  C   UNL     1      -5.429   7.323 -30.418  1.00  0.00     0.270 C 
HETATM   28  O   UNL     1      -6.510   7.898 -30.439  1.00  0.00    -0.265 OA
BRANCH  27  29
HETATM   29  O   UNL     1      -4.224   7.941 -30.350  1.00  0.00    -0.321 OA
BRANCH  29  30
HETATM   30  C   UNL     1      -3.449   7.992 -31.559  1.00  0.00     0.174 C 
HETATM   31  C   UNL     1      -2.215   8.855 -31.370  1.00  0.00     0.034 C 
ENDBRANCH  29  30
ENDBRANCH  27  29
ENDBRANCH   1  27
BRANCH   2  32
HETATM   32  O   UNL     1      -5.294   3.831 -29.043  1.00  0.00    -0.363 OA
HETATM   33  H   UNL     1      -4.436   3.885 -28.586  1.00  0.00     0.213 HD
ENDBRANCH   2  32
BRANCH   2  34
HETATM   34  C   UNL     1      -5.309   5.941 -27.834  1.00  0.00     0.439 C 
HETATM   35  F   UNL     1      -6.058   7.035 -27.576  1.00  0.00    -0.166 F 
HETATM   36  F   UNL     1      -5.284   5.183 -26.721  1.00  0.00    -0.166 F 
HETATM   37  F   UNL     1      -4.035   6.365 -28.050  1.00  0.00    -0.166 F 
ENDBRANCH   2  34
TORSDOF 8
ENDMDL
