MODEL 1
REMARK VINA RESULT:      -9.4      0.000      0.000
REMARK  8 active torsions:
REMARK  status: ('A' for Active; 'I' for Inactive)
REMARK    1  A    between atoms: C_4  and  S_5 
REMARK    2  A    between atoms: S_5  and  C_6 
REMARK    3  A    between atoms: C_6  and  C_7 
REMARK       I    between atoms: C_7  and  N_8 
REMARK    4  A    between atoms: N_8  and  C_9 
REMARK    5  A    between atoms: C_20  and  C_21 
REMARK    6  A    between atoms: C_27  and  C_28 
REMARK       I    between atoms: C_28  and  N_29 
REMARK    7  A    between atoms: N_29  and  C_30 
REMARK    8  A    between atoms: C_31  and  O_32 
ROOT
HETATM    1  C   UNL     1      -5.802   7.142 -29.529  1.00  0.00     0.069 C 
HETATM    2  C   UNL     1      -5.142   5.915 -30.114  1.00  0.00     0.019 C 
HETATM    3  N   UNL     1      -5.995   4.865 -30.413  1.00  0.00    -0.353 N 
HETATM    4  C   UNL     1      -5.595   3.592 -30.765  1.00  0.00     0.087 C 
HETATM    5  C   UNL     1      -4.282   3.371 -31.013  1.00  0.00     0.055 C 
HETATM    6  C   UNL     1      -3.739   1.970 -31.247  1.00  0.00     0.019 C 
HETATM    7  N   UNL     1      -3.290   0.808 -31.441  1.00  0.00    -0.096 N 
HETATM    8  C   UNL     1      -3.302   4.540 -31.085  1.00  0.00     0.104 C 
HETATM    9  C   UNL     1      -3.818   5.805 -30.397  1.00  0.00     0.046 C 
HETATM   10  H   UNL     1      -6.982   4.973 -30.195  1.00  0.00     0.166 HD
ENDROOT
BRANCH   4  11
HETATM   11  S   UNL     1      -6.805   2.362 -31.043  1.00  0.00    -0.102 SA
BRANCH  11  12
HETATM   12  C   UNL     1      -7.236   2.598 -32.797  1.00  0.00     0.184 C 
BRANCH  12  13
HETATM   13  C   UNL     1      -6.814   1.413 -33.678  1.00  0.00     0.231 C 
HETATM   14  N   UNL     1      -6.529   0.247 -32.994  1.00  0.00    -0.327 N 
HETATM   15  H   UNL     1      -6.635   0.309 -31.985  1.00  0.00     0.169 HD
HETATM   16  O   UNL     1      -6.720   1.567 -34.894  1.00  0.00    -0.272 OA
BRANCH  14  17
HETATM   17  C   UNL     1      -6.155  -1.010 -33.501  1.00  0.00     0.034 A 
HETATM   18  C   UNL     1      -4.847  -1.497 -33.503  1.00  0.00     0.031 A 
HETATM   19  C   UNL     1      -4.562  -2.756 -34.044  1.00  0.00     0.026 A 
HETATM   20  C   UNL     1      -5.585  -3.534 -34.579  1.00  0.00     0.034 A 
HETATM   21 CL   UNL     1      -5.234  -5.082 -35.241  1.00  0.00    -0.084 Cl
HETATM   22  C   UNL     1      -6.895  -3.062 -34.582  1.00  0.00     0.026 A 
HETATM   23  C   UNL     1      -7.176  -1.802 -34.046  1.00  0.00     0.031 A 
ENDBRANCH  14  17
ENDBRANCH  12  13
ENDBRANCH  11  12
ENDBRANCH   4  11
BRANCH   8  24
HETATM   24  C   UNL     1      -2.961   4.781 -32.566  1.00  0.00    -0.044 A 
HETATM   25  C   UNL     1      -1.627   4.938 -32.993  1.00  0.00     0.008 A 
HETATM   26  C   UNL     1      -1.330   5.216 -34.327  1.00  0.00     0.001 A 
HETATM   27  C   UNL     1      -2.359   5.355 -35.254  1.00  0.00     0.000 A 
HETATM   28  C   UNL     1      -3.684   5.215 -34.847  1.00  0.00     0.001 A 
HETATM   29  C   UNL     1      -3.987   4.931 -33.513  1.00  0.00     0.008 A 
ENDBRANCH   8  24
BRANCH   9  30
HETATM   30  C   UNL     1      -2.868   6.898 -29.994  1.00  0.00     0.255 C 
HETATM   31  N   UNL     1      -2.286   6.762 -28.751  1.00  0.00    -0.321 N 
HETATM   32  H   UNL     1      -2.711   6.166 -28.061  1.00  0.00     0.169 HD
HETATM   33  O   UNL     1      -2.741   7.890 -30.708  1.00  0.00    -0.268 OA
BRANCH  31  34
HETATM   34  C   UNL     1      -1.223   7.570 -28.283  1.00  0.00     0.068 A 
HETATM   35  C   UNL     1       0.131   7.317 -28.585  1.00  0.00     0.095 A 
HETATM   36  C   UNL     1       1.109   8.198 -28.107  1.00  0.00     0.039 A 
HETATM   37  C   UNL     1       0.754   9.291 -27.311  1.00  0.00     0.003 A 
HETATM   38  C   UNL     1      -0.577   9.499 -26.962  1.00  0.00     0.002 A 
HETATM   39  C   UNL     1      -1.562   8.631 -27.433  1.00  0.00     0.032 A 
BRANCH  35  40
HETATM   40  O   UNL     1       0.412   6.143 -29.238  1.00  0.00    -0.354 OA
HETATM   41  C   UNL     1       0.678   6.204 -30.629  1.00  0.00     0.210 C 
ENDBRANCH  35  40
ENDBRANCH  31  34
ENDBRANCH   9  30
TORSDOF 8
ENDMDL
MODEL 2
REMARK VINA RESULT:      -9.1      4.276      9.756
REMARK  8 active torsions:
REMARK  status: ('A' for Active; 'I' for Inactive)
REMARK    1  A    between atoms: C_4  and  S_5 
REMARK    2  A    between atoms: S_5  and  C_6 
REMARK    3  A    between atoms: C_6  and  C_7 
REMARK       I    between atoms: C_7  and  N_8 
REMARK    4  A    between atoms: N_8  and  C_9 
REMARK    5  A    between atoms: C_20  and  C_21 
REMARK    6  A    between atoms: C_27  and  C_28 
REMARK       I    between atoms: C_28  and  N_29 
REMARK    7  A    between atoms: N_29  and  C_30 
REMARK    8  A    between atoms: C_31  and  O_32 
ROOT
HETATM    1  C   UNL     1      -7.344   4.761 -29.144  1.00  0.00     0.069 C 
HETATM    2  C   UNL     1      -6.691   4.582 -30.495  1.00  0.00     0.019 C 
HETATM    3  N   UNL     1      -5.428   5.138 -30.624  1.00  0.00    -0.353 N 
HETATM    4  C   UNL     1      -4.735   5.267 -31.810  1.00  0.00     0.087 C 
HETATM    5  C   UNL     1      -5.225   4.661 -32.918  1.00  0.00     0.055 C 
HETATM    6  C   UNL     1      -4.612   4.889 -34.290  1.00  0.00     0.019 C 
HETATM    7  N   UNL     1      -4.103   5.078 -35.428  1.00  0.00    -0.096 N 
HETATM    8  C   UNL     1      -6.411   3.703 -32.813  1.00  0.00     0.104 C 
HETATM    9  C   UNL     1      -7.230   3.894 -31.534  1.00  0.00     0.046 C 
HETATM   10  H   UNL     1      -5.045   5.645 -29.831  1.00  0.00     0.166 HD
ENDROOT
BRANCH   4  11
HETATM   11  S   UNL     1      -3.175   6.057 -31.807  1.00  0.00    -0.102 SA
BRANCH  11  12
HETATM   12  C   UNL     1      -2.025   4.695 -31.434  1.00  0.00     0.184 C 
BRANCH  12  13
HETATM   13  C   UNL     1      -0.838   5.139 -30.567  1.00  0.00     0.231 C 
HETATM   14  N   UNL     1      -1.109   6.170 -29.688  1.00  0.00    -0.327 N 
HETATM   15  H   UNL     1      -2.065   6.513 -29.715  1.00  0.00     0.169 HD
HETATM   16  O   UNL     1       0.257   4.602 -30.718  1.00  0.00    -0.272 OA
BRANCH  14  17
HETATM   17  C   UNL     1      -0.262   6.776 -28.742  1.00  0.00     0.034 A 
HETATM   18  C   UNL     1       0.594   7.841 -29.026  1.00  0.00     0.031 A 
HETATM   19  C   UNL     1       1.416   8.373 -28.025  1.00  0.00     0.026 A 
HETATM   20  C   UNL     1       1.380   7.844 -26.737  1.00  0.00     0.034 A 
HETATM   21 CL   UNL     1       2.388   8.500 -25.509  1.00  0.00    -0.084 Cl
HETATM   22  C   UNL     1       0.529   6.783 -26.440  1.00  0.00     0.026 A 
HETATM   23  C   UNL     1      -0.287   6.250 -27.442  1.00  0.00     0.031 A 
ENDBRANCH  14  17
ENDBRANCH  12  13
ENDBRANCH  11  12
ENDBRANCH   4  11
BRANCH   8  24
HETATM   24  C   UNL     1      -5.874   2.269 -32.952  1.00  0.00    -0.044 A 
HETATM   25  C   UNL     1      -6.421   1.372 -33.891  1.00  0.00     0.008 A 
HETATM   26  C   UNL     1      -5.970   0.054 -33.971  1.00  0.00     0.001 A 
HETATM   27  C   UNL     1      -4.976  -0.394 -33.106  1.00  0.00     0.000 A 
HETATM   28  C   UNL     1      -4.432   0.476 -32.163  1.00  0.00     0.001 A 
HETATM   29  C   UNL     1      -4.877   1.798 -32.083  1.00  0.00     0.008 A 
ENDBRANCH   8  24
BRANCH   9  30
HETATM   30  C   UNL     1      -8.634   3.366 -31.441  1.00  0.00     0.255 C 
HETATM   31  N   UNL     1      -9.635   4.251 -31.783  1.00  0.00    -0.321 N 
HETATM   32  H   UNL     1      -9.452   5.242 -31.774  1.00  0.00     0.169 HD
HETATM   33  O   UNL     1      -8.836   2.249 -30.970  1.00  0.00    -0.268 OA
BRANCH  31  34
HETATM   34  C   UNL     1     -10.991   3.885 -31.954  1.00  0.00     0.068 A 
HETATM   35  C   UNL     1     -11.452   3.117 -33.042  1.00  0.00     0.095 A 
HETATM   36  C   UNL     1     -12.809   2.772 -33.102  1.00  0.00     0.039 A 
HETATM   37  C   UNL     1     -13.699   3.215 -32.119  1.00  0.00     0.003 A 
HETATM   38  C   UNL     1     -13.249   4.028 -31.083  1.00  0.00     0.002 A 
HETATM   39  C   UNL     1     -11.902   4.377 -31.009  1.00  0.00     0.032 A 
BRANCH  35  40
HETATM   40  O   UNL     1     -10.551   2.854 -34.042  1.00  0.00    -0.354 OA
HETATM   41  C   UNL     1     -10.170   1.504 -34.255  1.00  0.00     0.210 C 
ENDBRANCH  35  40
ENDBRANCH  31  34
ENDBRANCH   9  30
TORSDOF 8
ENDMDL
MODEL 3
REMARK VINA RESULT:      -9.0      2.122      4.333
REMARK  8 active torsions:
REMARK  status: ('A' for Active; 'I' for Inactive)
REMARK    1  A    between atoms: C_4  and  S_5 
REMARK    2  A    between atoms: S_5  and  C_6 
REMARK    3  A    between atoms: C_6  and  C_7 
REMARK       I    between atoms: C_7  and  N_8 
REMARK    4  A    between atoms: N_8  and  C_9 
REMARK    5  A    between atoms: C_20  and  C_21 
REMARK    6  A    between atoms: C_27  and  C_28 
REMARK       I    between atoms: C_28  and  N_29 
REMARK    7  A    between atoms: N_29  and  C_30 
REMARK    8  A    between atoms: C_31  and  O_32 
ROOT
HETATM    1  C   UNL     1      -3.915   1.998 -32.044  1.00  0.00     0.069 C 
HETATM    2  C   UNL     1      -5.166   2.840 -32.136  1.00  0.00     0.019 C 
HETATM    3  N   UNL     1      -6.356   2.133 -32.198  1.00  0.00    -0.353 N 
HETATM    4  C   UNL     1      -7.592   2.680 -32.481  1.00  0.00     0.087 C 
HETATM    5  C   UNL     1      -7.706   4.029 -32.535  1.00  0.00     0.055 C 
HETATM    6  C   UNL     1      -8.988   4.702 -32.998  1.00  0.00     0.019 C 
HETATM    7  N   UNL     1     -10.052   5.261 -33.383  1.00  0.00    -0.096 N 
HETATM    8  C   UNL     1      -6.542   4.921 -32.108  1.00  0.00     0.104 C 
HETATM    9  C   UNL     1      -5.194   4.198 -32.113  1.00  0.00     0.046 C 
HETATM   10  H   UNL     1      -6.310   1.118 -32.211  1.00  0.00     0.166 HD
ENDROOT
BRANCH   4  11
HETATM   11  S   UNL     1      -8.986   1.632 -32.589  1.00  0.00    -0.102 SA
BRANCH  11  12
HETATM   12  C   UNL     1      -9.021   1.174 -34.351  1.00  0.00     0.184 C 
BRANCH  12  13
HETATM   13  C   UNL     1      -7.827   0.299 -34.762  1.00  0.00     0.231 C 
HETATM   14  N   UNL     1      -7.561  -0.763 -33.919  1.00  0.00    -0.327 N 
HETATM   15  H   UNL     1      -8.190  -0.844 -33.126  1.00  0.00     0.169 HD
HETATM   16  O   UNL     1      -7.174   0.599 -35.760  1.00  0.00    -0.272 OA
BRANCH  14  17
HETATM   17  C   UNL     1      -6.575  -1.759 -34.032  1.00  0.00     0.034 A 
HETATM   18  C   UNL     1      -6.780  -3.002 -34.631  1.00  0.00     0.031 A 
HETATM   19  C   UNL     1      -5.743  -3.941 -34.685  1.00  0.00     0.026 A 
HETATM   20  C   UNL     1      -4.497  -3.638 -34.144  1.00  0.00     0.034 A 
HETATM   21 CL   UNL     1      -3.225  -4.791 -34.212  1.00  0.00    -0.084 Cl
HETATM   22  C   UNL     1      -4.277  -2.400 -33.544  1.00  0.00     0.026 A 
HETATM   23  C   UNL     1      -5.315  -1.466 -33.487  1.00  0.00     0.031 A 
ENDBRANCH  14  17
ENDBRANCH  12  13
ENDBRANCH  11  12
ENDBRANCH   4  11
BRANCH   8  24
HETATM   24  C   UNL     1      -6.881   5.512 -30.729  1.00  0.00    -0.044 A 
HETATM   25  C   UNL     1      -6.897   4.708 -29.572  1.00  0.00     0.008 A 
HETATM   26  C   UNL     1      -7.264   5.238 -28.335  1.00  0.00     0.001 A 
HETATM   27  C   UNL     1      -7.634   6.576 -28.235  1.00  0.00     0.000 A 
HETATM   28  C   UNL     1      -7.635   7.384 -29.371  1.00  0.00     0.001 A 
HETATM   29  C   UNL     1      -7.264   6.858 -30.611  1.00  0.00     0.008 A 
ENDBRANCH   8  24
BRANCH   9  30
HETATM   30  C   UNL     1      -3.909   4.978 -32.139  1.00  0.00     0.255 C 
HETATM   31  N   UNL     1      -3.334   5.233 -30.912  1.00  0.00    -0.321 N 
HETATM   32  H   UNL     1      -3.894   5.184 -30.077  1.00  0.00     0.169 HD
HETATM   33  O   UNL     1      -3.499   5.443 -33.201  1.00  0.00    -0.268 OA
BRANCH  31  34
HETATM   34  C   UNL     1      -2.035   5.769 -30.743  1.00  0.00     0.068 A 
HETATM   35  C   UNL     1      -1.794   7.075 -30.269  1.00  0.00     0.095 A 
HETATM   36  C   UNL     1      -0.470   7.500 -30.099  1.00  0.00     0.039 A 
HETATM   37  C   UNL     1       0.595   6.658 -30.429  1.00  0.00     0.003 A 
HETATM   38  C   UNL     1       0.351   5.394 -30.958  1.00  0.00     0.002 A 
HETATM   39  C   UNL     1      -0.961   4.957 -31.131  1.00  0.00     0.032 A 
BRANCH  35  40
HETATM   40  O   UNL     1      -2.886   7.891 -30.116  1.00  0.00    -0.354 OA
HETATM   41  C   UNL     1      -3.246   8.728 -31.202  1.00  0.00     0.210 C 
ENDBRANCH  35  40
ENDBRANCH  31  34
ENDBRANCH   9  30
TORSDOF 8
ENDMDL
MODEL 4
REMARK VINA RESULT:      -8.9      3.698      9.712
REMARK  8 active torsions:
REMARK  status: ('A' for Active; 'I' for Inactive)
REMARK    1  A    between atoms: C_4  and  S_5 
REMARK    2  A    between atoms: S_5  and  C_6 
REMARK    3  A    between atoms: C_6  and  C_7 
REMARK       I    between atoms: C_7  and  N_8 
REMARK    4  A    between atoms: N_8  and  C_9 
REMARK    5  A    between atoms: C_20  and  C_21 
REMARK    6  A    between atoms: C_27  and  C_28 
REMARK       I    between atoms: C_28  and  N_29 
REMARK    7  A    between atoms: N_29  and  C_30 
REMARK    8  A    between atoms: C_31  and  O_32 
ROOT
HETATM    1  C   UNL     1      -5.534   1.379 -29.495  1.00  0.00     0.069 C 
HETATM    2  C   UNL     1      -5.655   2.691 -30.233  1.00  0.00     0.019 C 
HETATM    3  N   UNL     1      -5.383   3.824 -29.482  1.00  0.00    -0.353 N 
HETATM    4  C   UNL     1      -5.620   5.122 -29.888  1.00  0.00     0.087 C 
HETATM    5  C   UNL     1      -5.982   5.343 -31.175  1.00  0.00     0.055 C 
HETATM    6  C   UNL     1      -6.415   6.718 -31.655  1.00  0.00     0.019 C 
HETATM    7  N   UNL     1      -6.775   7.860 -32.054  1.00  0.00    -0.096 N 
HETATM    8  C   UNL     1      -5.944   4.206 -32.194  1.00  0.00     0.104 C 
HETATM    9  C   UNL     1      -5.958   2.818 -31.551  1.00  0.00     0.046 C 
HETATM   10  H   UNL     1      -5.157   3.703 -28.499  1.00  0.00     0.166 HD
ENDROOT
BRANCH   4  11
HETATM   11  S   UNL     1      -5.281   6.436 -28.787  1.00  0.00    -0.102 SA
BRANCH  11  12
HETATM   12  C   UNL     1      -3.641   7.014 -29.328  1.00  0.00     0.184 C 
BRANCH  12  13
HETATM   13  C   UNL     1      -2.705   7.332 -28.152  1.00  0.00     0.231 C 
HETATM   14  N   UNL     1      -1.398   7.613 -28.503  1.00  0.00    -0.327 N 
HETATM   15  H   UNL     1      -1.209   7.580 -29.501  1.00  0.00     0.169 HD
HETATM   16  O   UNL     1      -3.140   7.286 -27.003  1.00  0.00    -0.272 OA
BRANCH  14  17
HETATM   17  C   UNL     1      -0.317   7.973 -27.680  1.00  0.00     0.034 A 
HETATM   18  C   UNL     1       0.683   7.091 -27.268  1.00  0.00     0.031 A 
HETATM   19  C   UNL     1       1.717   7.533 -26.434  1.00  0.00     0.026 A 
HETATM   20  C   UNL     1       1.756   8.860 -26.013  1.00  0.00     0.034 A 
HETATM   21 CL   UNL     1       3.027   9.402 -24.990  1.00  0.00    -0.084 Cl
HETATM   22  C   UNL     1       0.766   9.752 -26.417  1.00  0.00     0.026 A 
HETATM   23  C   UNL     1      -0.268   9.307 -27.247  1.00  0.00     0.031 A 
ENDBRANCH  14  17
ENDBRANCH  12  13
ENDBRANCH  11  12
ENDBRANCH   4  11
BRANCH   8  24
HETATM   24  C   UNL     1      -4.716   4.419 -33.095  1.00  0.00    -0.044 A 
HETATM   25  C   UNL     1      -3.412   4.166 -32.625  1.00  0.00     0.008 A 
HETATM   26  C   UNL     1      -2.299   4.419 -33.428  1.00  0.00     0.001 A 
HETATM   27  C   UNL     1      -2.469   4.941 -34.707  1.00  0.00     0.000 A 
HETATM   28  C   UNL     1      -3.751   5.209 -35.183  1.00  0.00     0.001 A 
HETATM   29  C   UNL     1      -4.869   4.953 -34.385  1.00  0.00     0.008 A 
ENDBRANCH   8  24
BRANCH   9  30
HETATM   30  C   UNL     1      -6.345   1.608 -32.355  1.00  0.00     0.255 C 
HETATM   31  N   UNL     1      -5.327   1.000 -33.058  1.00  0.00    -0.321 N 
HETATM   32  H   UNL     1      -4.486   1.513 -33.267  1.00  0.00     0.169 HD
HETATM   33  O   UNL     1      -7.529   1.290 -32.446  1.00  0.00    -0.268 OA
BRANCH  31  34
HETATM   34  C   UNL     1      -5.449  -0.254 -33.702  1.00  0.00     0.068 A 
HETATM   35  C   UNL     1      -4.463  -1.260 -33.628  1.00  0.00     0.095 A 
HETATM   36  C   UNL     1      -4.694  -2.484 -34.268  1.00  0.00     0.039 A 
HETATM   37  C   UNL     1      -5.866  -2.693 -35.001  1.00  0.00     0.003 A 
HETATM   38  C   UNL     1      -6.805  -1.674 -35.124  1.00  0.00     0.002 A 
HETATM   39  C   UNL     1      -6.590  -0.451 -34.491  1.00  0.00     0.032 A 
BRANCH  35  40
HETATM   40  O   UNL     1      -3.278  -0.924 -33.024  1.00  0.00    -0.354 OA
HETATM   41  C   UNL     1      -3.040  -1.410 -31.713  1.00  0.00     0.210 C 
ENDBRANCH  35  40
ENDBRANCH  31  34
ENDBRANCH   9  30
TORSDOF 8
ENDMDL
MODEL 5
REMARK VINA RESULT:      -8.8      4.123      8.947
REMARK  8 active torsions:
REMARK  status: ('A' for Active; 'I' for Inactive)
REMARK    1  A    between atoms: C_4  and  S_5 
REMARK    2  A    between atoms: S_5  and  C_6 
REMARK    3  A    between atoms: C_6  and  C_7 
REMARK       I    between atoms: C_7  and  N_8 
REMARK    4  A    between atoms: N_8  and  C_9 
REMARK    5  A    between atoms: C_20  and  C_21 
REMARK    6  A    between atoms: C_27  and  C_28 
REMARK       I    between atoms: C_28  and  N_29 
REMARK    7  A    between atoms: N_29  and  C_30 
REMARK    8  A    between atoms: C_31  and  O_32 
ROOT
HETATM    1  C   UNL     1     -10.515   5.191 -30.996  1.00  0.00     0.069 C 
HETATM    2  C   UNL     1      -9.315   4.858 -31.851  1.00  0.00     0.019 C 
HETATM    3  N   UNL     1      -8.102   5.340 -31.387  1.00  0.00    -0.353 N 
HETATM    4  C   UNL     1      -6.918   5.327 -32.097  1.00  0.00     0.087 C 
HETATM    5  C   UNL     1      -6.870   4.644 -33.266  1.00  0.00     0.055 C 
HETATM    6  C   UNL     1      -5.660   4.716 -34.182  1.00  0.00     0.019 C 
HETATM    7  N   UNL     1      -4.655   4.776 -34.943  1.00  0.00    -0.096 N 
HETATM    8  C   UNL     1      -8.039   3.757 -33.690  1.00  0.00     0.104 C 
HETATM    9  C   UNL     1      -9.349   4.102 -32.979  1.00  0.00     0.046 C 
HETATM   10  H   UNL     1      -8.102   5.900 -30.539  1.00  0.00     0.166 HD
ENDROOT
BRANCH   4  11
HETATM   11  S   UNL     1      -5.489   6.041 -31.388  1.00  0.00    -0.102 SA
BRANCH  11  12
HETATM   12  C   UNL     1      -5.249   5.062 -29.871  1.00  0.00     0.184 C 
BRANCH  12  13
HETATM   13  C   UNL     1      -5.379   3.551 -30.111  1.00  0.00     0.231 C 
HETATM   14  N   UNL     1      -4.356   2.984 -30.846  1.00  0.00    -0.327 N 
HETATM   15  H   UNL     1      -3.633   3.634 -31.140  1.00  0.00     0.169 HD
HETATM   16  O   UNL     1      -6.366   2.953 -29.686  1.00  0.00    -0.272 OA
BRANCH  14  17
HETATM   17  C   UNL     1      -4.161   1.639 -31.205  1.00  0.00     0.034 A 
HETATM   18  C   UNL     1      -4.485   0.555 -30.388  1.00  0.00     0.031 A 
HETATM   19  C   UNL     1      -4.242  -0.755 -30.820  1.00  0.00     0.026 A 
HETATM   20  C   UNL     1      -3.677  -0.983 -32.072  1.00  0.00     0.034 A 
HETATM   21 CL   UNL     1      -3.380  -2.591 -32.602  1.00  0.00    -0.084 Cl
HETATM   22  C   UNL     1      -3.349   0.089 -32.899  1.00  0.00     0.026 A 
HETATM   23  C   UNL     1      -3.589   1.395 -32.463  1.00  0.00     0.031 A 
ENDBRANCH  14  17
ENDBRANCH  12  13
ENDBRANCH  11  12
ENDBRANCH   4  11
BRANCH   8  24
HETATM   24  C   UNL     1      -7.625   2.292 -33.469  1.00  0.00    -0.044 A 
HETATM   25  C   UNL     1      -7.056   1.528 -34.507  1.00  0.00     0.008 A 
HETATM   26  C   UNL     1      -6.738   0.183 -34.316  1.00  0.00     0.001 A 
HETATM   27  C   UNL     1      -6.996  -0.425 -33.092  1.00  0.00     0.000 A 
HETATM   28  C   UNL     1      -7.570   0.312 -32.057  1.00  0.00     0.001 A 
HETATM   29  C   UNL     1      -7.885   1.660 -32.241  1.00  0.00     0.008 A 
ENDBRANCH   8  24
BRANCH   9  30
HETATM   30  C   UNL     1     -10.667   3.651 -33.544  1.00  0.00     0.255 C 
HETATM   31  N   UNL     1     -11.224   2.535 -32.957  1.00  0.00    -0.321 N 
HETATM   32  H   UNL     1     -10.643   1.904 -32.428  1.00  0.00     0.169 HD
HETATM   33  O   UNL     1     -11.121   4.200 -34.546  1.00  0.00    -0.268 OA
BRANCH  31  34
HETATM   34  C   UNL     1     -12.540   2.082 -33.209  1.00  0.00     0.068 A 
HETATM   35  C   UNL     1     -13.683   2.658 -32.616  1.00  0.00     0.095 A 
HETATM   36  C   UNL     1     -14.948   2.164 -32.960  1.00  0.00     0.039 A 
HETATM   37  C   UNL     1     -15.075   1.092 -33.848  1.00  0.00     0.003 A 
HETATM   38  C   UNL     1     -13.940   0.484 -34.379  1.00  0.00     0.002 A 
HETATM   39  C   UNL     1     -12.675   0.967 -34.047  1.00  0.00     0.032 A 
BRANCH  35  40
HETATM   40  O   UNL     1     -13.468   3.599 -31.641  1.00  0.00    -0.354 OA
HETATM   41  C   UNL     1     -14.218   4.801 -31.702  1.00  0.00     0.210 C 
ENDBRANCH  35  40
ENDBRANCH  31  34
ENDBRANCH   9  30
TORSDOF 8
ENDMDL
MODEL 6
REMARK VINA RESULT:      -8.8      3.386      9.099
REMARK  8 active torsions:
REMARK  status: ('A' for Active; 'I' for Inactive)
REMARK    1  A    between atoms: C_4  and  S_5 
REMARK    2  A    between atoms: S_5  and  C_6 
REMARK    3  A    between atoms: C_6  and  C_7 
REMARK       I    between atoms: C_7  and  N_8 
REMARK    4  A    between atoms: N_8  and  C_9 
REMARK    5  A    between atoms: C_20  and  C_21 
REMARK    6  A    between atoms: C_27  and  C_28 
REMARK       I    between atoms: C_28  and  N_29 
REMARK    7  A    between atoms: N_29  and  C_30 
REMARK    8  A    between atoms: C_31  and  O_32 
ROOT
HETATM    1  C   UNL     1      -5.332   3.694 -34.532  1.00  0.00     0.069 C 
HETATM    2  C   UNL     1      -6.641   3.596 -33.784  1.00  0.00     0.019 C 
HETATM    3  N   UNL     1      -7.040   4.750 -33.129  1.00  0.00    -0.353 N 
HETATM    4  C   UNL     1      -8.087   4.832 -32.233  1.00  0.00     0.087 C 
HETATM    5  C   UNL     1      -8.909   3.764 -32.096  1.00  0.00     0.055 C 
HETATM    6  C   UNL     1      -9.981   3.716 -31.019  1.00  0.00     0.019 C 
HETATM    7  N   UNL     1     -10.870   3.676 -30.125  1.00  0.00    -0.096 N 
HETATM    8  C   UNL     1      -8.792   2.573 -33.045  1.00  0.00     0.104 C 
HETATM    9  C   UNL     1      -7.441   2.499 -33.758  1.00  0.00     0.046 C 
HETATM   10  H   UNL     1      -6.426   5.558 -33.166  1.00  0.00     0.166 HD
ENDROOT
BRANCH   4  11
HETATM   11  S   UNL     1      -8.415   6.355 -31.441  1.00  0.00    -0.102 SA
BRANCH  11  12
HETATM   12  C   UNL     1      -7.689   6.124 -29.787  1.00  0.00     0.184 C 
BRANCH  12  13
HETATM   13  C   UNL     1      -6.288   5.496 -29.835  1.00  0.00     0.231 C 
HETATM   14  N   UNL     1      -5.336   6.238 -30.507  1.00  0.00    -0.327 N 
HETATM   15  H   UNL     1      -5.673   7.117 -30.888  1.00  0.00     0.169 HD
HETATM   16  O   UNL     1      -6.103   4.392 -29.326  1.00  0.00    -0.272 OA
BRANCH  14  17
HETATM   17  C   UNL     1      -3.970   5.964 -30.697  1.00  0.00     0.034 A 
HETATM   18  C   UNL     1      -3.480   4.952 -31.523  1.00  0.00     0.031 A 
HETATM   19  C   UNL     1      -2.101   4.740 -31.641  1.00  0.00     0.026 A 
HETATM   20  C   UNL     1      -1.209   5.543 -30.937  1.00  0.00     0.034 A 
HETATM   21 CL   UNL     1       0.484   5.282 -31.084  1.00  0.00    -0.084 Cl
HETATM   22  C   UNL     1      -1.682   6.558 -30.109  1.00  0.00     0.026 A 
HETATM   23  C   UNL     1      -3.060   6.765 -29.989  1.00  0.00     0.031 A 
ENDBRANCH  14  17
ENDBRANCH  12  13
ENDBRANCH  11  12
ENDBRANCH   4  11
BRANCH   8  24
HETATM   24  C   UNL     1      -9.969   2.639 -34.033  1.00  0.00    -0.044 A 
HETATM   25  C   UNL     1     -10.261   3.819 -34.746  1.00  0.00     0.008 A 
HETATM   26  C   UNL     1     -11.366   3.890 -35.595  1.00  0.00     0.001 A 
HETATM   27  C   UNL     1     -12.205   2.789 -35.735  1.00  0.00     0.000 A 
HETATM   28  C   UNL     1     -11.940   1.618 -35.029  1.00  0.00     0.001 A 
HETATM   29  C   UNL     1     -10.831   1.540 -34.181  1.00  0.00     0.008 A 
ENDBRANCH   8  24
BRANCH   9  30
HETATM   30  C   UNL     1      -6.978   1.213 -34.385  1.00  0.00     0.255 C 
HETATM   31  N   UNL     1      -6.296   0.349 -33.555  1.00  0.00    -0.321 N 
HETATM   32  H   UNL     1      -5.871   0.695 -32.710  1.00  0.00     0.169 HD
HETATM   33  O   UNL     1      -7.115   1.041 -35.595  1.00  0.00    -0.268 OA
BRANCH  31  34
HETATM   34  C   UNL     1      -5.963  -0.982 -33.901  1.00  0.00     0.068 A 
HETATM   35  C   UNL     1      -4.654  -1.499 -33.813  1.00  0.00     0.095 A 
HETATM   36  C   UNL     1      -4.432  -2.843 -34.141  1.00  0.00     0.039 A 
HETATM   37  C   UNL     1      -5.483  -3.649 -34.585  1.00  0.00     0.003 A 
HETATM   38  C   UNL     1      -6.761  -3.116 -34.732  1.00  0.00     0.002 A 
HETATM   39  C   UNL     1      -6.997  -1.781 -34.407  1.00  0.00     0.032 A 
BRANCH  35  40
HETATM   40  O   UNL     1      -3.654  -0.607 -33.520  1.00  0.00    -0.354 OA
HETATM   41  C   UNL     1      -3.010  -0.721 -32.261  1.00  0.00     0.210 C 
ENDBRANCH  35  40
ENDBRANCH  31  34
ENDBRANCH   9  30
TORSDOF 8
ENDMDL
MODEL 7
REMARK VINA RESULT:      -8.6      4.524     10.098
REMARK  8 active torsions:
REMARK  status: ('A' for Active; 'I' for Inactive)
REMARK    1  A    between atoms: C_4  and  S_5 
REMARK    2  A    between atoms: S_5  and  C_6 
REMARK    3  A    between atoms: C_6  and  C_7 
REMARK       I    between atoms: C_7  and  N_8 
REMARK    4  A    between atoms: N_8  and  C_9 
REMARK    5  A    between atoms: C_20  and  C_21 
REMARK    6  A    between atoms: C_27  and  C_28 
REMARK       I    between atoms: C_28  and  N_29 
REMARK    7  A    between atoms: N_29  and  C_30 
REMARK    8  A    between atoms: C_31  and  O_32 
ROOT
HETATM    1  C   UNL     1      -9.106   5.752 -31.187  1.00  0.00     0.069 C 
HETATM    2  C   UNL     1      -7.958   5.379 -32.095  1.00  0.00     0.019 C 
HETATM    3  N   UNL     1      -6.711   5.837 -31.698  1.00  0.00    -0.353 N 
HETATM    4  C   UNL     1      -5.565   5.787 -32.465  1.00  0.00     0.087 C 
HETATM    5  C   UNL     1      -5.592   5.089 -33.626  1.00  0.00     0.055 C 
HETATM    6  C   UNL     1      -4.427   5.121 -34.602  1.00  0.00     0.019 C 
HETATM    7  N   UNL     1      -3.460   5.147 -35.411  1.00  0.00    -0.096 N 
HETATM    8  C   UNL     1      -6.801   4.227 -33.981  1.00  0.00     0.104 C 
HETATM    9  C   UNL     1      -8.066   4.613 -33.211  1.00  0.00     0.046 C 
HETATM   10  H   UNL     1      -6.656   6.406 -30.858  1.00  0.00     0.166 HD
ENDROOT
BRANCH   4  11
HETATM   11  S   UNL     1      -4.086   6.472 -31.836  1.00  0.00    -0.102 SA
BRANCH  11  12
HETATM   12  C   UNL     1      -3.152   5.007 -31.290  1.00  0.00     0.184 C 
BRANCH  12  13
HETATM   13  C   UNL     1      -1.821   5.368 -30.614  1.00  0.00     0.231 C 
HETATM   14  N   UNL     1      -1.910   6.317 -29.614  1.00  0.00    -0.327 N 
HETATM   15  H   UNL     1      -2.849   6.663 -29.439  1.00  0.00     0.169 HD
HETATM   16  O   UNL     1      -0.781   4.842 -31.007  1.00  0.00    -0.272 OA
BRANCH  14  17
HETATM   17  C   UNL     1      -0.896   6.832 -28.787  1.00  0.00     0.034 A 
HETATM   18  C   UNL     1       0.159   7.624 -29.242  1.00  0.00     0.031 A 
HETATM   19  C   UNL     1       1.136   8.082 -28.349  1.00  0.00     0.026 A 
HETATM   20  C   UNL     1       1.056   7.753 -26.998  1.00  0.00     0.034 A 
HETATM   21 CL   UNL     1       2.255   8.317 -25.902  1.00  0.00    -0.084 Cl
HETATM   22  C   UNL     1       0.008   6.965 -26.530  1.00  0.00     0.026 A 
HETATM   23  C   UNL     1      -0.963   6.505 -27.424  1.00  0.00     0.031 A 
ENDBRANCH  14  17
ENDBRANCH  12  13
ENDBRANCH  11  12
ENDBRANCH   4  11
BRANCH   8  24
HETATM   24  C   UNL     1      -6.412   2.755 -33.762  1.00  0.00    -0.044 A 
HETATM   25  C   UNL     1      -5.562   2.372 -32.706  1.00  0.00     0.008 A 
HETATM   26  C   UNL     1      -5.165   1.044 -32.550  1.00  0.00     0.001 A 
HETATM   27  C   UNL     1      -5.599   0.078 -33.453  1.00  0.00     0.000 A 
HETATM   28  C   UNL     1      -6.430   0.440 -34.512  1.00  0.00     0.001 A 
HETATM   29  C   UNL     1      -6.834   1.769 -34.669  1.00  0.00     0.008 A 
ENDBRANCH   8  24
BRANCH   9  30
HETATM   30  C   UNL     1      -9.420   4.187 -33.705  1.00  0.00     0.255 C 
HETATM   31  N   UNL     1      -9.937   3.043 -33.136  1.00  0.00    -0.321 N 
HETATM   32  H   UNL     1      -9.323   2.388 -32.681  1.00  0.00     0.169 HD
HETATM   33  O   UNL     1      -9.942   4.785 -34.645  1.00  0.00    -0.268 OA
BRANCH  31  34
HETATM   34  C   UNL     1     -11.269   2.601 -33.319  1.00  0.00     0.068 A 
HETATM   35  C   UNL     1     -12.366   3.143 -32.618  1.00  0.00     0.095 A 
HETATM   36  C   UNL     1     -13.653   2.665 -32.898  1.00  0.00     0.039 A 
HETATM   37  C   UNL     1     -13.844   1.641 -33.829  1.00  0.00     0.003 A 
HETATM   38  C   UNL     1     -12.751   1.064 -34.470  1.00  0.00     0.002 A 
HETATM   39  C   UNL     1     -11.465   1.532 -34.203  1.00  0.00     0.032 A 
BRANCH  35  40
HETATM   40  O   UNL     1     -12.082   4.032 -31.613  1.00  0.00    -0.354 OA
HETATM   41  C   UNL     1     -13.020   4.163 -30.557  1.00  0.00     0.210 C 
ENDBRANCH  35  40
ENDBRANCH  31  34
ENDBRANCH   9  30
TORSDOF 8
ENDMDL
MODEL 8
REMARK VINA RESULT:      -8.5      3.819      9.925
REMARK  8 active torsions:
REMARK  status: ('A' for Active; 'I' for Inactive)
REMARK    1  A    between atoms: C_4  and  S_5 
REMARK    2  A    between atoms: S_5  and  C_6 
REMARK    3  A    between atoms: C_6  and  C_7 
REMARK       I    between atoms: C_7  and  N_8 
REMARK    4  A    between atoms: N_8  and  C_9 
REMARK    5  A    between atoms: C_20  and  C_21 
REMARK    6  A    between atoms: C_27  and  C_28 
REMARK       I    between atoms: C_28  and  N_29 
REMARK    7  A    between atoms: N_29  and  C_30 
REMARK    8  A    between atoms: C_31  and  O_32 
ROOT
HETATM    1  C   UNL     1      -3.041   2.621 -31.853  1.00  0.00     0.069 C 
HETATM    2  C   UNL     1      -4.269   3.281 -31.272  1.00  0.00     0.019 C 
HETATM    3  N   UNL     1      -4.092   4.582 -30.828  1.00  0.00    -0.353 N 
HETATM    4  C   UNL     1      -5.011   5.301 -30.091  1.00  0.00     0.087 C 
HETATM    5  C   UNL     1      -6.253   4.787 -29.923  1.00  0.00     0.055 C 
HETATM    6  C   UNL     1      -7.266   5.437 -28.995  1.00  0.00     0.019 C 
HETATM    7  N   UNL     1      -8.107   5.976 -28.224  1.00  0.00    -0.096 N 
HETATM    8  C   UNL     1      -6.681   3.536 -30.688  1.00  0.00     0.104 C 
HETATM    9  C   UNL     1      -5.500   2.712 -31.207  1.00  0.00     0.046 C 
HETATM   10  H   UNL     1      -3.162   4.986 -30.890  1.00  0.00     0.166 HD
ENDROOT
BRANCH   4  11
HETATM   11  S   UNL     1      -4.600   6.912 -29.550  1.00  0.00    -0.102 SA
BRANCH  11  12
HETATM   12  C   UNL     1      -3.069   7.276 -30.468  1.00  0.00     0.184 C 
BRANCH  12  13
HETATM   13  C   UNL     1      -1.809   7.135 -29.601  1.00  0.00     0.231 C 
HETATM   14  N   UNL     1      -1.501   8.240 -28.831  1.00  0.00    -0.327 N 
HETATM   15  H   UNL     1      -2.148   9.018 -28.925  1.00  0.00     0.169 HD
HETATM   16  O   UNL     1      -1.145   6.102 -29.662  1.00  0.00    -0.272 OA
BRANCH  14  17
HETATM   17  C   UNL     1      -0.449   8.418 -27.915  1.00  0.00     0.034 A 
HETATM   18  C   UNL     1       0.901   8.445 -28.267  1.00  0.00     0.031 A 
HETATM   19  C   UNL     1       1.885   8.611 -27.285  1.00  0.00     0.026 A 
HETATM   20  C   UNL     1       1.521   8.756 -25.949  1.00  0.00     0.034 A 
HETATM   21 CL   UNL     1       2.730   8.962 -24.745  1.00  0.00    -0.084 Cl
HETATM   22  C   UNL     1       0.177   8.733 -25.583  1.00  0.00     0.026 A 
HETATM   23  C   UNL     1      -0.803   8.561 -26.565  1.00  0.00     0.031 A 
ENDBRANCH  14  17
ENDBRANCH  12  13
ENDBRANCH  11  12
ENDBRANCH   4  11
BRANCH   8  24
HETATM   24  C   UNL     1      -7.628   3.973 -31.818  1.00  0.00    -0.044 A 
HETATM   25  C   UNL     1      -8.921   3.428 -31.941  1.00  0.00     0.008 A 
HETATM   26  C   UNL     1      -9.752   3.785 -33.003  1.00  0.00     0.001 A 
HETATM   27  C   UNL     1      -9.300   4.681 -33.968  1.00  0.00     0.000 A 
HETATM   28  C   UNL     1      -8.020   5.221 -33.870  1.00  0.00     0.001 A 
HETATM   29  C   UNL     1      -7.186   4.870 -32.805  1.00  0.00     0.008 A 
ENDBRANCH   8  24
BRANCH   9  30
HETATM   30  C   UNL     1      -5.688   1.273 -31.598  1.00  0.00     0.255 C 
HETATM   31  N   UNL     1      -5.732   1.018 -32.953  1.00  0.00    -0.321 N 
HETATM   32  H   UNL     1      -5.948   1.762 -33.596  1.00  0.00     0.169 HD
HETATM   33  O   UNL     1      -5.904   0.428 -30.732  1.00  0.00    -0.268 OA
BRANCH  31  34
HETATM   34  C   UNL     1      -5.698  -0.280 -33.515  1.00  0.00     0.068 A 
HETATM   35  C   UNL     1      -4.545  -1.092 -33.516  1.00  0.00     0.095 A 
HETATM   36  C   UNL     1      -4.622  -2.379 -34.062  1.00  0.00     0.039 A 
HETATM   37  C   UNL     1      -5.812  -2.839 -34.633  1.00  0.00     0.003 A 
HETATM   38  C   UNL     1      -6.928  -2.009 -34.688  1.00  0.00     0.002 A 
HETATM   39  C   UNL     1      -6.866  -0.726 -34.146  1.00  0.00     0.032 A 
BRANCH  35  40
HETATM   40  O   UNL     1      -3.380  -0.514 -33.080  1.00  0.00    -0.354 OA
HETATM   41  C   UNL     1      -2.729  -1.094 -31.961  1.00  0.00     0.210 C 
ENDBRANCH  35  40
ENDBRANCH  31  34
ENDBRANCH   9  30
TORSDOF 8
ENDMDL
MODEL 9
REMARK VINA RESULT:      -8.4      3.374      9.308
REMARK  8 active torsions:
REMARK  status: ('A' for Active; 'I' for Inactive)
REMARK    1  A    between atoms: C_4  and  S_5 
REMARK    2  A    between atoms: S_5  and  C_6 
REMARK    3  A    between atoms: C_6  and  C_7 
REMARK       I    between atoms: C_7  and  N_8 
REMARK    4  A    between atoms: N_8  and  C_9 
REMARK    5  A    between atoms: C_20  and  C_21 
REMARK    6  A    between atoms: C_27  and  C_28 
REMARK       I    between atoms: C_28  and  N_29 
REMARK    7  A    between atoms: N_29  and  C_30 
REMARK    8  A    between atoms: C_31  and  O_32 
ROOT
HETATM    1  C   UNL     1      -5.399   0.686 -29.377  1.00  0.00     0.069 C 
HETATM    2  C   UNL     1      -5.542   1.945 -30.199  1.00  0.00     0.019 C 
HETATM    3  N   UNL     1      -6.045   3.044 -29.522  1.00  0.00    -0.353 N 
HETATM    4  C   UNL     1      -6.441   4.228 -30.111  1.00  0.00     0.087 C 
HETATM    5  C   UNL     1      -6.168   4.421 -31.424  1.00  0.00     0.055 C 
HETATM    6  C   UNL     1      -6.711   5.621 -32.183  1.00  0.00     0.019 C 
HETATM    7  N   UNL     1      -7.162   6.617 -32.812  1.00  0.00    -0.096 N 
HETATM    8  C   UNL     1      -5.280   3.436 -32.181  1.00  0.00     0.104 C 
HETATM    9  C   UNL     1      -5.176   2.070 -31.501  1.00  0.00     0.046 C 
HETATM   10  H   UNL     1      -6.309   2.927 -28.547  1.00  0.00     0.166 HD
ENDROOT
BRANCH   4  11
HETATM   11  S   UNL     1      -7.120   5.493 -29.115  1.00  0.00    -0.102 SA
BRANCH  11  12
HETATM   12  C   UNL     1      -5.923   6.853 -29.304  1.00  0.00     0.184 C 
BRANCH  12  13
HETATM   13  C   UNL     1      -4.720   6.722 -28.357  1.00  0.00     0.231 C 
HETATM   14  N   UNL     1      -3.535   7.243 -28.840  1.00  0.00    -0.327 N 
HETATM   15  H   UNL     1      -3.598   7.656 -29.766  1.00  0.00     0.169 HD
HETATM   16  O   UNL     1      -4.860   6.151 -27.277  1.00  0.00    -0.272 OA
BRANCH  14  17
HETATM   17  C   UNL     1      -2.278   7.314 -28.214  1.00  0.00     0.034 A 
HETATM   18  C   UNL     1      -2.075   7.166 -26.841  1.00  0.00     0.031 A 
HETATM   19  C   UNL     1      -0.787   7.268 -26.301  1.00  0.00     0.026 A 
HETATM   20  C   UNL     1       0.301   7.514 -27.133  1.00  0.00     0.034 A 
HETATM   21 CL   UNL     1       1.882   7.637 -26.469  1.00  0.00    -0.084 Cl
HETATM   22  C   UNL     1       0.115   7.662 -28.505  1.00  0.00     0.026 A 
HETATM   23  C   UNL     1      -1.172   7.565 -29.042  1.00  0.00     0.031 A 
ENDBRANCH  14  17
ENDBRANCH  12  13
ENDBRANCH  11  12
ENDBRANCH   4  11
BRANCH   8  24
HETATM   24  C   UNL     1      -3.904   4.095 -32.379  1.00  0.00    -0.044 A 
HETATM   25  C   UNL     1      -3.456   4.484 -33.657  1.00  0.00     0.008 A 
HETATM   26  C   UNL     1      -2.184   5.026 -33.836  1.00  0.00     0.001 A 
HETATM   27  C   UNL     1      -1.332   5.176 -32.746  1.00  0.00     0.000 A 
HETATM   28  C   UNL     1      -1.753   4.785 -31.476  1.00  0.00     0.001 A 
HETATM   29  C   UNL     1      -3.029   4.247 -31.291  1.00  0.00     0.008 A 
ENDBRANCH   8  24
BRANCH   9  30
HETATM   30  C   UNL     1      -4.716   0.865 -32.273  1.00  0.00     0.255 C 
HETATM   31  N   UNL     1      -5.632  -0.159 -32.394  1.00  0.00    -0.321 N 
HETATM   32  H   UNL     1      -6.403  -0.220 -31.750  1.00  0.00     0.169 HD
HETATM   33  O   UNL     1      -3.548   0.791 -32.651  1.00  0.00    -0.268 OA
BRANCH  31  34
HETATM   34  C   UNL     1      -5.462  -1.275 -33.246  1.00  0.00     0.068 A 
HETATM   35  C   UNL     1      -6.378  -1.619 -34.262  1.00  0.00     0.095 A 
HETATM   36  C   UNL     1      -6.101  -2.722 -35.080  1.00  0.00     0.039 A 
HETATM   37  C   UNL     1      -4.955  -3.493 -34.869  1.00  0.00     0.003 A 
HETATM   38  C   UNL     1      -4.088  -3.189 -33.824  1.00  0.00     0.002 A 
HETATM   39  C   UNL     1      -4.350  -2.093 -33.003  1.00  0.00     0.032 A 
BRANCH  35  40
HETATM   40  O   UNL     1      -7.551  -0.909 -34.305  1.00  0.00    -0.354 OA
HETATM   41  C   UNL     1      -7.675   0.110 -35.284  1.00  0.00     0.210 C 
ENDBRANCH  35  40
ENDBRANCH  31  34
ENDBRANCH   9  30
TORSDOF 8
ENDMDL
MODEL 10
REMARK VINA RESULT:      -8.3      3.668      7.899
REMARK  8 active torsions:
REMARK  status: ('A' for Active; 'I' for Inactive)
REMARK    1  A    between atoms: C_4  and  S_5 
REMARK    2  A    between atoms: S_5  and  C_6 
REMARK    3  A    between atoms: C_6  and  C_7 
REMARK       I    between atoms: C_7  and  N_8 
REMARK    4  A    between atoms: N_8  and  C_9 
REMARK    5  A    between atoms: C_20  and  C_21 
REMARK    6  A    between atoms: C_27  and  C_28 
REMARK       I    between atoms: C_28  and  N_29 
REMARK    7  A    between atoms: N_29  and  C_30 
REMARK    8  A    between atoms: C_31  and  O_32 
ROOT
HETATM    1  C   UNL     1      -5.249   0.731 -29.432  1.00  0.00     0.069 C 
HETATM    2  C   UNL     1      -5.307   2.002 -30.248  1.00  0.00     0.019 C 
HETATM    3  N   UNL     1      -5.727   3.131 -29.563  1.00  0.00    -0.353 N 
HETATM    4  C   UNL     1      -6.042   4.342 -30.146  1.00  0.00     0.087 C 
HETATM    5  C   UNL     1      -5.764   4.521 -31.459  1.00  0.00     0.055 C 
HETATM    6  C   UNL     1      -6.225   5.760 -32.209  1.00  0.00     0.019 C 
HETATM    7  N   UNL     1      -6.608   6.788 -32.832  1.00  0.00    -0.096 N 
HETATM    8  C   UNL     1      -4.952   3.479 -32.226  1.00  0.00     0.104 C 
HETATM    9  C   UNL     1      -4.941   2.106 -31.552  1.00  0.00     0.046 C 
HETATM   10  H   UNL     1      -5.993   3.027 -28.588  1.00  0.00     0.166 HD
ENDROOT
BRANCH   4  11
HETATM   11  S   UNL     1      -6.623   5.648 -29.140  1.00  0.00    -0.102 SA
BRANCH  11  12
HETATM   12  C   UNL     1      -8.385   5.242 -28.916  1.00  0.00     0.184 C 
BRANCH  12  13
HETATM   13  C   UNL     1      -9.169   5.250 -30.236  1.00  0.00     0.231 C 
HETATM   14  N   UNL     1      -9.523   4.003 -30.715  1.00  0.00    -0.327 N 
HETATM   15  H   UNL     1      -9.225   3.224 -30.134  1.00  0.00     0.169 HD
HETATM   16  O   UNL     1      -9.401   6.320 -30.796  1.00  0.00    -0.272 OA
BRANCH  14  17
HETATM   17  C   UNL     1     -10.265   3.671 -31.862  1.00  0.00     0.034 A 
HETATM   18  C   UNL     1     -11.650   3.805 -31.965  1.00  0.00     0.031 A 
HETATM   19  C   UNL     1     -12.311   3.434 -33.143  1.00  0.00     0.026 A 
HETATM   20  C   UNL     1     -11.587   2.933 -34.222  1.00  0.00     0.034 A 
HETATM   21 CL   UNL     1     -12.399   2.480 -35.667  1.00  0.00    -0.084 Cl
HETATM   22  C   UNL     1     -10.204   2.795 -34.133  1.00  0.00     0.026 A 
HETATM   23  C   UNL     1      -9.547   3.161 -32.955  1.00  0.00     0.031 A 
ENDBRANCH  14  17
ENDBRANCH  12  13
ENDBRANCH  11  12
ENDBRANCH   4  11
BRANCH   8  24
HETATM   24  C   UNL     1      -3.534   4.040 -32.429  1.00  0.00    -0.044 A 
HETATM   25  C   UNL     1      -2.662   4.237 -31.340  1.00  0.00     0.008 A 
HETATM   26  C   UNL     1      -1.400   4.802 -31.525  1.00  0.00     0.001 A 
HETATM   27  C   UNL     1      -0.994   5.193 -32.797  1.00  0.00     0.000 A 
HETATM   28  C   UNL     1      -1.847   5.018 -33.884  1.00  0.00     0.001 A 
HETATM   29  C   UNL     1      -3.110   4.448 -33.705  1.00  0.00     0.008 A 
ENDBRANCH   8  24
BRANCH   9  30
HETATM   30  C   UNL     1      -4.572   0.875 -32.332  1.00  0.00     0.255 C 
HETATM   31  N   UNL     1      -5.553  -0.089 -32.436  1.00  0.00    -0.321 N 
HETATM   32  H   UNL     1      -6.314  -0.102 -31.777  1.00  0.00     0.169 HD
HETATM   33  O   UNL     1      -3.419   0.728 -32.731  1.00  0.00    -0.268 OA
BRANCH  31  34
HETATM   34  C   UNL     1      -5.469  -1.213 -33.290  1.00  0.00     0.068 A 
HETATM   35  C   UNL     1      -6.439  -1.514 -34.269  1.00  0.00     0.095 A 
HETATM   36  C   UNL     1      -6.246  -2.629 -35.094  1.00  0.00     0.039 A 
HETATM   37  C   UNL     1      -5.131  -3.454 -34.925  1.00  0.00     0.003 A 
HETATM   38  C   UNL     1      -4.212  -3.190 -33.914  1.00  0.00     0.002 A 
HETATM   39  C   UNL     1      -4.389  -2.082 -33.087  1.00  0.00     0.032 A 
BRANCH  35  40
HETATM   40  O   UNL     1      -7.577  -0.749 -34.269  1.00  0.00    -0.354 OA
HETATM   41  C   UNL     1      -7.697   0.264 -35.256  1.00  0.00     0.210 C 
ENDBRANCH  35  40
ENDBRANCH  31  34
ENDBRANCH   9  30
TORSDOF 8
ENDMDL
