MODEL 1
REMARK VINA RESULT:      -8.3      0.000      0.000
REMARK  5 active torsions:
REMARK  status: ('A' for Active; 'I' for Inactive)
REMARK    1  A    between atoms: C_2  and  N_3 
REMARK       I    between atoms: N_3  and  C_4 
REMARK    2  A    between atoms: C_4  and  C_5 
REMARK    3  A    between atoms: N_8  and  C_10 
REMARK    4  A    between atoms: C_10  and  C_11 
REMARK    5  A    between atoms: C_12  and  C_13 
ROOT
HETATM    1  C   UNL     1      -4.297   4.729 -31.074  1.00  0.00     0.081 C 
HETATM    2  C   UNL     1      -4.799   3.352 -30.642  1.00  0.00     0.042 C 
HETATM    3  C   UNL     1      -5.175   2.480 -31.836  1.00  0.00     0.236 C 
HETATM    4  N   UNL     1      -6.226   3.173 -32.671  1.00  0.00    -0.067 N 
HETATM    5  H   UNL     1      -7.049   3.296 -32.072  1.00  0.00     0.280 HD
HETATM    6  C   UNL     1      -5.784   4.537 -33.153  1.00  0.00     0.236 C 
HETATM    7  C   UNL     1      -5.325   5.404 -31.987  1.00  0.00     0.042 C 
ENDROOT
BRANCH   4   8
HETATM    8  C   UNL     1      -6.673   2.331 -33.861  1.00  0.00     0.277 C 
BRANCH   8   9
HETATM    9  C   UNL     1      -7.806   1.413 -33.572  1.00  0.00     0.016 A 
HETATM   10  C   UNL     1      -7.834  -0.022 -33.562  1.00  0.00     0.096 A 
HETATM   11  N   UNL     1      -9.052  -0.460 -33.216  1.00  0.00    -0.174 NA
HETATM   12  N   UNL     1      -9.769   0.633 -32.953  1.00  0.00    -0.288 N 
HETATM   13  H   UNL     1     -10.727   0.515 -32.630  1.00  0.00     0.188 HD
HETATM   14  C   UNL     1      -9.072   1.784 -33.156  1.00  0.00     0.120 A 
BRANCH  10  15
HETATM   15  C   UNL     1      -6.768  -0.996 -33.827  1.00  0.00    -0.003 A 
HETATM   16  C   UNL     1      -7.010  -2.197 -34.502  1.00  0.00     0.037 A 
HETATM   17  C   UNL     1      -5.965  -3.092 -34.746  1.00  0.00     0.035 A 
HETATM   18 CL   UNL     1      -6.296  -4.546 -35.603  1.00  0.00    -0.084 Cl
HETATM   19  C   UNL     1      -4.674  -2.819 -34.307  1.00  0.00     0.024 A 
HETATM   20  C   UNL     1      -4.424  -1.637 -33.614  1.00  0.00     0.003 A 
HETATM   21  C   UNL     1      -5.463  -0.734 -33.377  1.00  0.00     0.014 A 
ENDBRANCH  10  15
ENDBRANCH   8   9
ENDBRANCH   4   8
BRANCH   1  22
HETATM   22  C   UNL     1      -2.946   4.568 -31.759  1.00  0.00     0.222 C 
HETATM   23  N   UNL     1      -2.719   5.457 -32.780  1.00  0.00    -0.357 N 
HETATM   24  H   UNL     1      -3.432   6.127 -33.041  1.00  0.00     0.162 HD
HETATM   25  O   UNL     1      -2.108   3.779 -31.339  1.00  0.00    -0.273 OA
BRANCH  23  26
HETATM   26  C   UNL     1      -1.421   5.566 -33.439  1.00  0.00     0.076 C 
HETATM   27  C   UNL     1      -0.874   6.983 -33.283  1.00  0.00     0.032 C 
HETATM   28  C   UNL     1      -1.542   5.189 -34.911  1.00  0.00     0.032 C 
ENDBRANCH  23  26
ENDBRANCH   1  22
TORSDOF 5
ENDMDL
MODEL 2
REMARK VINA RESULT:      -8.2      2.115      3.450
REMARK  5 active torsions:
REMARK  status: ('A' for Active; 'I' for Inactive)
REMARK    1  A    between atoms: C_2  and  N_3 
REMARK       I    between atoms: N_3  and  C_4 
REMARK    2  A    between atoms: C_4  and  C_5 
REMARK    3  A    between atoms: N_8  and  C_10 
REMARK    4  A    between atoms: C_10  and  C_11 
REMARK    5  A    between atoms: C_12  and  C_13 
ROOT
HETATM    1  C   UNL     1      -2.277   4.866 -34.225  1.00  0.00     0.081 C 
HETATM    2  C   UNL     1      -3.530   5.037 -35.083  1.00  0.00     0.042 C 
HETATM    3  C   UNL     1      -4.768   5.316 -34.235  1.00  0.00     0.236 C 
HETATM    4  N   UNL     1      -4.974   4.200 -33.239  1.00  0.00    -0.067 N 
HETATM    5  H   UNL     1      -5.123   3.342 -33.779  1.00  0.00     0.280 HD
HETATM    6  C   UNL     1      -3.776   3.991 -32.340  1.00  0.00     0.236 C 
HETATM    7  C   UNL     1      -2.508   3.790 -33.160  1.00  0.00     0.042 C 
ENDROOT
BRANCH   4   8
HETATM    8  C   UNL     1      -6.223   4.402 -32.387  1.00  0.00     0.277 C 
BRANCH   8   9
HETATM    9  C   UNL     1      -6.443   3.351 -31.361  1.00  0.00     0.016 A 
HETATM   10  C   UNL     1      -6.628   1.937 -31.532  1.00  0.00     0.096 A 
HETATM   11  N   UNL     1      -6.760   1.339 -30.340  1.00  0.00    -0.174 NA
HETATM   12  N   UNL     1      -6.608   2.303 -29.432  1.00  0.00    -0.288 N 
HETATM   13  H   UNL     1      -6.635   2.047 -28.447  1.00  0.00     0.188 HD
HETATM   14  C   UNL     1      -6.420   3.530 -29.989  1.00  0.00     0.120 A 
BRANCH  10  15
HETATM   15  C   UNL     1      -6.653   1.122 -32.752  1.00  0.00    -0.003 A 
HETATM   16  C   UNL     1      -5.798   0.031 -32.935  1.00  0.00     0.037 A 
HETATM   17  C   UNL     1      -5.862  -0.728 -34.106  1.00  0.00     0.035 A 
HETATM   18 CL   UNL     1      -4.813  -2.080 -34.284  1.00  0.00    -0.084 Cl
HETATM   19  C   UNL     1      -6.760  -0.404 -35.118  1.00  0.00     0.024 A 
HETATM   20  C   UNL     1      -7.602   0.694 -34.959  1.00  0.00     0.003 A 
HETATM   21  C   UNL     1      -7.548   1.449 -33.784  1.00  0.00     0.014 A 
ENDBRANCH  10  15
ENDBRANCH   8   9
ENDBRANCH   4   8
BRANCH   1  22
HETATM   22  C   UNL     1      -1.915   6.210 -33.607  1.00  0.00     0.222 C 
HETATM   23  N   UNL     1      -1.358   6.127 -32.356  1.00  0.00    -0.357 N 
HETATM   24  H   UNL     1      -1.245   5.226 -31.906  1.00  0.00     0.162 HD
HETATM   25  O   UNL     1      -2.018   7.253 -34.243  1.00  0.00    -0.273 OA
BRANCH  23  26
HETATM   26  C   UNL     1      -0.795   7.291 -31.678  1.00  0.00     0.076 C 
HETATM   27  C   UNL     1       0.518   6.914 -30.996  1.00  0.00     0.032 C 
HETATM   28  C   UNL     1      -1.792   7.849 -30.669  1.00  0.00     0.032 C 
ENDBRANCH  23  26
ENDBRANCH   1  22
TORSDOF 5
ENDMDL
MODEL 3
REMARK VINA RESULT:      -8.2      1.719      2.367
REMARK  5 active torsions:
REMARK  status: ('A' for Active; 'I' for Inactive)
REMARK    1  A    between atoms: C_2  and  N_3 
REMARK       I    between atoms: N_3  and  C_4 
REMARK    2  A    between atoms: C_4  and  C_5 
REMARK    3  A    between atoms: N_8  and  C_10 
REMARK    4  A    between atoms: C_10  and  C_11 
REMARK    5  A    between atoms: C_12  and  C_13 
ROOT
HETATM    1  C   UNL     1      -5.438   2.405 -30.077  1.00  0.00     0.081 C 
HETATM    2  C   UNL     1      -5.552   0.945 -29.638  1.00  0.00     0.042 C 
HETATM    3  C   UNL     1      -6.416   0.128 -30.595  1.00  0.00     0.236 C 
HETATM    4  N   UNL     1      -7.791   0.742 -30.703  1.00  0.00    -0.067 N 
HETATM    5  H   UNL     1      -8.206   0.712 -29.766  1.00  0.00     0.280 HD
HETATM    6  C   UNL     1      -7.752   2.184 -31.156  1.00  0.00     0.236 C 
HETATM    7  C   UNL     1      -6.832   3.011 -30.266  1.00  0.00     0.042 C 
ENDROOT
BRANCH   4   8
HETATM    8  C   UNL     1      -8.715  -0.056 -31.616  1.00  0.00     0.277 C 
BRANCH   8   9
HETATM    9  C   UNL     1      -8.725   0.402 -33.030  1.00  0.00     0.016 A 
HETATM   10  C   UNL     1      -7.883   0.001 -34.122  1.00  0.00     0.096 A 
HETATM   11  N   UNL     1      -8.248   0.633 -35.246  1.00  0.00    -0.174 NA
HETATM   12  N   UNL     1      -9.315   1.364 -34.920  1.00  0.00    -0.288 N 
HETATM   13  H   UNL     1      -9.776   1.898 -35.654  1.00  0.00     0.188 HD
HETATM   14  C   UNL     1      -9.641   1.267 -33.603  1.00  0.00     0.120 A 
BRANCH  10  15
HETATM   15  C   UNL     1      -6.780  -0.966 -34.167  1.00  0.00    -0.003 A 
HETATM   16  C   UNL     1      -6.962  -2.282 -34.603  1.00  0.00     0.037 A 
HETATM   17  C   UNL     1      -5.883  -3.168 -34.643  1.00  0.00     0.035 A 
HETATM   18 CL   UNL     1      -6.140  -4.771 -35.211  1.00  0.00    -0.084 Cl
HETATM   19  C   UNL     1      -4.615  -2.768 -34.234  1.00  0.00     0.024 A 
HETATM   20  C   UNL     1      -4.424  -1.467 -33.776  1.00  0.00     0.003 A 
HETATM   21  C   UNL     1      -5.498  -0.573 -33.745  1.00  0.00     0.014 A 
ENDBRANCH  10  15
ENDBRANCH   8   9
ENDBRANCH   4   8
BRANCH   1  22
HETATM   22  C   UNL     1      -4.609   2.472 -31.354  1.00  0.00     0.222 C 
HETATM   23  N   UNL     1      -4.707   3.662 -32.030  1.00  0.00    -0.357 N 
HETATM   24  H   UNL     1      -5.317   4.395 -31.688  1.00  0.00     0.162 HD
HETATM   25  O   UNL     1      -3.843   1.568 -31.665  1.00  0.00    -0.273 OA
BRANCH  23  26
HETATM   26  C   UNL     1      -3.861   3.973 -33.179  1.00  0.00     0.076 C 
HETATM   27  C   UNL     1      -2.567   4.634 -32.710  1.00  0.00     0.032 C 
HETATM   28  C   UNL     1      -4.607   4.872 -34.158  1.00  0.00     0.032 C 
ENDBRANCH  23  26
ENDBRANCH   1  22
TORSDOF 5
ENDMDL
MODEL 4
REMARK VINA RESULT:      -8.1      2.202      2.859
REMARK  5 active torsions:
REMARK  status: ('A' for Active; 'I' for Inactive)
REMARK    1  A    between atoms: C_2  and  N_3 
REMARK       I    between atoms: N_3  and  C_4 
REMARK    2  A    between atoms: C_4  and  C_5 
REMARK    3  A    between atoms: N_8  and  C_10 
REMARK    4  A    between atoms: C_10  and  C_11 
REMARK    5  A    between atoms: C_12  and  C_13 
ROOT
HETATM    1  C   UNL     1      -3.093   5.032 -32.827  1.00  0.00     0.081 C 
HETATM    2  C   UNL     1      -4.577   5.395 -32.782  1.00  0.00     0.042 C 
HETATM    3  C   UNL     1      -5.291   4.731 -31.608  1.00  0.00     0.236 C 
HETATM    4  N   UNL     1      -5.130   3.232 -31.687  1.00  0.00    -0.067 N 
HETATM    5  H   UNL     1      -5.570   2.930 -32.562  1.00  0.00     0.280 HD
HETATM    6  C   UNL     1      -3.681   2.800 -31.712  1.00  0.00     0.236 C 
HETATM    7  C   UNL     1      -2.921   3.510 -32.826  1.00  0.00     0.042 C 
ENDROOT
BRANCH   4   8
HETATM    8  C   UNL     1      -5.858   2.508 -30.559  1.00  0.00     0.277 C 
BRANCH   8   9
HETATM    9  C   UNL     1      -7.202   1.992 -30.929  1.00  0.00     0.016 A 
HETATM   10  C   UNL     1      -7.550   0.870 -31.754  1.00  0.00     0.096 A 
HETATM   11  N   UNL     1      -8.882   0.727 -31.804  1.00  0.00    -0.174 NA
HETATM   12  N   UNL     1      -9.378   1.670 -31.003  1.00  0.00    -0.288 N 
HETATM   13  H   UNL     1     -10.387   1.708 -30.870  1.00  0.00     0.188 HD
HETATM   14  C   UNL     1      -8.416   2.461 -30.456  1.00  0.00     0.120 A 
BRANCH  10  15
HETATM   15  C   UNL     1      -6.697  -0.089 -32.465  1.00  0.00    -0.003 A 
HETATM   16  C   UNL     1      -5.487  -0.544 -31.934  1.00  0.00     0.037 A 
HETATM   17  C   UNL     1      -4.710  -1.467 -32.638  1.00  0.00     0.035 A 
HETATM   18 CL   UNL     1      -3.240  -2.026 -31.940  1.00  0.00    -0.084 Cl
HETATM   19  C   UNL     1      -5.112  -1.936 -33.885  1.00  0.00     0.024 A 
HETATM   20  C   UNL     1      -6.304  -1.473 -34.436  1.00  0.00     0.003 A 
HETATM   21  C   UNL     1      -7.090  -0.558 -33.730  1.00  0.00     0.014 A 
ENDBRANCH  10  15
ENDBRANCH   8   9
ENDBRANCH   4   8
BRANCH   1  22
HETATM   22  C   UNL     1      -2.389   5.686 -31.646  1.00  0.00     0.222 C 
HETATM   23  N   UNL     1      -1.123   5.212 -31.407  1.00  0.00    -0.357 N 
HETATM   24  H   UNL     1      -0.742   4.467 -31.977  1.00  0.00     0.162 HD
HETATM   25  O   UNL     1      -2.890   6.631 -31.047  1.00  0.00    -0.273 OA
BRANCH  23  26
HETATM   26  C   UNL     1      -0.235   5.831 -30.428  1.00  0.00     0.076 C 
HETATM   27  C   UNL     1       0.602   6.919 -31.096  1.00  0.00     0.032 C 
HETATM   28  C   UNL     1       0.658   4.777 -29.783  1.00  0.00     0.032 C 
ENDBRANCH  23  26
ENDBRANCH   1  22
TORSDOF 5
ENDMDL
MODEL 5
REMARK VINA RESULT:      -8.0      3.972      7.159
REMARK  5 active torsions:
REMARK  status: ('A' for Active; 'I' for Inactive)
REMARK    1  A    between atoms: C_2  and  N_3 
REMARK       I    between atoms: N_3  and  C_4 
REMARK    2  A    between atoms: C_4  and  C_5 
REMARK    3  A    between atoms: N_8  and  C_10 
REMARK    4  A    between atoms: C_10  and  C_11 
REMARK    5  A    between atoms: C_12  and  C_13 
ROOT
HETATM    1  C   UNL     1      -9.483   2.124 -32.624  1.00  0.00     0.081 C 
HETATM    2  C   UNL     1      -8.276   2.560 -33.455  1.00  0.00     0.042 C 
HETATM    3  C   UNL     1      -7.902   1.520 -34.507  1.00  0.00     0.236 C 
HETATM    4  N   UNL     1      -7.619   0.193 -33.843  1.00  0.00    -0.067 N 
HETATM    5  H   UNL     1      -6.821   0.338 -33.216  1.00  0.00     0.280 HD
HETATM    6  C   UNL     1      -8.783  -0.309 -33.021  1.00  0.00     0.236 C 
HETATM    7  C   UNL     1      -9.233   0.742 -32.014  1.00  0.00     0.042 C 
ENDROOT
BRANCH   4   8
HETATM    8  C   UNL     1      -7.198  -0.880 -34.843  1.00  0.00     0.277 C 
BRANCH   8   9
HETATM    9  C   UNL     1      -5.987  -1.644 -34.448  1.00  0.00     0.016 A 
HETATM   10  C   UNL     1      -5.055  -1.389 -33.386  1.00  0.00     0.096 A 
HETATM   11  N   UNL     1      -4.117  -2.345 -33.351  1.00  0.00    -0.174 NA
HETATM   12  N   UNL     1      -4.452  -3.216 -34.304  1.00  0.00    -0.288 N 
HETATM   13  H   UNL     1      -3.880  -4.050 -34.418  1.00  0.00     0.188 HD
HETATM   14  C   UNL     1      -5.562  -2.842 -34.997  1.00  0.00     0.120 A 
BRANCH  10  15
HETATM   15  C   UNL     1      -5.023  -0.314 -32.387  1.00  0.00    -0.003 A 
HETATM   16  C   UNL     1      -4.267   0.848 -32.569  1.00  0.00     0.037 A 
HETATM   17  C   UNL     1      -4.274   1.853 -31.598  1.00  0.00     0.035 A 
HETATM   18 CL   UNL     1      -3.354   3.281 -31.869  1.00  0.00    -0.084 Cl
HETATM   19  C   UNL     1      -5.013   1.711 -30.428  1.00  0.00     0.024 A 
HETATM   20  C   UNL     1      -5.752   0.548 -30.224  1.00  0.00     0.003 A 
HETATM   21  C   UNL     1      -5.757  -0.455 -31.197  1.00  0.00     0.014 A 
ENDBRANCH  10  15
ENDBRANCH   8   9
ENDBRANCH   4   8
BRANCH   1  22
HETATM   22  C   UNL     1     -10.722   2.140 -33.509  1.00  0.00     0.222 C 
HETATM   23  N   UNL     1     -11.714   1.280 -33.111  1.00  0.00    -0.357 N 
HETATM   24  H   UNL     1     -11.577   0.680 -32.306  1.00  0.00     0.162 HD
HETATM   25  O   UNL     1     -10.842   2.945 -34.426  1.00  0.00    -0.273 OA
BRANCH  23  26
HETATM   26  C   UNL     1     -13.035   1.276 -33.733  1.00  0.00     0.076 C 
HETATM   27  C   UNL     1     -13.966   2.228 -32.985  1.00  0.00     0.032 C 
HETATM   28  C   UNL     1     -13.606  -0.136 -33.756  1.00  0.00     0.032 C 
ENDBRANCH  23  26
ENDBRANCH   1  22
TORSDOF 5
ENDMDL
MODEL 6
REMARK VINA RESULT:      -7.9      3.249      6.482
REMARK  5 active torsions:
REMARK  status: ('A' for Active; 'I' for Inactive)
REMARK    1  A    between atoms: C_2  and  N_3 
REMARK       I    between atoms: N_3  and  C_4 
REMARK    2  A    between atoms: C_4  and  C_5 
REMARK    3  A    between atoms: N_8  and  C_10 
REMARK    4  A    between atoms: C_10  and  C_11 
REMARK    5  A    between atoms: C_12  and  C_13 
ROOT
HETATM    1  C   UNL     1     -10.050   2.912 -32.172  1.00  0.00     0.081 C 
HETATM    2  C   UNL     1      -9.145   4.044 -32.660  1.00  0.00     0.042 C 
HETATM    3  C   UNL     1      -7.976   3.522 -33.490  1.00  0.00     0.236 C 
HETATM    4  N   UNL     1      -7.172   2.530 -32.685  1.00  0.00    -0.067 N 
HETATM    5  H   UNL     1      -6.806   3.034 -31.871  1.00  0.00     0.280 HD
HETATM    6  C   UNL     1      -8.003   1.369 -32.189  1.00  0.00     0.236 C 
HETATM    7  C   UNL     1      -9.225   1.862 -31.423  1.00  0.00     0.042 C 
ENDROOT
BRANCH   4   8
HETATM    8  C   UNL     1      -5.963   2.002 -33.451  1.00  0.00     0.277 C 
BRANCH   8   9
HETATM    9  C   UNL     1      -4.893   1.434 -32.591  1.00  0.00     0.016 A 
HETATM   10  C   UNL     1      -4.390   0.090 -32.533  1.00  0.00     0.096 A 
HETATM   11  N   UNL     1      -3.393   0.006 -31.641  1.00  0.00    -0.174 NA
HETATM   12  N   UNL     1      -3.212   1.244 -31.182  1.00  0.00    -0.288 N 
HETATM   13  H   UNL     1      -2.463   1.406 -30.512  1.00  0.00     0.188 HD
HETATM   14  C   UNL     1      -4.087   2.140 -31.714  1.00  0.00     0.120 A 
BRANCH  10  15
HETATM   15  C   UNL     1      -4.775  -1.104 -33.295  1.00  0.00    -0.003 A 
HETATM   16  C   UNL     1      -3.989  -2.260 -33.312  1.00  0.00     0.037 A 
HETATM   17  C   UNL     1      -4.398  -3.380 -34.040  1.00  0.00     0.035 A 
HETATM   18 CL   UNL     1      -3.420  -4.795 -34.015  1.00  0.00    -0.084 Cl
HETATM   19  C   UNL     1      -5.578  -3.361 -34.776  1.00  0.00     0.024 A 
HETATM   20  C   UNL     1      -6.358  -2.208 -34.787  1.00  0.00     0.003 A 
HETATM   21  C   UNL     1      -5.959  -1.089 -34.051  1.00  0.00     0.014 A 
ENDBRANCH  10  15
ENDBRANCH   8   9
ENDBRANCH   4   8
BRANCH   1  22
HETATM   22  C   UNL     1     -10.781   2.316 -33.368  1.00  0.00     0.222 C 
HETATM   23  N   UNL     1     -11.770   1.423 -33.039  1.00  0.00    -0.357 N 
HETATM   24  H   UNL     1     -11.944   1.188 -32.070  1.00  0.00     0.162 HD
HETATM   25  O   UNL     1     -10.560   2.703 -34.509  1.00  0.00    -0.273 OA
BRANCH  23  26
HETATM   26  C   UNL     1     -12.686   0.879 -34.037  1.00  0.00     0.076 C 
HETATM   27  C   UNL     1     -13.865   1.829 -34.237  1.00  0.00     0.032 C 
HETATM   28  C   UNL     1     -13.168  -0.504 -33.614  1.00  0.00     0.032 C 
ENDBRANCH  23  26
ENDBRANCH   1  22
TORSDOF 5
ENDMDL
MODEL 7
REMARK VINA RESULT:      -7.9      3.206      7.006
REMARK  5 active torsions:
REMARK  status: ('A' for Active; 'I' for Inactive)
REMARK    1  A    between atoms: C_2  and  N_3 
REMARK       I    between atoms: N_3  and  C_4 
REMARK    2  A    between atoms: C_4  and  C_5 
REMARK    3  A    between atoms: N_8  and  C_10 
REMARK    4  A    between atoms: C_10  and  C_11 
REMARK    5  A    between atoms: C_12  and  C_13 
ROOT
HETATM    1  C   UNL     1      -4.942  -0.432 -31.701  1.00  0.00     0.081 C 
HETATM    2  C   UNL     1      -6.424  -0.290 -32.050  1.00  0.00     0.042 C 
HETATM    3  C   UNL     1      -6.646   0.666 -33.218  1.00  0.00     0.236 C 
HETATM    4  N   UNL     1      -6.061   2.021 -32.895  1.00  0.00    -0.067 N 
HETATM    5  H   UNL     1      -6.561   2.373 -32.073  1.00  0.00     0.280 HD
HETATM    6  C   UNL     1      -4.587   1.956 -32.562  1.00  0.00     0.236 C 
HETATM    7  C   UNL     1      -4.324   0.947 -31.451  1.00  0.00     0.042 C 
ENDROOT
BRANCH   4   8
HETATM    8  C   UNL     1      -6.288   3.034 -34.012  1.00  0.00     0.277 C 
BRANCH   8   9
HETATM    9  C   UNL     1      -6.443   4.436 -33.546  1.00  0.00     0.016 A 
HETATM   10  C   UNL     1      -5.438   5.436 -33.319  1.00  0.00     0.096 A 
HETATM   11  N   UNL     1      -6.006   6.586 -32.933  1.00  0.00    -0.174 NA
HETATM   12  N   UNL     1      -7.322   6.369 -32.964  1.00  0.00    -0.288 N 
HETATM   13  H   UNL     1      -7.944   7.142 -32.739  1.00  0.00     0.188 HD
HETATM   14  C   UNL     1      -7.640   5.095 -33.320  1.00  0.00     0.120 A 
BRANCH  10  15
HETATM   15  C   UNL     1      -3.980   5.373 -33.478  1.00  0.00    -0.003 A 
HETATM   16  C   UNL     1      -3.113   5.358 -32.382  1.00  0.00     0.037 A 
HETATM   17  C   UNL     1      -1.731   5.284 -32.577  1.00  0.00     0.035 A 
HETATM   18 CL   UNL     1      -0.696   5.239 -31.204  1.00  0.00    -0.084 Cl
HETATM   19  C   UNL     1      -1.192   5.246 -33.859  1.00  0.00     0.024 A 
HETATM   20  C   UNL     1      -2.043   5.283 -34.960  1.00  0.00     0.003 A 
HETATM   21  C   UNL     1      -3.427   5.346 -34.770  1.00  0.00     0.014 A 
ENDBRANCH  10  15
ENDBRANCH   8   9
ENDBRANCH   4   8
BRANCH   1  22
HETATM   22  C   UNL     1      -4.239  -1.175 -32.829  1.00  0.00     0.222 C 
HETATM   23  N   UNL     1      -4.834  -2.361 -33.182  1.00  0.00    -0.357 N 
HETATM   24  H   UNL     1      -5.653  -2.689 -32.686  1.00  0.00     0.162 HD
HETATM   25  O   UNL     1      -3.292  -0.680 -33.427  1.00  0.00    -0.273 OA
BRANCH  23  26
HETATM   26  C   UNL     1      -4.403  -3.127 -34.348  1.00  0.00     0.076 C 
HETATM   27  C   UNL     1      -5.603  -3.440 -35.239  1.00  0.00     0.032 C 
HETATM   28  C   UNL     1      -3.702  -4.408 -33.910  1.00  0.00     0.032 C 
ENDBRANCH  23  26
ENDBRANCH   1  22
TORSDOF 5
ENDMDL
MODEL 8
REMARK VINA RESULT:      -7.6      4.845      7.393
REMARK  5 active torsions:
REMARK  status: ('A' for Active; 'I' for Inactive)
REMARK    1  A    between atoms: C_2  and  N_3 
REMARK       I    between atoms: N_3  and  C_4 
REMARK    2  A    between atoms: C_4  and  C_5 
REMARK    3  A    between atoms: N_8  and  C_10 
REMARK    4  A    between atoms: C_10  and  C_11 
REMARK    5  A    between atoms: C_12  and  C_13 
ROOT
HETATM    1  C   UNL     1     -13.099   2.740 -35.033  1.00  0.00     0.081 C 
HETATM    2  C   UNL     1     -12.322   1.452 -35.301  1.00  0.00     0.042 C 
HETATM    3  C   UNL     1     -11.006   1.408 -34.531  1.00  0.00     0.236 C 
HETATM    4  N   UNL     1     -10.158   2.605 -34.889  1.00  0.00    -0.067 N 
HETATM    5  H   UNL     1      -9.961   2.541 -35.893  1.00  0.00     0.280 HD
HETATM    6  C   UNL     1     -10.860   3.919 -34.627  1.00  0.00     0.236 C 
HETATM    7  C   UNL     1     -12.216   3.959 -35.319  1.00  0.00     0.042 C 
ENDROOT
BRANCH   4   8
HETATM    8  C   UNL     1      -8.808   2.596 -34.179  1.00  0.00     0.277 C 
BRANCH   8   9
HETATM    9  C   UNL     1      -8.842   2.030 -32.806  1.00  0.00     0.016 A 
HETATM   10  C   UNL     1      -8.169   0.875 -32.281  1.00  0.00     0.096 A 
HETATM   11  N   UNL     1      -8.442   0.731 -30.977  1.00  0.00    -0.174 NA
HETATM   12  N   UNL     1      -9.207   1.773 -30.650  1.00  0.00    -0.288 N 
HETATM   13  H   UNL     1      -9.497   1.873 -29.680  1.00  0.00     0.188 HD
HETATM   14  C   UNL     1      -9.482   2.581 -31.710  1.00  0.00     0.120 A 
BRANCH  10  15
HETATM   15  C   UNL     1      -7.259  -0.074 -32.934  1.00  0.00    -0.003 A 
HETATM   16  C   UNL     1      -5.952  -0.282 -32.482  1.00  0.00     0.037 A 
HETATM   17  C   UNL     1      -5.122  -1.205 -33.124  1.00  0.00     0.035 A 
HETATM   18 CL   UNL     1      -3.530  -1.455 -32.522  1.00  0.00    -0.084 Cl
HETATM   19  C   UNL     1      -5.569  -1.917 -34.232  1.00  0.00     0.024 A 
HETATM   20  C   UNL     1      -6.860  -1.703 -34.706  1.00  0.00     0.003 A 
HETATM   21  C   UNL     1      -7.698  -0.789 -34.061  1.00  0.00     0.014 A 
ENDBRANCH  10  15
ENDBRANCH   8   9
ENDBRANCH   4   8
BRANCH   1  22
HETATM   22  C   UNL     1     -13.600   2.724 -33.595  1.00  0.00     0.222 C 
HETATM   23  N   UNL     1     -13.924   3.960 -33.094  1.00  0.00    -0.357 N 
HETATM   24  H   UNL     1     -13.794   4.790 -33.660  1.00  0.00     0.162 HD
HETATM   25  O   UNL     1     -13.794   1.671 -32.999  1.00  0.00    -0.273 OA
BRANCH  23  26
HETATM   26  C   UNL     1     -14.575   4.126 -31.798  1.00  0.00     0.076 C 
HETATM   27  C   UNL     1     -15.502   5.339 -31.831  1.00  0.00     0.032 C 
HETATM   28  C   UNL     1     -13.533   4.268 -30.696  1.00  0.00     0.032 C 
ENDBRANCH  23  26
ENDBRANCH   1  22
TORSDOF 5
ENDMDL
MODEL 9
REMARK VINA RESULT:      -7.5      2.276      4.168
REMARK  5 active torsions:
REMARK  status: ('A' for Active; 'I' for Inactive)
REMARK    1  A    between atoms: C_2  and  N_3 
REMARK       I    between atoms: N_3  and  C_4 
REMARK    2  A    between atoms: C_4  and  C_5 
REMARK    3  A    between atoms: N_8  and  C_10 
REMARK    4  A    between atoms: C_10  and  C_11 
REMARK    5  A    between atoms: C_12  and  C_13 
ROOT
HETATM    1  C   UNL     1      -1.168   5.998 -32.952  1.00  0.00     0.081 C 
HETATM    2  C   UNL     1      -2.184   7.137 -33.035  1.00  0.00     0.042 C 
HETATM    3  C   UNL     1      -3.556   6.715 -32.519  1.00  0.00     0.236 C 
HETATM    4  N   UNL     1      -4.057   5.522 -33.297  1.00  0.00    -0.067 N 
HETATM    5  H   UNL     1      -4.142   5.818 -34.275  1.00  0.00     0.280 HD
HETATM    6  C   UNL     1      -3.107   4.347 -33.239  1.00  0.00     0.236 C 
HETATM    7  C   UNL     1      -1.705   4.757 -33.672  1.00  0.00     0.042 C 
ENDROOT
BRANCH   4   8
HETATM    8  C   UNL     1      -5.446   5.078 -32.853  1.00  0.00     0.277 C 
BRANCH   8   9
HETATM    9  C   UNL     1      -5.456   4.203 -31.651  1.00  0.00     0.016 A 
HETATM   10  C   UNL     1      -5.662   2.785 -31.560  1.00  0.00     0.096 A 
HETATM   11  N   UNL     1      -5.557   2.382 -30.286  1.00  0.00    -0.174 NA
HETATM   12  N   UNL     1      -5.237   3.471 -29.587  1.00  0.00    -0.288 N 
HETATM   13  H   UNL     1      -5.071   3.371 -28.588  1.00  0.00     0.188 HD
HETATM   14  C   UNL     1      -5.169   4.593 -30.355  1.00  0.00     0.120 A 
BRANCH  10  15
HETATM   15  C   UNL     1      -5.919   1.792 -32.609  1.00  0.00    -0.003 A 
HETATM   16  C   UNL     1      -5.136   0.642 -32.752  1.00  0.00     0.037 A 
HETATM   17  C   UNL     1      -5.421  -0.286 -33.757  1.00  0.00     0.035 A 
HETATM   18 CL   UNL     1      -4.453  -1.702 -33.884  1.00  0.00    -0.084 Cl
HETATM   19  C   UNL     1      -6.473  -0.077 -34.643  1.00  0.00     0.024 A 
HETATM   20  C   UNL     1      -7.246   1.075 -34.527  1.00  0.00     0.003 A 
HETATM   21  C   UNL     1      -6.971   2.001 -33.517  1.00  0.00     0.014 A 
ENDBRANCH  10  15
ENDBRANCH   8   9
ENDBRANCH   4   8
BRANCH   1  22
HETATM   22  C   UNL     1      -0.859   5.718 -31.487  1.00  0.00     0.222 C 
HETATM   23  N   UNL     1      -0.619   6.840 -30.734  1.00  0.00    -0.357 N 
HETATM   24  H   UNL     1      -0.626   7.756 -31.166  1.00  0.00     0.162 HD
HETATM   25  O   UNL     1      -0.937   4.586 -31.024  1.00  0.00    -0.273 OA
BRANCH  23  26
HETATM   26  C   UNL     1      -0.471   6.783 -29.283  1.00  0.00     0.076 C 
HETATM   27  C   UNL     1      -1.779   7.192 -28.609  1.00  0.00     0.032 C 
HETATM   28  C   UNL     1       0.676   7.679 -28.832  1.00  0.00     0.032 C 
ENDBRANCH  23  26
ENDBRANCH   1  22
TORSDOF 5
ENDMDL
MODEL 10
REMARK VINA RESULT:      -7.5      2.121      3.109
REMARK  5 active torsions:
REMARK  status: ('A' for Active; 'I' for Inactive)
REMARK    1  A    between atoms: C_2  and  N_3 
REMARK       I    between atoms: N_3  and  C_4 
REMARK    2  A    between atoms: C_4  and  C_5 
REMARK    3  A    between atoms: N_8  and  C_10 
REMARK    4  A    between atoms: C_10  and  C_11 
REMARK    5  A    between atoms: C_12  and  C_13 
ROOT
HETATM    1  C   UNL     1      -3.304   4.196 -31.681  1.00  0.00     0.081 C 
HETATM    2  C   UNL     1      -3.483   4.141 -33.198  1.00  0.00     0.042 C 
HETATM    3  C   UNL     1      -4.953   4.207 -33.601  1.00  0.00     0.236 C 
HETATM    4  N   UNL     1      -5.719   3.079 -32.951  1.00  0.00    -0.067 N 
HETATM    5  H   UNL     1      -5.314   2.204 -33.299  1.00  0.00     0.280 HD
HETATM    6  C   UNL     1      -5.603   3.087 -31.443  1.00  0.00     0.236 C 
HETATM    7  C   UNL     1      -4.142   3.104 -31.010  1.00  0.00     0.042 C 
ENDROOT
BRANCH   4   8
HETATM    8  C   UNL     1      -7.191   3.068 -33.350  1.00  0.00     0.277 C 
BRANCH   8   9
HETATM    9  C   UNL     1      -8.038   2.151 -32.544  1.00  0.00     0.016 A 
HETATM   10  C   UNL     1      -7.934   0.729 -32.375  1.00  0.00     0.096 A 
HETATM   11  N   UNL     1      -8.879   0.291 -31.532  1.00  0.00    -0.174 NA
HETATM   12  N   UNL     1      -9.531   1.380 -31.122  1.00  0.00    -0.288 N 
HETATM   13  H   UNL     1     -10.274   1.267 -30.436  1.00  0.00     0.188 HD
HETATM   14  C   UNL     1      -9.071   2.522 -31.701  1.00  0.00     0.120 A 
BRANCH  10  15
HETATM   15  C   UNL     1      -6.974  -0.229 -32.938  1.00  0.00    -0.003 A 
HETATM   16  C   UNL     1      -5.768  -0.533 -32.301  1.00  0.00     0.037 A 
HETATM   17  C   UNL     1      -4.887  -1.461 -32.864  1.00  0.00     0.035 A 
HETATM   18 CL   UNL     1      -3.425  -1.831 -32.037  1.00  0.00    -0.084 Cl
HETATM   19  C   UNL     1      -5.181  -2.081 -34.073  1.00  0.00     0.024 A 
HETATM   20  C   UNL     1      -6.369  -1.770 -34.730  1.00  0.00     0.003 A 
HETATM   21  C   UNL     1      -7.258  -0.851 -34.166  1.00  0.00     0.014 A 
ENDBRANCH  10  15
ENDBRANCH   8   9
ENDBRANCH   4   8
BRANCH   1  22
HETATM   22  C   UNL     1      -3.683   5.588 -31.190  1.00  0.00     0.222 C 
HETATM   23  N   UNL     1      -4.013   5.648 -29.859  1.00  0.00    -0.357 N 
HETATM   24  H   UNL     1      -4.020   4.806 -29.296  1.00  0.00     0.162 HD
HETATM   25  O   UNL     1      -3.584   6.570 -31.916  1.00  0.00    -0.273 OA
BRANCH  23  26
HETATM   26  C   UNL     1      -4.240   6.917 -29.173  1.00  0.00     0.076 C 
HETATM   27  C   UNL     1      -2.986   7.326 -28.405  1.00  0.00     0.032 C 
HETATM   28  C   UNL     1      -5.439   6.807 -28.239  1.00  0.00     0.032 C 
ENDBRANCH  23  26
ENDBRANCH   1  22
TORSDOF 5
ENDMDL
