MODEL 1
REMARK VINA RESULT:      -9.9      0.000      0.000
REMARK  5 active torsions:
REMARK  status: ('A' for Active; 'I' for Inactive)
REMARK    1  A    between atoms: C_4  and  C_5 
REMARK       I    between atoms: C_5  and  N_6 
REMARK    2  A    between atoms: C_9  and  C_10 
REMARK    3  A    between atoms: C_10  and  C_11 
REMARK    4  A    between atoms: N_20  and  C_21 
REMARK    5  A    between atoms: C_21  and  C_22 
ROOT
HETATM    1  C   UNL     1      -7.363   2.518 -31.709  1.00  0.00     0.148 A 
HETATM    2  N   UNL     1      -6.734   2.751 -33.005  1.00  0.00    -0.320 N 
HETATM    3  C   UNL     1      -6.901   1.712 -33.887  1.00  0.00     0.326 A 
HETATM    4  O   UNL     1      -6.526   1.740 -35.046  1.00  0.00    -0.247 OA
HETATM    5  N   UNL     1      -7.498   0.687 -33.236  1.00  0.00    -0.263 N 
HETATM    6  C   UNL     1      -7.775   1.039 -31.949  1.00  0.00     0.262 A 
HETATM    7  O   UNL     1      -8.272   0.290 -31.117  1.00  0.00    -0.270 OA
HETATM    8  H   UNL     1      -6.429   3.649 -33.360  1.00  0.00     0.166 HD
ENDROOT
BRANCH   1   9
HETATM    9  C   UNL     1      -6.314   2.725 -30.563  1.00  0.00     0.031 C 
HETATM   10  C   UNL     1      -4.955   2.019 -30.741  1.00  0.00     0.028 C 
HETATM   11  C   UNL     1      -3.906   2.791 -31.537  1.00  0.00     0.126 C 
HETATM   12  N   UNL     1      -3.791   4.202 -31.159  1.00  0.00    -0.350 N 
HETATM   13  C   UNL     1      -2.618   4.842 -31.579  1.00  0.00     0.251 C 
HETATM   14  C   UNL     1      -5.046   4.930 -30.984  1.00  0.00     0.126 C 
HETATM   15  O   UNL     1      -1.739   4.246 -32.206  1.00  0.00    -0.271 OA
HETATM   16  C   UNL     1      -6.062   4.183 -30.133  1.00  0.00     0.028 C 
BRANCH  13  17
HETATM   17  C   UNL     1      -2.403   6.329 -31.179  1.00  0.00     0.279 C 
HETATM   18  N   UNL     1      -1.532   7.158 -32.158  1.00  0.00    -0.062 N 
HETATM   19  C   UNL     1      -2.126   7.220 -33.540  1.00  0.00     0.270 C 
HETATM   20  H   UNL     1      -1.539   8.122 -31.803  1.00  0.00     0.280 HD
HETATM   21  C   UNL     1      -0.083   6.728 -32.198  1.00  0.00     0.235 C 
HETATM   22  C   UNL     1       0.510   6.799 -30.800  1.00  0.00     0.028 C 
HETATM   23  C   UNL     1      -0.302   6.003 -29.788  1.00  0.00     0.004 C 
HETATM   24  C   UNL     1      -1.768   6.432 -29.787  1.00  0.00     0.043 C 
ENDBRANCH  13  17
ENDBRANCH   1   9
BRANCH   1  25
HETATM   25  C   UNL     1      -8.550   3.471 -31.572  1.00  0.00    -0.003 A 
HETATM   26  C   UNL     1      -8.790   4.520 -32.459  1.00  0.00     0.126 A 
HETATM   27  N   UNL     1      -9.845   5.364 -32.379  1.00  0.00    -0.272 NA
HETATM   28  C   UNL     1     -10.711   5.177 -31.363  1.00  0.00     0.116 A 
HETATM   29  C   UNL     1     -10.579   4.170 -30.426  1.00  0.00     0.020 A 
HETATM   30  C   UNL     1      -9.490   3.308 -30.538  1.00  0.00     0.013 A 
ENDBRANCH   1  25
BRANCH   5  31
HETATM   31  C   UNL     1      -7.822  -0.589 -33.833  1.00  0.00     0.175 C 
BRANCH  31  32
HETATM   32  C   UNL     1      -6.614  -1.490 -33.927  1.00  0.00    -0.040 A 
HETATM   33  C   UNL     1      -6.666  -2.669 -34.687  1.00  0.00     0.012 A 
HETATM   34  C   UNL     1      -5.553  -3.507 -34.764  1.00  0.00     0.043 A 
HETATM   35  C   UNL     1      -4.394  -3.174 -34.073  1.00  0.00     0.116 A 
HETATM   36  F   UNL     1      -3.326  -3.979 -34.150  1.00  0.00    -0.206 F 
HETATM   37  C   UNL     1      -4.326  -2.020 -33.302  1.00  0.00     0.043 A 
HETATM   38  C   UNL     1      -5.437  -1.179 -33.225  1.00  0.00     0.012 A 
ENDBRANCH  31  32
ENDBRANCH   5  31
TORSDOF 5
ENDMDL
MODEL 2
REMARK VINA RESULT:      -9.9      2.788      3.597
REMARK  5 active torsions:
REMARK  status: ('A' for Active; 'I' for Inactive)
REMARK    1  A    between atoms: C_4  and  C_5 
REMARK       I    between atoms: C_5  and  N_6 
REMARK    2  A    between atoms: C_9  and  C_10 
REMARK    3  A    between atoms: C_10  and  C_11 
REMARK    4  A    between atoms: N_20  and  C_21 
REMARK    5  A    between atoms: C_21  and  C_22 
ROOT
HETATM    1  C   UNL     1      -9.763   1.724 -33.406  1.00  0.00     0.148 A 
HETATM    2  N   UNL     1      -8.900   1.869 -34.574  1.00  0.00    -0.320 N 
HETATM    3  C   UNL     1      -8.008   0.837 -34.725  1.00  0.00     0.326 A 
HETATM    4  O   UNL     1      -7.257   0.724 -35.678  1.00  0.00    -0.247 OA
HETATM    5  N   UNL     1      -8.094   0.031 -33.642  1.00  0.00    -0.263 N 
HETATM    6  C   UNL     1      -9.061   0.480 -32.792  1.00  0.00     0.262 A 
HETATM    7  O   UNL     1      -9.324  -0.029 -31.710  1.00  0.00    -0.270 OA
HETATM    8  H   UNL     1      -9.066   2.490 -35.357  1.00  0.00     0.166 HD
ENDROOT
BRANCH   1   9
HETATM    9  C   UNL     1      -9.687   3.017 -32.524  1.00  0.00     0.031 C 
HETATM   10  C   UNL     1      -8.893   2.903 -31.207  1.00  0.00     0.028 C 
HETATM   11  C   UNL     1      -7.392   3.157 -31.313  1.00  0.00     0.126 C 
HETATM   12  N   UNL     1      -7.043   4.336 -32.111  1.00  0.00    -0.350 N 
HETATM   13  C   UNL     1      -5.740   4.819 -31.930  1.00  0.00     0.251 C 
HETATM   14  C   UNL     1      -7.755   4.495 -33.378  1.00  0.00     0.126 C 
HETATM   15  O   UNL     1      -4.955   4.293 -31.138  1.00  0.00    -0.271 OA
HETATM   16  C   UNL     1      -9.259   4.306 -33.250  1.00  0.00     0.028 C 
BRANCH  13  17
HETATM   17  C   UNL     1      -5.308   6.092 -32.710  1.00  0.00     0.279 C 
HETATM   18  N   UNL     1      -4.120   5.898 -33.687  1.00  0.00    -0.062 N 
HETATM   19  C   UNL     1      -4.420   4.883 -34.758  1.00  0.00     0.270 C 
HETATM   20  H   UNL     1      -3.998   6.794 -34.173  1.00  0.00     0.280 HD
HETATM   21  C   UNL     1      -2.807   5.604 -32.999  1.00  0.00     0.235 C 
HETATM   22  C   UNL     1      -2.484   6.718 -32.017  1.00  0.00     0.028 C 
HETATM   23  C   UNL     1      -3.615   6.959 -31.026  1.00  0.00     0.004 C 
HETATM   24  C   UNL     1      -4.937   7.223 -31.743  1.00  0.00     0.043 C 
ENDBRANCH  13  17
ENDBRANCH   1   9
BRANCH   1  25
HETATM   25  C   UNL     1     -11.186   1.449 -33.890  1.00  0.00    -0.003 A 
HETATM   26  C   UNL     1     -11.825   2.228 -34.854  1.00  0.00     0.126 A 
HETATM   27  N   UNL     1     -13.074   1.995 -35.321  1.00  0.00    -0.272 NA
HETATM   28  C   UNL     1     -13.741   0.943 -34.806  1.00  0.00     0.116 A 
HETATM   29  C   UNL     1     -13.210   0.099 -33.851  1.00  0.00     0.020 A 
HETATM   30  C   UNL     1     -11.918   0.354 -33.395  1.00  0.00     0.013 A 
ENDBRANCH   1  25
BRANCH   5  31
HETATM   31  C   UNL     1      -7.295  -1.155 -33.433  1.00  0.00     0.175 C 
BRANCH  31  32
HETATM   32  C   UNL     1      -5.983  -0.838 -32.757  1.00  0.00    -0.040 A 
HETATM   33  C   UNL     1      -4.769  -1.104 -33.407  1.00  0.00     0.012 A 
HETATM   34  C   UNL     1      -3.555  -0.821 -32.778  1.00  0.00     0.043 A 
HETATM   35  C   UNL     1      -3.556  -0.284 -31.496  1.00  0.00     0.116 A 
HETATM   36  F   UNL     1      -2.391  -0.011 -30.894  1.00  0.00    -0.206 F 
HETATM   37  C   UNL     1      -4.747  -0.028 -30.828  1.00  0.00     0.043 A 
HETATM   38  C   UNL     1      -5.961  -0.307 -31.456  1.00  0.00     0.012 A 
ENDBRANCH  31  32
ENDBRANCH   5  31
TORSDOF 5
ENDMDL
MODEL 3
REMARK VINA RESULT:      -9.1      3.157      4.797
REMARK  5 active torsions:
REMARK  status: ('A' for Active; 'I' for Inactive)
REMARK    1  A    between atoms: C_4  and  C_5 
REMARK       I    between atoms: C_5  and  N_6 
REMARK    2  A    between atoms: C_9  and  C_10 
REMARK    3  A    between atoms: C_10  and  C_11 
REMARK    4  A    between atoms: N_20  and  C_21 
REMARK    5  A    between atoms: C_21  and  C_22 
ROOT
HETATM    1  C   UNL     1      -5.641   4.279 -31.833  1.00  0.00     0.148 A 
HETATM    2  N   UNL     1      -5.005   3.571 -30.726  1.00  0.00    -0.320 N 
HETATM    3  C   UNL     1      -5.448   2.281 -30.578  1.00  0.00     0.326 A 
HETATM    4  O   UNL     1      -4.986   1.494 -29.770  1.00  0.00    -0.247 OA
HETATM    5  N   UNL     1      -6.474   2.076 -31.437  1.00  0.00    -0.263 N 
HETATM    6  C   UNL     1      -6.693   3.192 -32.189  1.00  0.00     0.262 A 
HETATM    7  O   UNL     1      -7.590   3.306 -33.014  1.00  0.00    -0.270 OA
HETATM    8  H   UNL     1      -4.151   3.851 -30.260  1.00  0.00     0.166 HD
ENDROOT
BRANCH   1   9
HETATM    9  C   UNL     1      -6.248   5.631 -31.322  1.00  0.00     0.031 C 
HETATM   10  C   UNL     1      -7.084   5.562 -30.029  1.00  0.00     0.028 C 
HETATM   11  C   UNL     1      -6.299   5.679 -28.725  1.00  0.00     0.126 C 
HETATM   12  N   UNL     1      -5.302   6.753 -28.724  1.00  0.00    -0.350 N 
HETATM   13  C   UNL     1      -4.835   7.138 -27.461  1.00  0.00     0.251 C 
HETATM   14  C   UNL     1      -4.470   6.865 -29.921  1.00  0.00     0.126 C 
HETATM   15  O   UNL     1      -5.254   6.616 -26.425  1.00  0.00    -0.271 OA
HETATM   16  C   UNL     1      -5.267   6.814 -31.216  1.00  0.00     0.028 C 
BRANCH  13  17
HETATM   17  C   UNL     1      -3.806   8.300 -27.375  1.00  0.00     0.279 C 
HETATM   18  N   UNL     1      -2.444   7.932 -26.734  1.00  0.00    -0.062 N 
HETATM   19  C   UNL     1      -1.727   6.849 -27.496  1.00  0.00     0.270 C 
HETATM   20  H   UNL     1      -1.854   8.769 -26.810  1.00  0.00     0.280 HD
HETATM   21  C   UNL     1      -2.532   7.605 -25.261  1.00  0.00     0.235 C 
HETATM   22  C   UNL     1      -3.149   8.777 -24.514  1.00  0.00     0.028 C 
HETATM   23  C   UNL     1      -4.494   9.189 -25.096  1.00  0.00     0.004 C 
HETATM   24  C   UNL     1      -4.387   9.483 -26.591  1.00  0.00     0.043 C 
ENDBRANCH  13  17
ENDBRANCH   1   9
BRANCH   1  25
HETATM   25  C   UNL     1      -4.596   4.502 -32.925  1.00  0.00    -0.003 A 
HETATM   26  C   UNL     1      -4.912   4.990 -34.193  1.00  0.00     0.126 A 
HETATM   27  N   UNL     1      -4.007   5.222 -35.172  1.00  0.00    -0.272 NA
HETATM   28  C   UNL     1      -2.715   4.951 -34.897  1.00  0.00     0.116 A 
HETATM   29  C   UNL     1      -2.282   4.469 -33.677  1.00  0.00     0.020 A 
HETATM   30  C   UNL     1      -3.233   4.249 -32.683  1.00  0.00     0.013 A 
ENDBRANCH   1  25
BRANCH   5  31
HETATM   31  C   UNL     1      -7.210   0.838 -31.559  1.00  0.00     0.175 C 
BRANCH  31  32
HETATM   32  C   UNL     1      -6.580  -0.094 -32.566  1.00  0.00    -0.040 A 
HETATM   33  C   UNL     1      -7.254  -0.412 -33.756  1.00  0.00     0.012 A 
HETATM   34  C   UNL     1      -6.677  -1.282 -34.682  1.00  0.00     0.043 A 
HETATM   35  C   UNL     1      -5.434  -1.843 -34.414  1.00  0.00     0.116 A 
HETATM   36  F   UNL     1      -4.880  -2.677 -35.305  1.00  0.00    -0.206 F 
HETATM   37  C   UNL     1      -4.757  -1.555 -33.235  1.00  0.00     0.043 A 
HETATM   38  C   UNL     1      -5.330  -0.683 -32.309  1.00  0.00     0.012 A 
ENDBRANCH  31  32
ENDBRANCH   5  31
TORSDOF 5
ENDMDL
MODEL 4
REMARK VINA RESULT:      -9.0      2.747      4.759
REMARK  5 active torsions:
REMARK  status: ('A' for Active; 'I' for Inactive)
REMARK    1  A    between atoms: C_4  and  C_5 
REMARK       I    between atoms: C_5  and  N_6 
REMARK    2  A    between atoms: C_9  and  C_10 
REMARK    3  A    between atoms: C_10  and  C_11 
REMARK    4  A    between atoms: N_20  and  C_21 
REMARK    5  A    between atoms: C_21  and  C_22 
ROOT
HETATM    1  C   UNL     1      -5.106   4.984 -31.678  1.00  0.00     0.148 A 
HETATM    2  N   UNL     1      -4.639   4.026 -30.680  1.00  0.00    -0.320 N 
HETATM    3  C   UNL     1      -5.418   2.899 -30.600  1.00  0.00     0.326 A 
HETATM    4  O   UNL     1      -5.156   1.942 -29.892  1.00  0.00    -0.247 OA
HETATM    5  N   UNL     1      -6.502   3.067 -31.393  1.00  0.00    -0.263 N 
HETATM    6  C   UNL     1      -6.437   4.267 -32.037  1.00  0.00     0.262 A 
HETATM    7  O   UNL     1      -7.306   4.702 -32.782  1.00  0.00    -0.270 OA
HETATM    8  H   UNL     1      -3.719   4.014 -30.259  1.00  0.00     0.166 HD
ENDROOT
BRANCH   1   9
HETATM    9  C   UNL     1      -5.282   6.395 -31.020  1.00  0.00     0.031 C 
HETATM   10  C   UNL     1      -5.511   6.417 -29.495  1.00  0.00     0.028 C 
HETATM   11  C   UNL     1      -4.250   6.420 -28.636  1.00  0.00     0.126 C 
HETATM   12  N   UNL     1      -3.222   7.361 -29.090  1.00  0.00    -0.350 N 
HETATM   13  C   UNL     1      -2.233   7.670 -28.147  1.00  0.00     0.251 C 
HETATM   14  C   UNL     1      -2.951   7.381 -30.526  1.00  0.00     0.126 C 
HETATM   15  O   UNL     1      -2.245   7.194 -27.009  1.00  0.00    -0.271 OA
HETATM   16  C   UNL     1      -4.212   7.445 -31.375  1.00  0.00     0.028 C 
BRANCH  13  17
HETATM   17  C   UNL     1      -1.130   8.693 -28.540  1.00  0.00     0.279 C 
HETATM   18  N   UNL     1       0.303   8.113 -28.646  1.00  0.00    -0.062 N 
HETATM   19  C   UNL     1       0.407   7.029 -29.685  1.00  0.00     0.270 C 
HETATM   20  H   UNL     1       0.900   8.881 -28.977  1.00  0.00     0.280 HD
HETATM   21  C   UNL     1       0.879   7.666 -27.322  1.00  0.00     0.235 C 
HETATM   22  C   UNL     1       0.868   8.829 -26.341  1.00  0.00     0.028 C 
HETATM   23  C   UNL     1      -0.517   9.444 -26.192  1.00  0.00     0.004 C 
HETATM   24  C   UNL     1      -1.091   9.859 -27.545  1.00  0.00     0.043 C 
ENDBRANCH  13  17
ENDBRANCH   1   9
BRANCH   1  25
HETATM   25  C   UNL     1      -4.096   5.014 -32.825  1.00  0.00    -0.003 A 
HETATM   26  C   UNL     1      -4.401   5.504 -34.094  1.00  0.00     0.126 A 
HETATM   27  N   UNL     1      -3.523   5.567 -35.122  1.00  0.00    -0.272 NA
HETATM   28  C   UNL     1      -2.274   5.114 -34.897  1.00  0.00     0.116 A 
HETATM   29  C   UNL     1      -1.855   4.611 -33.681  1.00  0.00     0.020 A 
HETATM   30  C   UNL     1      -2.776   4.567 -32.636  1.00  0.00     0.013 A 
ENDBRANCH   1  25
BRANCH   5  31
HETATM   31  C   UNL     1      -7.561   2.097 -31.555  1.00  0.00     0.175 C 
BRANCH  31  32
HETATM   32  C   UNL     1      -7.223   1.064 -32.603  1.00  0.00    -0.040 A 
HETATM   33  C   UNL     1      -7.503   1.309 -33.956  1.00  0.00     0.012 A 
HETATM   34  C   UNL     1      -7.200   0.350 -34.923  1.00  0.00     0.043 A 
HETATM   35  C   UNL     1      -6.629  -0.858 -34.537  1.00  0.00     0.116 A 
HETATM   36  F   UNL     1      -6.338  -1.777 -35.467  1.00  0.00    -0.206 F 
HETATM   37  C   UNL     1      -6.360  -1.127 -33.201  1.00  0.00     0.043 A 
HETATM   38  C   UNL     1      -6.659  -0.168 -32.233  1.00  0.00     0.012 A 
ENDBRANCH  31  32
ENDBRANCH   5  31
TORSDOF 5
ENDMDL
MODEL 5
REMARK VINA RESULT:      -9.0      2.218      6.852
REMARK  5 active torsions:
REMARK  status: ('A' for Active; 'I' for Inactive)
REMARK    1  A    between atoms: C_4  and  C_5 
REMARK       I    between atoms: C_5  and  N_6 
REMARK    2  A    between atoms: C_9  and  C_10 
REMARK    3  A    between atoms: C_10  and  C_11 
REMARK    4  A    between atoms: N_20  and  C_21 
REMARK    5  A    between atoms: C_21  and  C_22 
ROOT
HETATM    1  C   UNL     1      -4.735   4.113 -31.776  1.00  0.00     0.148 A 
HETATM    2  N   UNL     1      -5.809   3.718 -30.870  1.00  0.00    -0.320 N 
HETATM    3  C   UNL     1      -5.698   2.425 -30.423  1.00  0.00     0.326 A 
HETATM    4  O   UNL     1      -6.443   1.927 -29.597  1.00  0.00    -0.247 OA
HETATM    5  N   UNL     1      -4.674   1.830 -31.078  1.00  0.00    -0.263 N 
HETATM    6  C   UNL     1      -4.070   2.716 -31.919  1.00  0.00     0.262 A 
HETATM    7  O   UNL     1      -3.144   2.437 -32.671  1.00  0.00    -0.270 OA
HETATM    8  H   UNL     1      -6.435   4.350 -30.387  1.00  0.00     0.166 HD
ENDROOT
BRANCH   1   9
HETATM    9  C   UNL     1      -5.341   4.685 -33.104  1.00  0.00     0.031 C 
HETATM   10  C   UNL     1      -5.700   3.656 -34.194  1.00  0.00     0.028 C 
HETATM   11  C   UNL     1      -7.090   3.036 -34.088  1.00  0.00     0.126 C 
HETATM   12  N   UNL     1      -8.156   4.006 -33.822  1.00  0.00    -0.350 N 
HETATM   13  C   UNL     1      -9.456   3.557 -34.086  1.00  0.00     0.251 C 
HETATM   14  C   UNL     1      -7.880   5.004 -32.790  1.00  0.00     0.126 C 
HETATM   15  O   UNL     1      -9.678   2.428 -34.532  1.00  0.00    -0.271 OA
HETATM   16  C   UNL     1      -6.518   5.665 -32.941  1.00  0.00     0.028 C 
BRANCH  13  17
HETATM   17  C   UNL     1     -10.638   4.542 -33.868  1.00  0.00     0.279 C 
HETATM   18  N   UNL     1     -11.693   4.090 -32.826  1.00  0.00    -0.062 N 
HETATM   19  C   UNL     1     -11.100   3.902 -31.456  1.00  0.00     0.270 C 
HETATM   20  H   UNL     1     -12.364   4.863 -32.741  1.00  0.00     0.280 HD
HETATM   21  C   UNL     1     -12.491   2.879 -33.254  1.00  0.00     0.235 C 
HETATM   22  C   UNL     1     -13.173   3.160 -34.584  1.00  0.00     0.028 C 
HETATM   23  C   UNL     1     -12.187   3.610 -35.653  1.00  0.00     0.004 C 
HETATM   24  C   UNL     1     -11.371   4.814 -35.188  1.00  0.00     0.043 C 
ENDBRANCH  13  17
ENDBRANCH   1   9
BRANCH   1  25
HETATM   25  C   UNL     1      -3.857   5.141 -31.063  1.00  0.00    -0.003 A 
HETATM   26  C   UNL     1      -2.514   5.344 -31.379  1.00  0.00     0.126 A 
HETATM   27  N   UNL     1      -1.718   6.263 -30.784  1.00  0.00    -0.272 NA
HETATM   28  C   UNL     1      -2.267   7.021 -29.814  1.00  0.00     0.116 A 
HETATM   29  C   UNL     1      -3.586   6.913 -29.419  1.00  0.00     0.020 A 
HETATM   30  C   UNL     1      -4.387   5.967 -30.055  1.00  0.00     0.013 A 
ENDBRANCH   1  25
BRANCH   5  31
HETATM   31  C   UNL     1      -4.263   0.457 -30.886  1.00  0.00     0.175 C 
BRANCH  31  32
HETATM   32  C   UNL     1      -4.734  -0.433 -32.010  1.00  0.00    -0.040 A 
HETATM   33  C   UNL     1      -3.846  -1.329 -32.625  1.00  0.00     0.012 A 
HETATM   34  C   UNL     1      -4.279  -2.145 -33.672  1.00  0.00     0.043 A 
HETATM   35  C   UNL     1      -5.595  -2.057 -34.112  1.00  0.00     0.116 A 
HETATM   36  F   UNL     1      -6.010  -2.841 -35.115  1.00  0.00    -0.206 F 
HETATM   37  C   UNL     1      -6.486  -1.165 -33.528  1.00  0.00     0.043 A 
HETATM   38  C   UNL     1      -6.056  -0.350 -32.479  1.00  0.00     0.012 A 
ENDBRANCH  31  32
ENDBRANCH   5  31
TORSDOF 5
ENDMDL
MODEL 6
REMARK VINA RESULT:      -8.7      3.346      8.608
REMARK  5 active torsions:
REMARK  status: ('A' for Active; 'I' for Inactive)
REMARK    1  A    between atoms: C_4  and  C_5 
REMARK       I    between atoms: C_5  and  N_6 
REMARK    2  A    between atoms: C_9  and  C_10 
REMARK    3  A    between atoms: C_10  and  C_11 
REMARK    4  A    between atoms: N_20  and  C_21 
REMARK    5  A    between atoms: C_21  and  C_22 
ROOT
HETATM    1  C   UNL     1      -6.098   1.405 -32.469  1.00  0.00     0.148 A 
HETATM    2  N   UNL     1      -6.000   2.070 -33.765  1.00  0.00    -0.320 N 
HETATM    3  C   UNL     1      -5.763   3.418 -33.670  1.00  0.00     0.326 A 
HETATM    4  O   UNL     1      -5.566   4.142 -34.631  1.00  0.00    -0.247 OA
HETATM    5  N   UNL     1      -5.829   3.776 -32.367  1.00  0.00    -0.263 N 
HETATM    6  C   UNL     1      -6.058   2.683 -31.585  1.00  0.00     0.262 A 
HETATM    7  O   UNL     1      -6.210   2.718 -30.371  1.00  0.00    -0.270 OA
HETATM    8  H   UNL     1      -5.852   1.609 -34.655  1.00  0.00     0.166 HD
ENDROOT
BRANCH   1   9
HETATM    9  C   UNL     1      -7.438   0.596 -32.385  1.00  0.00     0.031 C 
HETATM   10  C   UNL     1      -8.381   0.949 -31.218  1.00  0.00     0.028 C 
HETATM   11  C   UNL     1      -9.351   2.099 -31.474  1.00  0.00     0.126 C 
HETATM   12  N   UNL     1     -10.024   2.032 -32.774  1.00  0.00    -0.350 N 
HETATM   13  C   UNL     1     -11.171   2.827 -32.899  1.00  0.00     0.251 C 
HETATM   14  C   UNL     1      -9.181   1.710 -33.924  1.00  0.00     0.126 C 
HETATM   15  O   UNL     1     -11.589   3.518 -31.966  1.00  0.00    -0.271 OA
HETATM   16  C   UNL     1      -8.264   0.520 -33.684  1.00  0.00     0.028 C 
BRANCH  13  17
HETATM   17  C   UNL     1     -11.964   2.777 -34.235  1.00  0.00     0.279 C 
HETATM   18  N   UNL     1     -13.365   3.439 -34.197  1.00  0.00    -0.062 N 
HETATM   19  C   UNL     1     -13.297   4.903 -33.852  1.00  0.00     0.270 C 
HETATM   20  H   UNL     1     -13.732   3.390 -35.155  1.00  0.00     0.280 HD
HETATM   21  C   UNL     1     -14.360   2.711 -33.322  1.00  0.00     0.235 C 
HETATM   22  C   UNL     1     -14.488   1.268 -33.785  1.00  0.00     0.028 C 
HETATM   23  C   UNL     1     -13.141   0.560 -33.843  1.00  0.00     0.004 C 
HETATM   24  C   UNL     1     -12.144   1.329 -34.707  1.00  0.00     0.043 C 
ENDBRANCH  13  17
ENDBRANCH   1   9
BRANCH   1  25
HETATM   25  C   UNL     1      -4.877   0.502 -32.298  1.00  0.00    -0.003 A 
HETATM   26  C   UNL     1      -3.767   0.860 -31.534  1.00  0.00     0.126 A 
HETATM   27  N   UNL     1      -2.683   0.073 -31.344  1.00  0.00    -0.272 NA
HETATM   28  C   UNL     1      -2.681  -1.134 -31.945  1.00  0.00     0.116 A 
HETATM   29  C   UNL     1      -3.725  -1.598 -32.721  1.00  0.00     0.020 A 
HETATM   30  C   UNL     1      -4.834  -0.772 -32.892  1.00  0.00     0.013 A 
ENDBRANCH   1  25
BRANCH   5  31
HETATM   31  C   UNL     1      -5.649   5.123 -31.873  1.00  0.00     0.175 C 
BRANCH  31  32
HETATM   32  C   UNL     1      -4.212   5.399 -31.503  1.00  0.00    -0.040 A 
HETATM   33  C   UNL     1      -3.195   4.517 -31.900  1.00  0.00     0.012 A 
HETATM   34  C   UNL     1      -1.868   4.767 -31.548  1.00  0.00     0.043 A 
HETATM   35  C   UNL     1      -1.558   5.891 -30.791  1.00  0.00     0.116 A 
HETATM   36  F   UNL     1      -0.284   6.130 -30.456  1.00  0.00    -0.206 F 
HETATM   37  C   UNL     1      -2.551   6.769 -30.374  1.00  0.00     0.043 A 
HETATM   38  C   UNL     1      -3.879   6.523 -30.727  1.00  0.00     0.012 A 
ENDBRANCH  31  32
ENDBRANCH   5  31
TORSDOF 5
ENDMDL
MODEL 7
REMARK VINA RESULT:      -8.7      2.424      6.893
REMARK  5 active torsions:
REMARK  status: ('A' for Active; 'I' for Inactive)
REMARK    1  A    between atoms: C_4  and  C_5 
REMARK       I    between atoms: C_5  and  N_6 
REMARK    2  A    between atoms: C_9  and  C_10 
REMARK    3  A    between atoms: C_10  and  C_11 
REMARK    4  A    between atoms: N_20  and  C_21 
REMARK    5  A    between atoms: C_21  and  C_22 
ROOT
HETATM    1  C   UNL     1      -6.463   3.012 -31.899  1.00  0.00     0.148 A 
HETATM    2  N   UNL     1      -6.518   1.999 -30.851  1.00  0.00    -0.320 N 
HETATM    3  C   UNL     1      -6.898   0.761 -31.307  1.00  0.00     0.326 A 
HETATM    4  O   UNL     1      -6.926  -0.239 -30.611  1.00  0.00    -0.247 OA
HETATM    5  N   UNL     1      -7.255   0.873 -32.607  1.00  0.00    -0.263 N 
HETATM    6  C   UNL     1      -7.076   2.153 -33.040  1.00  0.00     0.262 A 
HETATM    7  O   UNL     1      -7.363   2.552 -34.162  1.00  0.00    -0.270 OA
HETATM    8  H   UNL     1      -6.088   2.071 -29.937  1.00  0.00     0.166 HD
ENDROOT
BRANCH   1   9
HETATM    9  C   UNL     1      -7.323   4.255 -31.485  1.00  0.00     0.031 C 
HETATM   10  C   UNL     1      -7.274   5.470 -32.432  1.00  0.00     0.028 C 
HETATM   11  C   UNL     1      -8.268   5.449 -33.590  1.00  0.00     0.126 C 
HETATM   12  N   UNL     1      -9.626   5.061 -33.201  1.00  0.00    -0.350 N 
HETATM   13  C   UNL     1     -10.630   5.384 -34.123  1.00  0.00     0.251 C 
HETATM   14  C   UNL     1      -9.741   3.907 -32.310  1.00  0.00     0.126 C 
HETATM   15  O   UNL     1     -10.381   5.973 -35.178  1.00  0.00    -0.271 OA
HETATM   16  C   UNL     1      -8.793   3.969 -31.122  1.00  0.00     0.028 C 
BRANCH  13  17
HETATM   17  C   UNL     1     -12.103   5.042 -33.764  1.00  0.00     0.279 C 
HETATM   18  N   UNL     1     -13.003   4.648 -34.963  1.00  0.00    -0.062 N 
HETATM   19  C   UNL     1     -12.496   3.426 -35.681  1.00  0.00     0.270 C 
HETATM   20  H   UNL     1     -13.913   4.386 -34.566  1.00  0.00     0.280 HD
HETATM   21  C   UNL     1     -13.268   5.783 -35.925  1.00  0.00     0.235 C 
HETATM   22  C   UNL     1     -13.894   6.950 -35.178  1.00  0.00     0.028 C 
HETATM   23  C   UNL     1     -13.056   7.387 -33.984  1.00  0.00     0.004 C 
HETATM   24  C   UNL     1     -12.774   6.218 -33.043  1.00  0.00     0.043 C 
ENDBRANCH  13  17
ENDBRANCH   1   9
BRANCH   1  25
HETATM   25  C   UNL     1      -5.000   3.386 -32.131  1.00  0.00    -0.003 A 
HETATM   26  C   UNL     1      -3.974   3.024 -31.259  1.00  0.00     0.126 A 
HETATM   27  N   UNL     1      -2.667   3.318 -31.449  1.00  0.00    -0.272 NA
HETATM   28  C   UNL     1      -2.345   4.018 -32.556  1.00  0.00     0.116 A 
HETATM   29  C   UNL     1      -3.273   4.427 -33.493  1.00  0.00     0.020 A 
HETATM   30  C   UNL     1      -4.611   4.102 -33.279  1.00  0.00     0.013 A 
ENDBRANCH   1  25
BRANCH   5  31
HETATM   31  C   UNL     1      -7.730  -0.219 -33.427  1.00  0.00     0.175 C 
BRANCH  31  32
HETATM   32  C   UNL     1      -6.622  -1.185 -33.773  1.00  0.00    -0.040 A 
HETATM   33  C   UNL     1      -6.921  -2.429 -34.350  1.00  0.00     0.012 A 
HETATM   34  C   UNL     1      -5.898  -3.327 -34.659  1.00  0.00     0.043 A 
HETATM   35  C   UNL     1      -4.579  -2.987 -34.381  1.00  0.00     0.116 A 
HETATM   36  F   UNL     1      -3.599  -3.849 -34.681  1.00  0.00    -0.206 F 
HETATM   37  C   UNL     1      -4.263  -1.767 -33.795  1.00  0.00     0.043 A 
HETATM   38  C   UNL     1      -5.283  -0.867 -33.488  1.00  0.00     0.012 A 
ENDBRANCH  31  32
ENDBRANCH   5  31
TORSDOF 5
ENDMDL
MODEL 8
REMARK VINA RESULT:      -8.6      3.449      5.073
REMARK  5 active torsions:
REMARK  status: ('A' for Active; 'I' for Inactive)
REMARK    1  A    between atoms: C_4  and  C_5 
REMARK       I    between atoms: C_5  and  N_6 
REMARK    2  A    between atoms: C_9  and  C_10 
REMARK    3  A    between atoms: C_10  and  C_11 
REMARK    4  A    between atoms: N_20  and  C_21 
REMARK    5  A    between atoms: C_21  and  C_22 
ROOT
HETATM    1  C   UNL     1      -6.005   4.216 -32.306  1.00  0.00     0.148 A 
HETATM    2  N   UNL     1      -5.623   3.708 -30.992  1.00  0.00    -0.320 N 
HETATM    3  C   UNL     1      -5.997   2.404 -30.782  1.00  0.00     0.326 A 
HETATM    4  O   UNL     1      -5.702   1.766 -29.786  1.00  0.00    -0.247 OA
HETATM    5  N   UNL     1      -6.754   1.999 -31.828  1.00  0.00    -0.263 N 
HETATM    6  C   UNL     1      -6.853   2.993 -32.755  1.00  0.00     0.262 A 
HETATM    7  O   UNL     1      -7.516   2.920 -33.781  1.00  0.00    -0.270 OA
HETATM    8  H   UNL     1      -4.938   4.125 -30.374  1.00  0.00     0.166 HD
ENDROOT
BRANCH   1   9
HETATM    9  C   UNL     1      -6.816   5.548 -32.146  1.00  0.00     0.031 C 
HETATM   10  C   UNL     1      -7.908   5.560 -31.059  1.00  0.00     0.028 C 
HETATM   11  C   UNL     1      -7.442   5.937 -29.655  1.00  0.00     0.126 C 
HETATM   12  N   UNL     1      -6.559   7.106 -29.615  1.00  0.00    -0.350 N 
HETATM   13  C   UNL     1      -6.414   7.706 -28.357  1.00  0.00     0.251 C 
HETATM   14  C   UNL     1      -5.495   7.148 -30.617  1.00  0.00     0.126 C 
HETATM   15  O   UNL     1      -7.009   7.285 -27.362  1.00  0.00    -0.271 OA
HETATM   16  C   UNL     1      -5.981   6.837 -32.024  1.00  0.00     0.028 C 
BRANCH  13  17
HETATM   17  C   UNL     1      -5.526   8.977 -28.242  1.00  0.00     0.279 C 
HETATM   18  N   UNL     1      -4.325   8.858 -27.270  1.00  0.00    -0.062 N 
HETATM   19  C   UNL     1      -3.370   7.765 -27.671  1.00  0.00     0.270 C 
HETATM   20  H   UNL     1      -3.800   9.737 -27.353  1.00  0.00     0.280 HD
HETATM   21  C   UNL     1      -4.725   8.735 -25.818  1.00  0.00     0.235 C 
HETATM   22  C   UNL     1      -5.586   9.925 -25.423  1.00  0.00     0.028 C 
HETATM   23  C   UNL     1      -6.788  10.097 -26.342  1.00  0.00     0.004 C 
HETATM   24  C   UNL     1      -6.362  10.186 -27.806  1.00  0.00     0.043 C 
ENDBRANCH  13  17
ENDBRANCH   1   9
BRANCH   1  25
HETATM   25  C   UNL     1      -4.735   4.419 -33.131  1.00  0.00    -0.003 A 
HETATM   26  C   UNL     1      -3.465   4.070 -32.672  1.00  0.00     0.126 A 
HETATM   27  N   UNL     1      -2.326   4.214 -33.389  1.00  0.00    -0.272 NA
HETATM   28  C   UNL     1      -2.435   4.741 -34.624  1.00  0.00     0.116 A 
HETATM   29  C   UNL     1      -3.639   5.119 -35.187  1.00  0.00     0.020 A 
HETATM   30  C   UNL     1      -4.798   4.950 -34.432  1.00  0.00     0.013 A 
ENDBRANCH   1  25
BRANCH   5  31
HETATM   31  C   UNL     1      -7.345   0.686 -31.956  1.00  0.00     0.175 C 
BRANCH  31  32
HETATM   32  C   UNL     1      -6.478  -0.245 -32.768  1.00  0.00    -0.040 A 
HETATM   33  C   UNL     1      -7.008  -0.919 -33.879  1.00  0.00     0.012 A 
HETATM   34  C   UNL     1      -6.209  -1.788 -34.623  1.00  0.00     0.043 A 
HETATM   35  C   UNL     1      -4.886  -1.994 -34.250  1.00  0.00     0.116 A 
HETATM   36  F   UNL     1      -4.120  -2.827 -34.966  1.00  0.00    -0.206 F 
HETATM   37  C   UNL     1      -4.346  -1.350 -33.143  1.00  0.00     0.043 A 
HETATM   38  C   UNL     1      -5.142  -0.478 -32.400  1.00  0.00     0.012 A 
ENDBRANCH  31  32
ENDBRANCH   5  31
TORSDOF 5
ENDMDL
MODEL 9
REMARK VINA RESULT:      -8.5      3.723      6.532
REMARK  5 active torsions:
REMARK  status: ('A' for Active; 'I' for Inactive)
REMARK    1  A    between atoms: C_4  and  C_5 
REMARK       I    between atoms: C_5  and  N_6 
REMARK    2  A    between atoms: C_9  and  C_10 
REMARK    3  A    between atoms: C_10  and  C_11 
REMARK    4  A    between atoms: N_20  and  C_21 
REMARK    5  A    between atoms: C_21  and  C_22 
ROOT
HETATM    1  C   UNL     1      -5.682   4.740 -32.514  1.00  0.00     0.148 A 
HETATM    2  N   UNL     1      -5.441   5.312 -33.835  1.00  0.00    -0.320 N 
HETATM    3  C   UNL     1      -4.135   5.206 -34.244  1.00  0.00     0.326 A 
HETATM    4  O   UNL     1      -3.741   5.545 -35.347  1.00  0.00    -0.247 OA
HETATM    5  N   UNL     1      -3.401   4.714 -33.220  1.00  0.00    -0.263 N 
HETATM    6  C   UNL     1      -4.201   4.445 -32.149  1.00  0.00     0.262 A 
HETATM    7  O   UNL     1      -3.798   4.035 -31.068  1.00  0.00    -0.270 OA
HETATM    8  H   UNL     1      -6.151   5.532 -34.521  1.00  0.00     0.166 HD
ENDROOT
BRANCH   1   9
HETATM    9  C   UNL     1      -6.381   5.801 -31.594  1.00  0.00     0.031 C 
HETATM   10  C   UNL     1      -6.917   5.290 -30.242  1.00  0.00     0.028 C 
HETATM   11  C   UNL     1      -5.915   5.281 -29.092  1.00  0.00     0.126 C 
HETATM   12  N   UNL     1      -5.122   6.509 -28.984  1.00  0.00    -0.350 N 
HETATM   13  C   UNL     1      -4.477   6.701 -27.755  1.00  0.00     0.251 C 
HETATM   14  C   UNL     1      -4.577   7.040 -30.232  1.00  0.00     0.126 C 
HETATM   15  O   UNL     1      -4.590   5.897 -26.827  1.00  0.00    -0.271 OA
HETATM   16  C   UNL     1      -5.600   7.107 -31.356  1.00  0.00     0.028 C 
BRANCH  13  17
HETATM   17  C   UNL     1      -3.651   8.002 -27.549  1.00  0.00     0.279 C 
HETATM   18  N   UNL     1      -2.361   7.839 -26.705  1.00  0.00    -0.062 N 
HETATM   19  C   UNL     1      -1.391   6.869 -27.324  1.00  0.00     0.270 C 
HETATM   20  H   UNL     1      -1.893   8.753 -26.715  1.00  0.00     0.280 HD
HETATM   21  C   UNL     1      -2.621   7.509 -25.253  1.00  0.00     0.235 C 
HETATM   22  C   UNL     1      -3.504   8.581 -24.635  1.00  0.00     0.028 C 
HETATM   23  C   UNL     1      -4.792   8.790 -25.420  1.00  0.00     0.004 C 
HETATM   24  C   UNL     1      -4.506   9.090 -26.890  1.00  0.00     0.043 C 
ENDBRANCH  13  17
ENDBRANCH   1   9
BRANCH   1  25
HETATM   25  C   UNL     1      -6.536   3.484 -32.681  1.00  0.00    -0.003 A 
HETATM   26  C   UNL     1      -6.198   2.254 -32.118  1.00  0.00     0.126 A 
HETATM   27  N   UNL     1      -6.945   1.131 -32.227  1.00  0.00    -0.272 NA
HETATM   28  C   UNL     1      -8.086   1.214 -32.940  1.00  0.00     0.116 A 
HETATM   29  C   UNL     1      -8.526   2.378 -33.539  1.00  0.00     0.020 A 
HETATM   30  C   UNL     1      -7.743   3.523 -33.402  1.00  0.00     0.013 A 
ENDBRANCH   1  25
BRANCH   5  31
HETATM   31  C   UNL     1      -1.975   4.478 -33.267  1.00  0.00     0.175 C 
BRANCH  31  32
HETATM   32  C   UNL     1      -1.225   5.373 -32.310  1.00  0.00    -0.040 A 
HETATM   33  C   UNL     1      -1.424   6.762 -32.334  1.00  0.00     0.012 A 
HETATM   34  C   UNL     1      -0.722   7.589 -31.456  1.00  0.00     0.043 A 
HETATM   35  C   UNL     1       0.186   7.031 -30.564  1.00  0.00     0.116 A 
HETATM   36  F   UNL     1       0.858   7.826 -29.721  1.00  0.00    -0.206 F 
HETATM   37  C   UNL     1       0.410   5.660 -30.535  1.00  0.00     0.043 A 
HETATM   38  C   UNL     1      -0.293   4.830 -31.409  1.00  0.00     0.012 A 
ENDBRANCH  31  32
ENDBRANCH   5  31
TORSDOF 5
ENDMDL
MODEL 10
REMARK VINA RESULT:      -8.4     17.164     18.934
REMARK  5 active torsions:
REMARK  status: ('A' for Active; 'I' for Inactive)
REMARK    1  A    between atoms: C_4  and  C_5 
REMARK       I    between atoms: C_5  and  N_6 
REMARK    2  A    between atoms: C_9  and  C_10 
REMARK    3  A    between atoms: C_10  and  C_11 
REMARK    4  A    between atoms: N_20  and  C_21 
REMARK    5  A    between atoms: C_21  and  C_22 
ROOT
HETATM    1  C   UNL     1      -6.545 -14.093 -36.641  1.00  0.00     0.148 A 
HETATM    2  N   UNL     1      -6.171 -15.504 -36.619  1.00  0.00    -0.320 N 
HETATM    3  C   UNL     1      -6.568 -16.156 -35.479  1.00  0.00     0.326 A 
HETATM    4  O   UNL     1      -6.428 -17.353 -35.298  1.00  0.00    -0.247 OA
HETATM    5  N   UNL     1      -7.083 -15.246 -34.619  1.00  0.00    -0.263 N 
HETATM    6  C   UNL     1      -7.080 -14.005 -35.185  1.00  0.00     0.262 A 
HETATM    7  O   UNL     1      -7.445 -12.984 -34.616  1.00  0.00    -0.270 OA
HETATM    8  H   UNL     1      -5.891 -16.052 -37.423  1.00  0.00     0.166 HD
ENDROOT
BRANCH   1   9
HETATM    9  C   UNL     1      -5.280 -13.211 -36.925  1.00  0.00     0.031 C 
HETATM   10  C   UNL     1      -4.137 -13.299 -35.894  1.00  0.00     0.028 C 
HETATM   11  C   UNL     1      -3.129 -14.423 -36.116  1.00  0.00     0.126 C 
HETATM   12  N   UNL     1      -2.679 -14.554 -37.505  1.00  0.00    -0.350 N 
HETATM   13  C   UNL     1      -1.506 -15.296 -37.690  1.00  0.00     0.251 C 
HETATM   14  C   UNL     1      -3.719 -14.488 -38.531  1.00  0.00     0.126 C 
HETATM   15  O   UNL     1      -0.889 -15.785 -36.740  1.00  0.00    -0.271 OA
HETATM   16  C   UNL     1      -4.681 -13.325 -38.340  1.00  0.00     0.028 C 
BRANCH  13  17
HETATM   17  C   UNL     1      -0.942 -15.444 -39.131  1.00  0.00     0.279 C 
HETATM   18  N   UNL     1      -0.246 -16.796 -39.433  1.00  0.00    -0.062 N 
HETATM   19  C   UNL     1      -1.176 -17.968 -39.269  1.00  0.00     0.270 C 
HETATM   20  H   UNL     1       0.007 -16.772 -40.428  1.00  0.00     0.280 HD
HETATM   21  C   UNL     1       1.042 -17.001 -38.670  1.00  0.00     0.235 C 
HETATM   22  C   UNL     1       1.998 -15.856 -38.964  1.00  0.00     0.028 C 
HETATM   23  C   UNL     1       1.372 -14.496 -38.686  1.00  0.00     0.004 C 
HETATM   24  C   UNL     1       0.057 -14.324 -39.442  1.00  0.00     0.043 C 
ENDBRANCH  13  17
ENDBRANCH   1   9
BRANCH   1  25
HETATM   25  C   UNL     1      -7.624 -13.897 -37.704  1.00  0.00    -0.003 A 
HETATM   26  C   UNL     1      -8.410 -14.941 -38.193  1.00  0.00     0.126 A 
HETATM   27  N   UNL     1      -9.389 -14.795 -39.115  1.00  0.00    -0.272 NA
HETATM   28  C   UNL     1      -9.607 -13.554 -39.596  1.00  0.00     0.116 A 
HETATM   29  C   UNL     1      -8.896 -12.444 -39.184  1.00  0.00     0.020 A 
HETATM   30  C   UNL     1      -7.900 -12.620 -38.226  1.00  0.00     0.013 A 
ENDBRANCH   1  25
BRANCH   5  31
HETATM   31  C   UNL     1      -7.591 -15.554 -33.302  1.00  0.00     0.175 C 
BRANCH  31  32
HETATM   32  C   UNL     1      -6.479 -15.854 -32.326  1.00  0.00    -0.040 A 
HETATM   33  C   UNL     1      -6.535 -17.001 -31.519  1.00  0.00     0.012 A 
HETATM   34  C   UNL     1      -5.513 -17.273 -30.608  1.00  0.00     0.043 A 
HETATM   35  C   UNL     1      -4.442 -16.393 -30.496  1.00  0.00     0.116 A 
HETATM   36  F   UNL     1      -3.460 -16.657 -29.623  1.00  0.00    -0.206 F 
HETATM   37  C   UNL     1      -4.375 -15.244 -31.274  1.00  0.00     0.043 A 
HETATM   38  C   UNL     1      -5.394 -14.972 -32.187  1.00  0.00     0.012 A 
ENDBRANCH  31  32
ENDBRANCH   5  31
TORSDOF 5
ENDMDL
