MODEL 1
REMARK VINA RESULT:      -9.9      0.000      0.000
REMARK  7 active torsions:
REMARK  status: ('A' for Active; 'I' for Inactive)
REMARK    1  A    between atoms: C_2  and  C_3 
REMARK    2  A    between atoms: C_6  and  C_7 
REMARK       I    between atoms: C_7  and  N_8 
REMARK    3  A    between atoms: C_14  and  C_15 
REMARK       I    between atoms: C_15  and  N_16 
REMARK    4  A    between atoms: N_16  and  C_17 
REMARK    5  A    between atoms: C_17  and  C_18 
REMARK       I    between atoms: N_25  and  C_26 
REMARK    6  A    between atoms: C_26  and  C_27 
REMARK    7  A    between atoms: C_30  and  O_31 
ROOT
HETATM    1  C   UNL     1      -1.638   6.864 -32.863  1.00  0.00     0.253 C 
HETATM    2  N   UNL     1      -2.833   6.133 -32.959  1.00  0.00    -0.348 N 
HETATM    3  C   UNL     1      -3.635   5.784 -31.787  1.00  0.00     0.131 C 
HETATM    4  C   UNL     1      -5.071   5.452 -32.129  1.00  0.00     0.081 C 
HETATM    5  C   UNL     1      -5.219   4.419 -33.246  1.00  0.00     0.142 C 
HETATM    6  O   UNL     1      -6.615   4.548 -33.668  1.00  0.00    -0.358 OA
HETATM    7  C   UNL     1      -7.111   3.242 -33.982  1.00  0.00     0.206 C 
HETATM    8  C   UNL     1      -6.392   2.333 -33.021  1.00  0.00     0.206 C 
HETATM    9  N   UNL     1      -5.100   3.003 -32.852  1.00  0.00    -0.300 N 
HETATM   10  C   UNL     1      -3.911   2.369 -32.532  1.00  0.00     0.257 C 
HETATM   11  O   UNL     1      -2.845   2.947 -32.357  1.00  0.00    -0.267 OA
HETATM   12  C   UNL     1      -4.383   4.835 -34.463  1.00  0.00     0.081 C 
HETATM   13  C   UNL     1      -2.965   5.295 -34.149  1.00  0.00     0.131 C 
HETATM   14  O   UNL     1      -0.938   7.155 -33.830  1.00  0.00    -0.267 OA
ENDROOT
BRANCH   8  15
HETATM   15  C   UNL     1      -7.214   2.227 -31.715  1.00  0.00     0.243 C 
HETATM   16  N   UNL     1      -8.148   3.214 -31.543  1.00  0.00    -0.354 N 
HETATM   17  H   UNL     1      -8.138   4.002 -32.184  1.00  0.00     0.162 HD
HETATM   18  O   UNL     1      -7.029   1.335 -30.892  1.00  0.00    -0.271 OA
BRANCH  16  19
HETATM   19  C   UNL     1      -8.896   3.449 -30.326  1.00  0.00     0.181 C 
BRANCH  19  20
HETATM   20  C   UNL     1      -8.352   4.676 -29.618  1.00  0.00     0.051 A 
HETATM   21  N   UNL     1      -7.113   4.567 -29.057  1.00  0.00    -0.264 NA
HETATM   22  C   UNL     1      -6.631   5.637 -28.389  1.00  0.00     0.117 A 
HETATM   23  C   UNL     1      -7.319   6.830 -28.262  1.00  0.00     0.019 A 
HETATM   24  C   UNL     1      -8.573   6.934 -28.856  1.00  0.00     0.003 A 
HETATM   25  C   UNL     1      -9.102   5.845 -29.545  1.00  0.00     0.029 A 
ENDBRANCH  19  20
ENDBRANCH  16  19
ENDBRANCH   8  15
BRANCH  10  26
HETATM   26  C   UNL     1      -3.851   0.891 -32.464  1.00  0.00     0.032 A 
HETATM   27  C   UNL     1      -4.515   0.170 -33.461  1.00  0.00     0.020 A 
HETATM   28  C   UNL     1      -4.424  -1.224 -33.491  1.00  0.00     0.038 A 
HETATM   29  C   UNL     1      -3.665  -1.908 -32.537  1.00  0.00     0.068 A 
HETATM   30  C   UNL     1      -2.995  -1.184 -31.549  1.00  0.00     0.038 A 
HETATM   31  C   UNL     1      -3.077   0.213 -31.522  1.00  0.00     0.020 A 
BRANCH  29  32
HETATM   32  O   UNL     1      -3.646  -3.267 -32.688  1.00  0.00    -0.356 OA
HETATM   33  C   UNL     1      -4.001  -3.776 -33.968  1.00  0.00     0.210 C 
ENDBRANCH  29  32
ENDBRANCH  10  26
BRANCH   1  34
HETATM   34  C   UNL     1      -1.175   7.314 -31.531  1.00  0.00     0.032 A 
HETATM   35  C   UNL     1      -1.903   8.269 -30.815  1.00  0.00     0.017 A 
HETATM   36  C   UNL     1      -1.457   8.685 -29.561  1.00  0.00     0.008 A 
HETATM   37  C   UNL     1      -0.299   8.126 -28.996  1.00  0.00    -0.059 A 
HETATM   38  C   UNL     1       0.399   7.139 -29.708  1.00  0.00     0.008 A 
HETATM   39  C   UNL     1      -0.037   6.730 -30.970  1.00  0.00     0.017 A 
BRANCH  37  40
HETATM   40  C   UNL     1       0.177   8.574 -27.636  1.00  0.00     0.034 C 
HETATM   41  C   UNL     1       1.693   8.680 -27.558  1.00  0.00     0.010 C 
ENDBRANCH  37  40
ENDBRANCH   1  34
TORSDOF 7
ENDMDL
MODEL 2
REMARK VINA RESULT:      -9.3      1.409      2.201
REMARK  7 active torsions:
REMARK  status: ('A' for Active; 'I' for Inactive)
REMARK    1  A    between atoms: C_2  and  C_3 
REMARK    2  A    between atoms: C_6  and  C_7 
REMARK       I    between atoms: C_7  and  N_8 
REMARK    3  A    between atoms: C_14  and  C_15 
REMARK       I    between atoms: C_15  and  N_16 
REMARK    4  A    between atoms: N_16  and  C_17 
REMARK    5  A    between atoms: C_17  and  C_18 
REMARK       I    between atoms: N_25  and  C_26 
REMARK    6  A    between atoms: C_26  and  C_27 
REMARK    7  A    between atoms: C_30  and  O_31 
ROOT
HETATM    1  C   UNL     1      -1.520   6.897 -32.802  1.00  0.00     0.253 C 
HETATM    2  N   UNL     1      -2.730   6.192 -32.912  1.00  0.00    -0.348 N 
HETATM    3  C   UNL     1      -3.547   5.851 -31.749  1.00  0.00     0.131 C 
HETATM    4  C   UNL     1      -4.986   5.553 -32.102  1.00  0.00     0.081 C 
HETATM    5  C   UNL     1      -5.150   4.532 -33.228  1.00  0.00     0.142 C 
HETATM    6  O   UNL     1      -6.540   4.695 -33.658  1.00  0.00    -0.358 OA
HETATM    7  C   UNL     1      -7.062   3.402 -33.987  1.00  0.00     0.206 C 
HETATM    8  C   UNL     1      -6.368   2.470 -33.029  1.00  0.00     0.206 C 
HETATM    9  N   UNL     1      -5.064   3.111 -32.846  1.00  0.00    -0.300 N 
HETATM   10  C   UNL     1      -3.891   2.449 -32.524  1.00  0.00     0.257 C 
HETATM   11  O   UNL     1      -2.814   3.003 -32.338  1.00  0.00    -0.267 OA
HETATM   12  C   UNL     1      -4.297   4.940 -34.437  1.00  0.00     0.081 C 
HETATM   13  C   UNL     1      -2.872   5.368 -34.110  1.00  0.00     0.131 C 
HETATM   14  O   UNL     1      -0.808   7.181 -33.762  1.00  0.00    -0.267 OA
ENDROOT
BRANCH   8  15
HETATM   15  C   UNL     1      -7.201   2.371 -31.729  1.00  0.00     0.243 C 
HETATM   16  N   UNL     1      -8.370   3.084 -31.740  1.00  0.00    -0.354 N 
HETATM   17  H   UNL     1      -8.535   3.724 -32.512  1.00  0.00     0.162 HD
HETATM   18  O   UNL     1      -6.830   1.715 -30.759  1.00  0.00    -0.271 OA
BRANCH  16  19
HETATM   19  C   UNL     1      -9.217   3.313 -30.589  1.00  0.00     0.181 C 
BRANCH  19  20
HETATM   20  C   UNL     1     -10.652   3.517 -31.040  1.00  0.00     0.051 A 
HETATM   21  N   UNL     1     -10.958   3.143 -32.316  1.00  0.00    -0.264 NA
HETATM   22  C   UNL     1     -12.220   3.355 -32.745  1.00  0.00     0.117 A 
HETATM   23  C   UNL     1     -13.210   3.912 -31.956  1.00  0.00     0.019 A 
HETATM   24  C   UNL     1     -12.889   4.272 -30.651  1.00  0.00     0.003 A 
HETATM   25  C   UNL     1     -11.593   4.074 -30.180  1.00  0.00     0.029 A 
ENDBRANCH  19  20
ENDBRANCH  16  19
ENDBRANCH   8  15
BRANCH  10  26
HETATM   26  C   UNL     1      -3.863   0.969 -32.468  1.00  0.00     0.032 A 
HETATM   27  C   UNL     1      -4.443   0.271 -33.532  1.00  0.00     0.020 A 
HETATM   28  C   UNL     1      -4.374  -1.124 -33.569  1.00  0.00     0.038 A 
HETATM   29  C   UNL     1      -3.718  -1.832 -32.557  1.00  0.00     0.068 A 
HETATM   30  C   UNL     1      -3.131  -1.130 -31.504  1.00  0.00     0.038 A 
HETATM   31  C   UNL     1      -3.190   0.268 -31.468  1.00  0.00     0.020 A 
BRANCH  29  32
HETATM   32  O   UNL     1      -3.709  -3.189 -32.723  1.00  0.00    -0.356 OA
HETATM   33  C   UNL     1      -4.127  -3.685 -33.988  1.00  0.00     0.210 C 
ENDBRANCH  29  32
ENDBRANCH  10  26
BRANCH   1  34
HETATM   34  C   UNL     1      -1.056   7.326 -31.463  1.00  0.00     0.032 A 
HETATM   35  C   UNL     1      -1.788   8.263 -30.728  1.00  0.00     0.017 A 
HETATM   36  C   UNL     1      -1.341   8.659 -29.468  1.00  0.00     0.008 A 
HETATM   37  C   UNL     1      -0.179   8.097 -28.917  1.00  0.00    -0.059 A 
HETATM   38  C   UNL     1       0.525   7.128 -29.648  1.00  0.00     0.008 A 
HETATM   39  C   UNL     1       0.087   6.739 -30.917  1.00  0.00     0.017 A 
BRANCH  37  40
HETATM   40  C   UNL     1       0.299   8.523 -27.550  1.00  0.00     0.034 C 
HETATM   41  C   UNL     1      -0.373   9.801 -27.072  1.00  0.00     0.010 C 
ENDBRANCH  37  40
ENDBRANCH   1  34
TORSDOF 7
ENDMDL
MODEL 3
REMARK VINA RESULT:      -9.3      4.887      9.516
REMARK  7 active torsions:
REMARK  status: ('A' for Active; 'I' for Inactive)
REMARK    1  A    between atoms: C_2  and  C_3 
REMARK    2  A    between atoms: C_6  and  C_7 
REMARK       I    between atoms: C_7  and  N_8 
REMARK    3  A    between atoms: C_14  and  C_15 
REMARK       I    between atoms: C_15  and  N_16 
REMARK    4  A    between atoms: N_16  and  C_17 
REMARK    5  A    between atoms: C_17  and  C_18 
REMARK       I    between atoms: N_25  and  C_26 
REMARK    6  A    between atoms: C_26  and  C_27 
REMARK    7  A    between atoms: C_30  and  O_31 
ROOT
HETATM    1  C   UNL     1      -6.135   2.857 -33.487  1.00  0.00     0.253 C 
HETATM    2  N   UNL     1      -7.147   3.603 -32.863  1.00  0.00    -0.348 N 
HETATM    3  C   UNL     1      -8.433   3.019 -32.486  1.00  0.00     0.131 C 
HETATM    4  C   UNL     1      -9.158   3.814 -31.424  1.00  0.00     0.081 C 
HETATM    5  C   UNL     1      -9.284   5.304 -31.743  1.00  0.00     0.142 C 
HETATM    6  O   UNL     1      -9.637   5.915 -30.460  1.00  0.00    -0.358 OA
HETATM    7  C   UNL     1     -10.569   6.974 -30.710  1.00  0.00     0.206 C 
HETATM    8  C   UNL     1     -11.369   6.491 -31.890  1.00  0.00     0.206 C 
HETATM    9  N   UNL     1     -10.392   5.694 -32.635  1.00  0.00    -0.300 N 
HETATM   10  C   UNL     1     -10.417   5.480 -34.003  1.00  0.00     0.257 C 
HETATM   11  O   UNL     1      -9.613   4.780 -34.608  1.00  0.00    -0.267 OA
HETATM   12  C   UNL     1      -7.911   5.883 -32.108  1.00  0.00     0.081 C 
HETATM   13  C   UNL     1      -7.094   5.047 -33.085  1.00  0.00     0.131 C 
HETATM   14  O   UNL     1      -5.053   3.329 -33.829  1.00  0.00    -0.267 OA
ENDROOT
BRANCH   8  15
HETATM   15  C   UNL     1     -12.579   5.674 -31.379  1.00  0.00     0.243 C 
HETATM   16  N   UNL     1     -12.684   4.413 -31.902  1.00  0.00    -0.354 N 
HETATM   17  H   UNL     1     -12.071   4.160 -32.672  1.00  0.00     0.162 HD
HETATM   18  O   UNL     1     -13.390   6.132 -30.579  1.00  0.00    -0.271 OA
BRANCH  16  19
HETATM   19  C   UNL     1     -13.823   3.535 -31.740  1.00  0.00     0.181 C 
BRANCH  19  20
HETATM   20  C   UNL     1     -13.772   2.430 -32.778  1.00  0.00     0.051 A 
HETATM   21  N   UNL     1     -14.919   1.719 -32.981  1.00  0.00    -0.264 NA
HETATM   22  C   UNL     1     -14.878   0.706 -33.873  1.00  0.00     0.117 A 
HETATM   23  C   UNL     1     -13.747   0.370 -34.595  1.00  0.00     0.019 A 
HETATM   24  C   UNL     1     -12.590   1.116 -34.392  1.00  0.00     0.003 A 
HETATM   25  C   UNL     1     -12.597   2.162 -33.472  1.00  0.00     0.029 A 
ENDBRANCH  19  20
ENDBRANCH  16  19
ENDBRANCH   8  15
BRANCH  10  26
HETATM   26  C   UNL     1     -11.410   6.182 -34.848  1.00  0.00     0.032 A 
HETATM   27  C   UNL     1     -11.046   7.425 -35.374  1.00  0.00     0.020 A 
HETATM   28  C   UNL     1     -11.913   8.095 -36.243  1.00  0.00     0.038 A 
HETATM   29  C   UNL     1     -13.139   7.528 -36.601  1.00  0.00     0.068 A 
HETATM   30  C   UNL     1     -13.493   6.282 -36.081  1.00  0.00     0.038 A 
HETATM   31  C   UNL     1     -12.624   5.604 -35.219  1.00  0.00     0.020 A 
BRANCH  29  32
HETATM   32  O   UNL     1     -13.884   8.278 -37.468  1.00  0.00    -0.356 OA
HETATM   33  C   UNL     1     -13.271   8.633 -38.701  1.00  0.00     0.210 C 
ENDBRANCH  29  32
ENDBRANCH  10  26
BRANCH   1  34
HETATM   34  C   UNL     1      -6.365   1.421 -33.764  1.00  0.00     0.032 A 
HETATM   35  C   UNL     1      -7.051   1.025 -34.916  1.00  0.00     0.017 A 
HETATM   36  C   UNL     1      -7.262  -0.332 -35.166  1.00  0.00     0.008 A 
HETATM   37  C   UNL     1      -6.759  -1.303 -34.286  1.00  0.00    -0.059 A 
HETATM   38  C   UNL     1      -6.037  -0.893 -33.155  1.00  0.00     0.008 A 
HETATM   39  C   UNL     1      -5.836   0.465 -32.895  1.00  0.00     0.017 A 
BRANCH  37  40
HETATM   40  C   UNL     1      -6.982  -2.770 -34.563  1.00  0.00     0.034 C 
HETATM   41  C   UNL     1      -5.704  -3.486 -34.972  1.00  0.00     0.010 C 
ENDBRANCH  37  40
ENDBRANCH   1  34
TORSDOF 7
ENDMDL
MODEL 4
REMARK VINA RESULT:      -9.2      3.509      8.208
REMARK  7 active torsions:
REMARK  status: ('A' for Active; 'I' for Inactive)
REMARK    1  A    between atoms: C_2  and  C_3 
REMARK    2  A    between atoms: C_6  and  C_7 
REMARK       I    between atoms: C_7  and  N_8 
REMARK    3  A    between atoms: C_14  and  C_15 
REMARK       I    between atoms: C_15  and  N_16 
REMARK    4  A    between atoms: N_16  and  C_17 
REMARK    5  A    between atoms: C_17  and  C_18 
REMARK       I    between atoms: N_25  and  C_26 
REMARK    6  A    between atoms: C_26  and  C_27 
REMARK    7  A    between atoms: C_30  and  O_31 
ROOT
HETATM    1  C   UNL     1     -11.694   4.437 -31.705  1.00  0.00     0.253 C 
HETATM    2  N   UNL     1     -10.303   4.321 -31.548  1.00  0.00    -0.348 N 
HETATM    3  C   UNL     1      -9.360   4.743 -32.582  1.00  0.00     0.131 C 
HETATM    4  C   UNL     1      -7.968   4.995 -32.048  1.00  0.00     0.081 C 
HETATM    5  C   UNL     1      -7.410   3.848 -31.206  1.00  0.00     0.142 C 
HETATM    6  O   UNL     1      -6.280   4.446 -30.492  1.00  0.00    -0.358 OA
HETATM    7  C   UNL     1      -5.236   3.470 -30.407  1.00  0.00     0.206 C 
HETATM    8  C   UNL     1      -5.364   2.681 -31.683  1.00  0.00     0.206 C 
HETATM    9  N   UNL     1      -6.805   2.724 -31.943  1.00  0.00    -0.300 N 
HETATM   10  C   UNL     1      -7.517   1.761 -32.639  1.00  0.00     0.257 C 
HETATM   11  O   UNL     1      -8.716   1.829 -32.881  1.00  0.00    -0.267 OA
HETATM   12  C   UNL     1      -8.418   3.453 -30.118  1.00  0.00     0.081 C 
HETATM   13  C   UNL     1      -9.859   3.309 -30.592  1.00  0.00     0.131 C 
HETATM   14  O   UNL     1     -12.507   4.074 -30.858  1.00  0.00    -0.267 OA
ENDROOT
BRANCH   8  15
HETATM   15  C   UNL     1      -4.512   3.357 -32.783  1.00  0.00     0.243 C 
HETATM   16  N   UNL     1      -3.196   3.546 -32.455  1.00  0.00    -0.354 N 
HETATM   17  H   UNL     1      -2.910   3.373 -31.495  1.00  0.00     0.162 HD
HETATM   18  O   UNL     1      -4.988   3.711 -33.858  1.00  0.00    -0.271 OA
BRANCH  16  19
HETATM   19  C   UNL     1      -2.250   4.328 -33.222  1.00  0.00     0.181 C 
BRANCH  19  20
HETATM   20  C   UNL     1      -1.328   5.084 -32.283  1.00  0.00     0.051 A 
HETATM   21  N   UNL     1      -0.965   4.450 -31.130  1.00  0.00    -0.264 NA
HETATM   22  C   UNL     1      -0.177   5.124 -30.266  1.00  0.00     0.117 A 
HETATM   23  C   UNL     1       0.287   6.406 -30.499  1.00  0.00     0.019 A 
HETATM   24  C   UNL     1      -0.075   7.033 -31.687  1.00  0.00     0.003 A 
HETATM   25  C   UNL     1      -0.893   6.367 -32.596  1.00  0.00     0.029 A 
ENDBRANCH  19  20
ENDBRANCH  16  19
ENDBRANCH   8  15
BRANCH  10  26
HETATM   26  C   UNL     1      -6.851   0.511 -33.071  1.00  0.00     0.032 A 
HETATM   27  C   UNL     1      -7.021   0.113 -34.401  1.00  0.00     0.020 A 
HETATM   28  C   UNL     1      -6.351  -1.014 -34.882  1.00  0.00     0.038 A 
HETATM   29  C   UNL     1      -5.500  -1.746 -34.049  1.00  0.00     0.068 A 
HETATM   30  C   UNL     1      -5.324  -1.339 -32.726  1.00  0.00     0.038 A 
HETATM   31  C   UNL     1      -5.987  -0.205 -32.242  1.00  0.00     0.020 A 
BRANCH  29  32
HETATM   32  O   UNL     1      -4.895  -2.815 -34.648  1.00  0.00    -0.356 OA
HETATM   33  C   UNL     1      -5.733  -3.902 -35.023  1.00  0.00     0.210 C 
ENDBRANCH  29  32
ENDBRANCH  10  26
BRANCH   1  34
HETATM   34  C   UNL     1     -12.232   5.020 -32.955  1.00  0.00     0.032 A 
HETATM   35  C   UNL     1     -12.382   4.226 -34.097  1.00  0.00     0.017 A 
HETATM   36  C   UNL     1     -12.890   4.787 -35.269  1.00  0.00     0.008 A 
HETATM   37  C   UNL     1     -13.285   6.134 -35.300  1.00  0.00    -0.059 A 
HETATM   38  C   UNL     1     -13.167   6.907 -34.135  1.00  0.00     0.008 A 
HETATM   39  C   UNL     1     -12.646   6.353 -32.964  1.00  0.00     0.017 A 
BRANCH  37  40
HETATM   40  C   UNL     1     -13.840   6.735 -36.567  1.00  0.00     0.034 C 
HETATM   41  C   UNL     1     -13.098   7.995 -36.987  1.00  0.00     0.010 C 
ENDBRANCH  37  40
ENDBRANCH   1  34
TORSDOF 7
ENDMDL
MODEL 5
REMARK VINA RESULT:      -8.9      3.282      8.989
REMARK  7 active torsions:
REMARK  status: ('A' for Active; 'I' for Inactive)
REMARK    1  A    between atoms: C_2  and  C_3 
REMARK    2  A    between atoms: C_6  and  C_7 
REMARK       I    between atoms: C_7  and  N_8 
REMARK    3  A    between atoms: C_14  and  C_15 
REMARK       I    between atoms: C_15  and  N_16 
REMARK    4  A    between atoms: N_16  and  C_17 
REMARK    5  A    between atoms: C_17  and  C_18 
REMARK       I    between atoms: N_25  and  C_26 
REMARK    6  A    between atoms: C_26  and  C_27 
REMARK    7  A    between atoms: C_30  and  O_31 
ROOT
HETATM    1  C   UNL     1      -7.592   3.334 -30.550  1.00  0.00     0.253 C 
HETATM    2  N   UNL     1      -7.031   4.621 -30.535  1.00  0.00    -0.348 N 
HETATM    3  C   UNL     1      -5.623   4.865 -30.846  1.00  0.00     0.131 C 
HETATM    4  C   UNL     1      -5.346   6.296 -31.252  1.00  0.00     0.081 C 
HETATM    5  C   UNL     1      -5.900   7.335 -30.277  1.00  0.00     0.142 C 
HETATM    6  O   UNL     1      -5.873   8.586 -31.037  1.00  0.00    -0.358 OA
HETATM    7  C   UNL     1      -5.515   9.646 -30.142  1.00  0.00     0.206 C 
HETATM    8  C   UNL     1      -4.571   8.999 -29.164  1.00  0.00     0.206 C 
HETATM    9  N   UNL     1      -5.077   7.627 -29.089  1.00  0.00    -0.300 N 
HETATM   10  C   UNL     1      -4.943   6.789 -27.995  1.00  0.00     0.257 C 
HETATM   11  O   UNL     1      -5.339   5.630 -27.960  1.00  0.00    -0.267 OA
HETATM   12  C   UNL     1      -7.383   7.057 -29.997  1.00  0.00     0.081 C 
HETATM   13  C   UNL     1      -7.726   5.602 -29.704  1.00  0.00     0.131 C 
HETATM   14  O   UNL     1      -8.767   3.100 -30.275  1.00  0.00    -0.267 OA
ENDROOT
BRANCH   8  15
HETATM   15  C   UNL     1      -3.128   9.103 -29.712  1.00  0.00     0.243 C 
HETATM   16  N   UNL     1      -3.008   8.886 -31.058  1.00  0.00    -0.354 N 
HETATM   17  H   UNL     1      -3.819   8.539 -31.564  1.00  0.00     0.162 HD
HETATM   18  O   UNL     1      -2.166   9.344 -28.988  1.00  0.00    -0.271 OA
BRANCH  16  19
HETATM   19  C   UNL     1      -1.757   8.730 -31.770  1.00  0.00     0.181 C 
BRANCH  19  20
HETATM   20  C   UNL     1      -1.731   7.387 -32.476  1.00  0.00     0.051 A 
HETATM   21  N   UNL     1      -1.789   7.405 -33.839  1.00  0.00    -0.264 NA
HETATM   22  C   UNL     1      -1.807   6.217 -34.480  1.00  0.00     0.117 A 
HETATM   23  C   UNL     1      -1.754   4.998 -33.829  1.00  0.00     0.019 A 
HETATM   24  C   UNL     1      -1.676   4.995 -32.440  1.00  0.00     0.003 A 
HETATM   25  C   UNL     1      -1.663   6.205 -31.748  1.00  0.00     0.029 A 
ENDBRANCH  19  20
ENDBRANCH  16  19
ENDBRANCH   8  15
BRANCH  10  26
HETATM   26  C   UNL     1      -4.364   7.301 -26.732  1.00  0.00     0.032 A 
HETATM   27  C   UNL     1      -3.060   6.907 -26.412  1.00  0.00     0.020 A 
HETATM   28  C   UNL     1      -2.437   7.424 -25.273  1.00  0.00     0.038 A 
HETATM   29  C   UNL     1      -3.099   8.342 -24.453  1.00  0.00     0.068 A 
HETATM   30  C   UNL     1      -4.395   8.740 -24.783  1.00  0.00     0.038 A 
HETATM   31  C   UNL     1      -5.020   8.232 -25.927  1.00  0.00     0.020 A 
BRANCH  29  32
HETATM   32  O   UNL     1      -2.372   8.781 -23.382  1.00  0.00    -0.356 OA
HETATM   33  C   UNL     1      -1.425   9.814 -23.628  1.00  0.00     0.210 C 
ENDBRANCH  29  32
ENDBRANCH  10  26
BRANCH   1  34
HETATM   34  C   UNL     1      -6.737   2.179 -30.907  1.00  0.00     0.032 A 
HETATM   35  C   UNL     1      -6.071   1.459 -29.911  1.00  0.00     0.017 A 
HETATM   36  C   UNL     1      -5.268   0.372 -30.260  1.00  0.00     0.008 A 
HETATM   37  C   UNL     1      -5.153  -0.025 -31.601  1.00  0.00    -0.059 A 
HETATM   38  C   UNL     1      -5.859   0.682 -32.586  1.00  0.00     0.008 A 
HETATM   39  C   UNL     1      -6.653   1.778 -32.242  1.00  0.00     0.017 A 
BRANCH  37  40
HETATM   40  C   UNL     1      -4.289  -1.205 -31.975  1.00  0.00     0.034 C 
HETATM   41  C   UNL     1      -4.396  -1.559 -33.450  1.00  0.00     0.010 C 
ENDBRANCH  37  40
ENDBRANCH   1  34
TORSDOF 7
ENDMDL
MODEL 6
REMARK VINA RESULT:      -8.5      2.998      8.869
REMARK  7 active torsions:
REMARK  status: ('A' for Active; 'I' for Inactive)
REMARK    1  A    between atoms: C_2  and  C_3 
REMARK    2  A    between atoms: C_6  and  C_7 
REMARK       I    between atoms: C_7  and  N_8 
REMARK    3  A    between atoms: C_14  and  C_15 
REMARK       I    between atoms: C_15  and  N_16 
REMARK    4  A    between atoms: N_16  and  C_17 
REMARK    5  A    between atoms: C_17  and  C_18 
REMARK       I    between atoms: N_25  and  C_26 
REMARK    6  A    between atoms: C_26  and  C_27 
REMARK    7  A    between atoms: C_30  and  O_31 
ROOT
HETATM    1  C   UNL     1      -7.918   3.102 -30.872  1.00  0.00     0.253 C 
HETATM    2  N   UNL     1      -7.405   4.407 -30.960  1.00  0.00    -0.348 N 
HETATM    3  C   UNL     1      -6.072   4.691 -31.490  1.00  0.00     0.131 C 
HETATM    4  C   UNL     1      -5.909   6.122 -31.951  1.00  0.00     0.081 C 
HETATM    5  C   UNL     1      -6.340   7.159 -30.913  1.00  0.00     0.142 C 
HETATM    6  O   UNL     1      -6.474   8.398 -31.682  1.00  0.00    -0.358 OA
HETATM    7  C   UNL     1      -6.017   9.483 -30.867  1.00  0.00     0.206 C 
HETATM    8  C   UNL     1      -4.911   8.883 -30.041  1.00  0.00     0.206 C 
HETATM    9  N   UNL     1      -5.352   7.497 -29.871  1.00  0.00    -0.300 N 
HETATM   10  C   UNL     1      -5.022   6.682 -28.802  1.00  0.00     0.257 C 
HETATM   11  O   UNL     1      -5.368   5.512 -28.693  1.00  0.00    -0.267 OA
HETATM   12  C   UNL     1      -7.751   6.839 -30.402  1.00  0.00     0.081 C 
HETATM   13  C   UNL     1      -7.995   5.379 -30.043  1.00  0.00     0.131 C 
HETATM   14  O   UNL     1      -9.027   2.837 -30.416  1.00  0.00    -0.267 OA
ENDROOT
BRANCH   8  15
HETATM   15  C   UNL     1      -3.575   9.023 -30.809  1.00  0.00     0.243 C 
HETATM   16  N   UNL     1      -2.967   7.838 -31.123  1.00  0.00    -0.354 N 
HETATM   17  H   UNL     1      -3.341   6.983 -30.719  1.00  0.00     0.162 HD
HETATM   18  O   UNL     1      -3.094  10.116 -31.096  1.00  0.00    -0.271 OA
BRANCH  16  19
HETATM   19  C   UNL     1      -1.628   7.704 -31.656  1.00  0.00     0.181 C 
BRANCH  19  20
HETATM   20  C   UNL     1      -0.747   6.981 -30.654  1.00  0.00     0.051 A 
HETATM   21  N   UNL     1      -0.615   5.631 -30.807  1.00  0.00    -0.264 NA
HETATM   22  C   UNL     1       0.133   4.968 -29.900  1.00  0.00     0.117 A 
HETATM   23  C   UNL     1       0.779   5.587 -28.845  1.00  0.00     0.019 A 
HETATM   24  C   UNL     1       0.652   6.966 -28.712  1.00  0.00     0.003 A 
HETATM   25  C   UNL     1      -0.120   7.679 -29.627  1.00  0.00     0.029 A 
ENDBRANCH  19  20
ENDBRANCH  16  19
ENDBRANCH   8  15
BRANCH  10  26
HETATM   26  C   UNL     1      -4.271   7.233 -27.651  1.00  0.00     0.032 A 
HETATM   27  C   UNL     1      -5.010   7.796 -26.606  1.00  0.00     0.020 A 
HETATM   28  C   UNL     1      -4.357   8.258 -25.461  1.00  0.00     0.038 A 
HETATM   29  C   UNL     1      -2.968   8.152 -25.342  1.00  0.00     0.068 A 
HETATM   30  C   UNL     1      -2.235   7.579 -26.382  1.00  0.00     0.038 A 
HETATM   31  C   UNL     1      -2.887   7.107 -27.528  1.00  0.00     0.020 A 
BRANCH  29  32
HETATM   32  O   UNL     1      -2.457   8.627 -24.166  1.00  0.00    -0.356 OA
HETATM   33  C   UNL     1      -1.498   9.673 -24.257  1.00  0.00     0.210 C 
ENDBRANCH  29  32
ENDBRANCH  10  26
BRANCH   1  34
HETATM   34  C   UNL     1      -7.090   1.969 -31.345  1.00  0.00     0.032 A 
HETATM   35  C   UNL     1      -7.121   1.585 -32.689  1.00  0.00     0.017 A 
HETATM   36  C   UNL     1      -6.336   0.516 -33.123  1.00  0.00     0.008 A 
HETATM   37  C   UNL     1      -5.489  -0.154 -32.226  1.00  0.00    -0.059 A 
HETATM   38  C   UNL     1      -5.438   0.268 -30.889  1.00  0.00     0.008 A 
HETATM   39  C   UNL     1      -6.232   1.330 -30.448  1.00  0.00     0.017 A 
BRANCH  37  40
HETATM   40  C   UNL     1      -4.636  -1.305 -32.700  1.00  0.00     0.034 C 
HETATM   41  C   UNL     1      -5.144  -1.907 -34.002  1.00  0.00     0.010 C 
ENDBRANCH  37  40
ENDBRANCH   1  34
TORSDOF 7
ENDMDL
MODEL 7
REMARK VINA RESULT:      -8.0      4.308      9.189
REMARK  7 active torsions:
REMARK  status: ('A' for Active; 'I' for Inactive)
REMARK    1  A    between atoms: C_2  and  C_3 
REMARK    2  A    between atoms: C_6  and  C_7 
REMARK       I    between atoms: C_7  and  N_8 
REMARK    3  A    between atoms: C_14  and  C_15 
REMARK       I    between atoms: C_15  and  N_16 
REMARK    4  A    between atoms: N_16  and  C_17 
REMARK    5  A    between atoms: C_17  and  C_18 
REMARK       I    between atoms: N_25  and  C_26 
REMARK    6  A    between atoms: C_26  and  C_27 
REMARK    7  A    between atoms: C_30  and  O_31 
ROOT
HETATM    1  C   UNL     1      -5.241   1.300 -32.965  1.00  0.00     0.253 C 
HETATM    2  N   UNL     1      -6.197   2.088 -32.303  1.00  0.00    -0.348 N 
HETATM    3  C   UNL     1      -7.561   1.623 -32.057  1.00  0.00     0.131 C 
HETATM    4  C   UNL     1      -8.252   2.375 -30.942  1.00  0.00     0.081 C 
HETATM    5  C   UNL     1      -8.188   3.896 -31.087  1.00  0.00     0.142 C 
HETATM    6  O   UNL     1      -8.544   4.396 -29.758  1.00  0.00    -0.358 OA
HETATM    7  C   UNL     1      -9.332   5.581 -29.921  1.00  0.00     0.206 C 
HETATM    8  C   UNL     1     -10.110   5.334 -31.186  1.00  0.00     0.206 C 
HETATM    9  N   UNL     1      -9.189   4.515 -31.976  1.00  0.00    -0.300 N 
HETATM   10  C   UNL     1      -9.157   4.461 -33.359  1.00  0.00     0.257 C 
HETATM   11  O   UNL     1      -8.404   3.742 -34.005  1.00  0.00    -0.267 OA
HETATM   12  C   UNL     1      -6.738   4.343 -31.318  1.00  0.00     0.081 C 
HETATM   13  C   UNL     1      -5.966   3.530 -32.349  1.00  0.00     0.131 C 
HETATM   14  O   UNL     1      -4.095   1.673 -33.198  1.00  0.00    -0.267 OA
ENDROOT
BRANCH   8  15
HETATM   15  C   UNL     1     -11.435   4.617 -30.832  1.00  0.00     0.243 C 
HETATM   16  N   UNL     1     -12.517   5.011 -31.570  1.00  0.00    -0.354 N 
HETATM   17  H   UNL     1     -12.417   5.822 -32.175  1.00  0.00     0.162 HD
HETATM   18  O   UNL     1     -11.506   3.771 -29.944  1.00  0.00    -0.271 OA
BRANCH  16  19
HETATM   19  C   UNL     1     -13.891   4.642 -31.299  1.00  0.00     0.181 C 
BRANCH  19  20
HETATM   20  C   UNL     1     -14.280   3.451 -32.156  1.00  0.00     0.051 A 
HETATM   21  N   UNL     1     -15.571   3.017 -32.062  1.00  0.00    -0.264 NA
HETATM   22  C   UNL     1     -15.922   1.935 -32.787  1.00  0.00     0.117 A 
HETATM   23  C   UNL     1     -15.050   1.262 -33.624  1.00  0.00     0.019 A 
HETATM   24  C   UNL     1     -13.743   1.726 -33.725  1.00  0.00     0.003 A 
HETATM   25  C   UNL     1     -13.346   2.837 -32.983  1.00  0.00     0.029 A 
ENDBRANCH  19  20
ENDBRANCH  16  19
ENDBRANCH   8  15
BRANCH  10  26
HETATM   26  C   UNL     1     -10.011   5.369 -34.158  1.00  0.00     0.032 A 
HETATM   27  C   UNL     1     -11.109   4.810 -34.819  1.00  0.00     0.020 A 
HETATM   28  C   UNL     1     -11.993   5.633 -35.521  1.00  0.00     0.038 A 
HETATM   29  C   UNL     1     -11.798   7.016 -35.561  1.00  0.00     0.068 A 
HETATM   30  C   UNL     1     -10.707   7.572 -34.891  1.00  0.00     0.038 A 
HETATM   31  C   UNL     1      -9.824   6.751 -34.179  1.00  0.00     0.020 A 
BRANCH  29  32
HETATM   32  O   UNL     1     -12.742   7.707 -36.268  1.00  0.00    -0.356 OA
HETATM   33  C   UNL     1     -13.379   8.791 -35.602  1.00  0.00     0.210 C 
ENDBRANCH  29  32
ENDBRANCH  10  26
BRANCH   1  34
HETATM   34  C   UNL     1      -5.618  -0.058 -33.421  1.00  0.00     0.032 A 
HETATM   35  C   UNL     1      -5.052  -1.187 -32.820  1.00  0.00     0.017 A 
HETATM   36  C   UNL     1      -5.416  -2.461 -33.258  1.00  0.00     0.008 A 
HETATM   37  C   UNL     1      -6.371  -2.618 -34.274  1.00  0.00    -0.059 A 
HETATM   38  C   UNL     1      -6.960  -1.477 -34.840  1.00  0.00     0.008 A 
HETATM   39  C   UNL     1      -6.589  -0.200 -34.414  1.00  0.00     0.017 A 
BRANCH  37  40
HETATM   40  C   UNL     1      -6.766  -3.997 -34.741  1.00  0.00     0.034 C 
HETATM   41  C   UNL     1      -5.761  -4.591 -35.717  1.00  0.00     0.010 C 
ENDBRANCH  37  40
ENDBRANCH   1  34
TORSDOF 7
ENDMDL
MODEL 8
REMARK VINA RESULT:      -7.9      5.442      9.716
REMARK  7 active torsions:
REMARK  status: ('A' for Active; 'I' for Inactive)
REMARK    1  A    between atoms: C_2  and  C_3 
REMARK    2  A    between atoms: C_6  and  C_7 
REMARK       I    between atoms: C_7  and  N_8 
REMARK    3  A    between atoms: C_14  and  C_15 
REMARK       I    between atoms: C_15  and  N_16 
REMARK    4  A    between atoms: N_16  and  C_17 
REMARK    5  A    between atoms: C_17  and  C_18 
REMARK       I    between atoms: N_25  and  C_26 
REMARK    6  A    between atoms: C_26  and  C_27 
REMARK    7  A    between atoms: C_30  and  O_31 
ROOT
HETATM    1  C   UNL     1      -6.093   2.587 -33.202  1.00  0.00     0.253 C 
HETATM    2  N   UNL     1      -7.145   3.283 -32.585  1.00  0.00    -0.348 N 
HETATM    3  C   UNL     1      -8.441   2.664 -32.312  1.00  0.00     0.131 C 
HETATM    4  C   UNL     1      -9.228   3.383 -31.240  1.00  0.00     0.081 C 
HETATM    5  C   UNL     1      -9.357   4.889 -31.470  1.00  0.00     0.142 C 
HETATM    6  O   UNL     1      -9.782   5.413 -30.170  1.00  0.00    -0.358 OA
HETATM    7  C   UNL     1     -10.712   6.477 -30.399  1.00  0.00     0.206 C 
HETATM    8  C   UNL     1     -11.445   6.064 -31.648  1.00  0.00     0.206 C 
HETATM    9  N   UNL     1     -10.422   5.326 -32.391  1.00  0.00    -0.300 N 
HETATM   10  C   UNL     1     -10.376   5.199 -33.769  1.00  0.00     0.257 C 
HETATM   11  O   UNL     1      -9.534   4.547 -34.375  1.00  0.00    -0.267 OA
HETATM   12  C   UNL     1      -7.974   5.503 -31.727  1.00  0.00     0.081 C 
HETATM   13  C   UNL     1      -7.098   4.738 -32.711  1.00  0.00     0.131 C 
HETATM   14  O   UNL     1      -5.002   3.090 -33.457  1.00  0.00    -0.267 OA
ENDROOT
BRANCH   8  15
HETATM   15  C   UNL     1     -12.670   5.205 -31.253  1.00  0.00     0.243 C 
HETATM   16  N   UNL     1     -13.863   5.635 -31.768  1.00  0.00    -0.354 N 
HETATM   17  H   UNL     1     -13.888   6.538 -32.234  1.00  0.00     0.162 HD
HETATM   18  O   UNL     1     -12.576   4.225 -30.519  1.00  0.00    -0.271 OA
BRANCH  16  19
HETATM   19  C   UNL     1     -15.165   5.128 -31.389  1.00  0.00     0.181 C 
BRANCH  19  20
HETATM   20  C   UNL     1     -16.228   5.707 -32.305  1.00  0.00     0.051 A 
HETATM   21  N   UNL     1     -17.488   5.197 -32.190  1.00  0.00    -0.264 NA
HETATM   22  C   UNL     1     -18.435   5.674 -33.025  1.00  0.00     0.117 A 
HETATM   23  C   UNL     1     -18.195   6.655 -33.970  1.00  0.00     0.019 A 
HETATM   24  C   UNL     1     -16.910   7.179 -34.064  1.00  0.00     0.003 A 
HETATM   25  C   UNL     1     -15.908   6.703 -33.222  1.00  0.00     0.029 A 
ENDBRANCH  19  20
ENDBRANCH  16  19
ENDBRANCH   8  15
BRANCH  10  26
HETATM   26  C   UNL     1     -11.333   5.946 -34.617  1.00  0.00     0.032 A 
HETATM   27  C   UNL     1     -10.941   7.207 -35.078  1.00  0.00     0.020 A 
HETATM   28  C   UNL     1     -11.772   7.920 -35.946  1.00  0.00     0.038 A 
HETATM   29  C   UNL     1     -12.989   7.380 -36.370  1.00  0.00     0.068 A 
HETATM   30  C   UNL     1     -13.371   6.116 -35.917  1.00  0.00     0.038 A 
HETATM   31  C   UNL     1     -12.537   5.395 -35.054  1.00  0.00     0.020 A 
BRANCH  29  32
HETATM   32  O   UNL     1     -13.698   8.172 -37.230  1.00  0.00    -0.356 OA
HETATM   33  C   UNL     1     -15.077   7.868 -37.396  1.00  0.00     0.210 C 
ENDBRANCH  29  32
ENDBRANCH  10  26
BRANCH   1  34
HETATM   34  C   UNL     1      -6.292   1.170 -33.581  1.00  0.00     0.032 A 
HETATM   35  C   UNL     1      -6.946   0.842 -34.773  1.00  0.00     0.017 A 
HETATM   36  C   UNL     1      -7.126  -0.497 -35.119  1.00  0.00     0.008 A 
HETATM   37  C   UNL     1      -6.625  -1.519 -34.297  1.00  0.00    -0.059 A 
HETATM   38  C   UNL     1      -5.936  -1.175 -33.124  1.00  0.00     0.008 A 
HETATM   39  C   UNL     1      -5.764   0.165 -32.768  1.00  0.00     0.017 A 
BRANCH  37  40
HETATM   40  C   UNL     1      -6.817  -2.966 -34.678  1.00  0.00     0.034 C 
HETATM   41  C   UNL     1      -5.504  -3.656 -35.018  1.00  0.00     0.010 C 
ENDBRANCH  37  40
ENDBRANCH   1  34
TORSDOF 7
ENDMDL
MODEL 9
REMARK VINA RESULT:      -7.9      4.006      7.855
REMARK  7 active torsions:
REMARK  status: ('A' for Active; 'I' for Inactive)
REMARK    1  A    between atoms: C_2  and  C_3 
REMARK    2  A    between atoms: C_6  and  C_7 
REMARK       I    between atoms: C_7  and  N_8 
REMARK    3  A    between atoms: C_14  and  C_15 
REMARK       I    between atoms: C_15  and  N_16 
REMARK    4  A    between atoms: N_16  and  C_17 
REMARK    5  A    between atoms: C_17  and  C_18 
REMARK       I    between atoms: N_25  and  C_26 
REMARK    6  A    between atoms: C_26  and  C_27 
REMARK    7  A    between atoms: C_30  and  O_31 
ROOT
HETATM    1  C   UNL     1      -5.759   6.552 -30.222  1.00  0.00     0.253 C 
HETATM    2  N   UNL     1      -6.988   5.910 -30.446  1.00  0.00    -0.348 N 
HETATM    3  C   UNL     1      -7.165   4.897 -31.485  1.00  0.00     0.131 C 
HETATM    4  C   UNL     1      -8.363   4.005 -31.245  1.00  0.00     0.081 C 
HETATM    5  C   UNL     1      -9.659   4.769 -30.971  1.00  0.00     0.142 C 
HETATM    6  O   UNL     1     -10.551   3.762 -30.394  1.00  0.00    -0.358 OA
HETATM    7  C   UNL     1     -11.877   4.009 -30.876  1.00  0.00     0.206 C 
HETATM    8  C   UNL     1     -11.670   4.545 -32.268  1.00  0.00     0.206 C 
HETATM    9  N   UNL     1     -10.397   5.259 -32.150  1.00  0.00    -0.300 N 
HETATM   10  C   UNL     1     -10.016   6.341 -32.926  1.00  0.00     0.257 C 
HETATM   11  O   UNL     1      -8.932   6.905 -32.841  1.00  0.00    -0.267 OA
HETATM   12  C   UNL     1      -9.436   5.803 -29.859  1.00  0.00     0.081 C 
HETATM   13  C   UNL     1      -8.171   6.641 -29.997  1.00  0.00     0.131 C 
HETATM   14  O   UNL     1      -5.589   7.418 -29.367  1.00  0.00    -0.267 OA
ENDROOT
BRANCH   8  15
HETATM   15  C   UNL     1     -11.631   3.362 -33.264  1.00  0.00     0.243 C 
HETATM   16  N   UNL     1     -11.186   2.180 -32.735  1.00  0.00    -0.354 N 
HETATM   17  H   UNL     1     -10.786   2.192 -31.801  1.00  0.00     0.162 HD
HETATM   18  O   UNL     1     -11.960   3.483 -34.441  1.00  0.00    -0.271 OA
BRANCH  16  19
HETATM   19  C   UNL     1     -10.872   0.991 -33.498  1.00  0.00     0.181 C 
BRANCH  19  20
HETATM   20  C   UNL     1      -9.376   0.734 -33.455  1.00  0.00     0.051 A 
HETATM   21  N   UNL     1      -8.816   0.552 -32.224  1.00  0.00    -0.264 NA
HETATM   22  C   UNL     1      -7.481   0.362 -32.166  1.00  0.00     0.117 A 
HETATM   23  C   UNL     1      -6.666   0.327 -33.284  1.00  0.00     0.019 A 
HETATM   24  C   UNL     1      -7.254   0.495 -34.533  1.00  0.00     0.003 A 
HETATM   25  C   UNL     1      -8.628   0.701 -34.627  1.00  0.00     0.029 A 
ENDBRANCH  19  20
ENDBRANCH  16  19
ENDBRANCH   8  15
BRANCH  10  26
HETATM   26  C   UNL     1     -10.975   6.946 -33.879  1.00  0.00     0.032 A 
HETATM   27  C   UNL     1     -11.896   7.868 -33.373  1.00  0.00     0.020 A 
HETATM   28  C   UNL     1     -12.770   8.528 -34.240  1.00  0.00     0.038 A 
HETATM   29  C   UNL     1     -12.725   8.285 -35.616  1.00  0.00     0.068 A 
HETATM   30  C   UNL     1     -11.797   7.373 -36.119  1.00  0.00     0.038 A 
HETATM   31  C   UNL     1     -10.914   6.716 -35.254  1.00  0.00     0.020 A 
BRANCH  29  32
HETATM   32  O   UNL     1     -13.622   9.007 -36.353  1.00  0.00    -0.356 OA
HETATM   33  C   UNL     1     -13.888   8.547 -37.673  1.00  0.00     0.210 C 
ENDBRANCH  29  32
ENDBRANCH  10  26
BRANCH   1  34
HETATM   34  C   UNL     1      -4.592   6.184 -31.055  1.00  0.00     0.032 A 
HETATM   35  C   UNL     1      -4.089   7.082 -32.002  1.00  0.00     0.017 A 
HETATM   36  C   UNL     1      -2.988   6.723 -32.780  1.00  0.00     0.008 A 
HETATM   37  C   UNL     1      -2.361   5.481 -32.597  1.00  0.00    -0.059 A 
HETATM   38  C   UNL     1      -2.852   4.607 -31.615  1.00  0.00     0.008 A 
HETATM   39  C   UNL     1      -3.961   4.956 -30.843  1.00  0.00     0.017 A 
BRANCH  37  40
HETATM   40  C   UNL     1      -1.166   5.099 -33.436  1.00  0.00     0.034 C 
HETATM   41  C   UNL     1      -1.445   5.209 -34.928  1.00  0.00     0.010 C 
ENDBRANCH  37  40
ENDBRANCH   1  34
TORSDOF 7
ENDMDL
MODEL 10
REMARK VINA RESULT:      -7.8      4.993      9.370
REMARK  7 active torsions:
REMARK  status: ('A' for Active; 'I' for Inactive)
REMARK    1  A    between atoms: C_2  and  C_3 
REMARK    2  A    between atoms: C_6  and  C_7 
REMARK       I    between atoms: C_7  and  N_8 
REMARK    3  A    between atoms: C_14  and  C_15 
REMARK       I    between atoms: C_15  and  N_16 
REMARK    4  A    between atoms: N_16  and  C_17 
REMARK    5  A    between atoms: C_17  and  C_18 
REMARK       I    between atoms: N_25  and  C_26 
REMARK    6  A    between atoms: C_26  and  C_27 
REMARK    7  A    between atoms: C_30  and  O_31 
ROOT
HETATM    1  C   UNL     1      -6.085   2.605 -33.170  1.00  0.00     0.253 C 
HETATM    2  N   UNL     1      -7.146   3.321 -32.592  1.00  0.00    -0.348 N 
HETATM    3  C   UNL     1      -8.465   2.729 -32.375  1.00  0.00     0.131 C 
HETATM    4  C   UNL     1      -9.279   3.461 -31.331  1.00  0.00     0.081 C 
HETATM    5  C   UNL     1      -9.366   4.970 -31.558  1.00  0.00     0.142 C 
HETATM    6  O   UNL     1      -9.831   5.498 -30.275  1.00  0.00    -0.358 OA
HETATM    7  C   UNL     1     -10.729   6.583 -30.535  1.00  0.00     0.206 C 
HETATM    8  C   UNL     1     -11.420   6.191 -31.814  1.00  0.00     0.206 C 
HETATM    9  N   UNL     1     -10.384   5.434 -32.519  1.00  0.00    -0.300 N 
HETATM   10  C   UNL     1     -10.284   5.312 -33.895  1.00  0.00     0.257 C 
HETATM   11  O   UNL     1      -9.433   4.644 -34.470  1.00  0.00    -0.267 OA
HETATM   12  C   UNL     1      -7.961   5.555 -31.756  1.00  0.00     0.081 C 
HETATM   13  C   UNL     1      -7.062   4.775 -32.709  1.00  0.00     0.131 C 
HETATM   14  O   UNL     1      -4.974   3.085 -33.378  1.00  0.00    -0.267 OA
ENDROOT
BRANCH   8  15
HETATM   15  C   UNL     1     -12.678   5.357 -31.473  1.00  0.00     0.243 C 
HETATM   16  N   UNL     1     -13.844   6.072 -31.421  1.00  0.00    -0.354 N 
HETATM   17  H   UNL     1     -13.788   7.086 -31.462  1.00  0.00     0.162 HD
HETATM   18  O   UNL     1     -12.625   4.151 -31.249  1.00  0.00    -0.271 OA
BRANCH  16  19
HETATM   19  C   UNL     1     -15.109   5.567 -30.932  1.00  0.00     0.181 C 
BRANCH  19  20
HETATM   20  C   UNL     1     -15.439   6.213 -29.599  1.00  0.00     0.051 A 
HETATM   21  N   UNL     1     -16.677   6.773 -29.473  1.00  0.00    -0.264 NA
HETATM   22  C   UNL     1     -16.970   7.386 -28.306  1.00  0.00     0.117 A 
HETATM   23  C   UNL     1     -16.092   7.458 -27.240  1.00  0.00     0.019 A 
HETATM   24  C   UNL     1     -14.841   6.866 -27.376  1.00  0.00     0.003 A 
HETATM   25  C   UNL     1     -14.504   6.232 -28.570  1.00  0.00     0.029 A 
ENDBRANCH  19  20
ENDBRANCH  16  19
ENDBRANCH   8  15
BRANCH  10  26
HETATM   26  C   UNL     1     -11.190   6.083 -34.777  1.00  0.00     0.032 A 
HETATM   27  C   UNL     1     -10.697   7.266 -35.335  1.00  0.00     0.020 A 
HETATM   28  C   UNL     1     -11.481   7.991 -36.237  1.00  0.00     0.038 A 
HETATM   29  C   UNL     1     -12.753   7.537 -36.599  1.00  0.00     0.068 A 
HETATM   30  C   UNL     1     -13.237   6.350 -36.048  1.00  0.00     0.038 A 
HETATM   31  C   UNL     1     -12.451   5.617 -35.151  1.00  0.00     0.020 A 
BRANCH  29  32
HETATM   32  O   UNL     1     -13.407   8.329 -37.500  1.00  0.00    -0.356 OA
HETATM   33  C   UNL     1     -12.653   8.796 -38.613  1.00  0.00     0.210 C 
ENDBRANCH  29  32
ENDBRANCH  10  26
BRANCH   1  34
HETATM   34  C   UNL     1      -6.299   1.194 -33.564  1.00  0.00     0.032 A 
HETATM   35  C   UNL     1      -6.883   0.885 -34.797  1.00  0.00     0.017 A 
HETATM   36  C   UNL     1      -7.078  -0.448 -35.157  1.00  0.00     0.008 A 
HETATM   37  C   UNL     1      -6.661  -1.483 -34.305  1.00  0.00    -0.059 A 
HETATM   38  C   UNL     1      -6.040  -1.159 -33.089  1.00  0.00     0.008 A 
HETATM   39  C   UNL     1      -5.854   0.175 -32.720  1.00  0.00     0.017 A 
BRANCH  37  40
HETATM   40  C   UNL     1      -6.868  -2.925 -34.700  1.00  0.00     0.034 C 
HETATM   41  C   UNL     1      -5.562  -3.703 -34.764  1.00  0.00     0.010 C 
ENDBRANCH  37  40
ENDBRANCH   1  34
TORSDOF 7
ENDMDL
