MODEL 1
REMARK VINA RESULT:      -9.0      0.000      0.000
REMARK  8 active torsions:
REMARK  status: ('A' for Active; 'I' for Inactive)
REMARK    1  A    between atoms: C_5  and  O_6 
REMARK    2  A    between atoms: O_6  and  C_7 
REMARK    3  A    between atoms: C_7  and  C_8 
REMARK    4  A    between atoms: C_12  and  S_13 
REMARK    5  A    between atoms: S_13  and  C_14 
REMARK    6  A    between atoms: C_14  and  C_15 
REMARK       I    between atoms: C_15  and  N_16 
REMARK    7  A    between atoms: N_16  and  C_17 
REMARK    8  A    between atoms: C_20  and  C_21 
REMARK       I    between atoms: C_21  and  N_22 
ROOT
HETATM    1  S   UNL     1      -6.232   3.396 -30.394  1.00  0.00    -0.081 SA
ENDROOT
BRANCH   1   2
HETATM    2  C   UNL     1      -4.609   3.577 -30.926  1.00  0.00     0.185 A 
HETATM    3  N   UNL     1      -3.715   2.556 -30.904  1.00  0.00    -0.254 N 
HETATM    4  N   UNL     1      -2.533   2.943 -31.416  1.00  0.00    -0.155 NA
HETATM    5  H   UNL     1      -3.839   1.607 -30.572  1.00  0.00     0.191 HD
HETATM    6  C   UNL     1      -2.797   4.214 -31.770  1.00  0.00     0.172 A 
HETATM    7  N   UNL     1      -4.066   4.642 -31.451  1.00  0.00    -0.204 NA
BRANCH   6   8
HETATM    8  C   UNL     1      -1.811   5.106 -32.457  1.00  0.00     0.258 C 
BRANCH   8   9
HETATM    9  O   UNL     1      -0.489   4.906 -31.943  1.00  0.00    -0.344 OA
BRANCH   9  10
HETATM   10  C   UNL     1      -0.137   5.626 -30.835  1.00  0.00     0.069 A 
HETATM   11  C   UNL     1       0.437   4.870 -29.811  1.00  0.00     0.037 A 
HETATM   12  C   UNL     1       0.855   5.476 -28.623  1.00  0.00     0.009 A 
HETATM   13  C   UNL     1       0.699   6.854 -28.443  1.00  0.00    -0.062 A 
HETATM   14  C   UNL     1       1.180   7.519 -27.188  1.00  0.00     0.048 C 
HETATM   15  C   UNL     1       0.140   7.611 -29.478  1.00  0.00     0.009 A 
HETATM   16  C   UNL     1      -0.282   7.002 -30.665  1.00  0.00     0.037 A 
ENDBRANCH   9  10
ENDBRANCH   8   9
ENDBRANCH   6   8
ENDBRANCH   1   2
BRANCH   1  17
HETATM   17  C   UNL     1      -7.016   2.750 -31.903  1.00  0.00     0.185 C 
BRANCH  17  18
HETATM   18  C   UNL     1      -7.014   1.233 -32.082  1.00  0.00     0.231 C 
HETATM   19  N   UNL     1      -6.231   0.744 -33.106  1.00  0.00    -0.327 N 
HETATM   20  H   UNL     1      -5.821   1.447 -33.709  1.00  0.00     0.169 HD
HETATM   21  O   UNL     1      -7.654   0.544 -31.286  1.00  0.00    -0.272 OA
BRANCH  19  22
HETATM   22  C   UNL     1      -6.069  -0.592 -33.518  1.00  0.00     0.034 A 
HETATM   23  C   UNL     1      -7.075  -1.357 -34.113  1.00  0.00     0.030 A 
HETATM   24  C   UNL     1      -6.826  -2.677 -34.512  1.00  0.00     0.019 A 
HETATM   25  C   UNL     1      -5.563  -3.245 -34.321  1.00  0.00     0.032 A 
HETATM   26  C   UNL     1      -4.560  -2.491 -33.706  1.00  0.00     0.019 A 
HETATM   27  C   UNL     1      -4.811  -1.172 -33.312  1.00  0.00     0.030 A 
BRANCH  25  28
HETATM   28  C   UNL     1      -5.248  -4.639 -34.731  1.00  0.00     0.249 C 
HETATM   29  N   UNL     1      -4.133  -5.221 -34.195  1.00  0.00    -0.366 N 
HETATM   30  H   UNL     1      -3.657  -4.843 -33.389  1.00  0.00     0.159 HD
HETATM   31  H   UNL     1      -4.000  -6.203 -34.399  1.00  0.00     0.159 HD
HETATM   32  O   UNL     1      -5.974  -5.263 -35.496  1.00  0.00    -0.268 OA
ENDBRANCH  25  28
ENDBRANCH  19  22
ENDBRANCH  17  18
ENDBRANCH   1  17
TORSDOF 8
ENDMDL
MODEL 2
REMARK VINA RESULT:      -9.0      4.685      8.056
REMARK  8 active torsions:
REMARK  status: ('A' for Active; 'I' for Inactive)
REMARK    1  A    between atoms: C_5  and  O_6 
REMARK    2  A    between atoms: O_6  and  C_7 
REMARK    3  A    between atoms: C_7  and  C_8 
REMARK    4  A    between atoms: C_12  and  S_13 
REMARK    5  A    between atoms: S_13  and  C_14 
REMARK    6  A    between atoms: C_14  and  C_15 
REMARK       I    between atoms: C_15  and  N_16 
REMARK    7  A    between atoms: N_16  and  C_17 
REMARK    8  A    between atoms: C_20  and  C_21 
REMARK       I    between atoms: C_21  and  N_22 
ROOT
HETATM    1  S   UNL     1      -6.145   4.359 -29.796  1.00  0.00    -0.081 SA
ENDROOT
BRANCH   1   2
HETATM    2  C   UNL     1      -5.755   2.699 -30.005  1.00  0.00     0.185 A 
HETATM    3  N   UNL     1      -6.430   1.705 -29.374  1.00  0.00    -0.254 N 
HETATM    4  N   UNL     1      -5.963   0.499 -29.743  1.00  0.00    -0.155 NA
HETATM    5  H   UNL     1      -7.192   1.773 -28.709  1.00  0.00     0.191 HD
HETATM    6  C   UNL     1      -5.022   0.839 -30.642  1.00  0.00     0.172 A 
HETATM    7  N   UNL     1      -4.851   2.196 -30.802  1.00  0.00    -0.204 NA
BRANCH   6   8
HETATM    8  C   UNL     1      -4.216  -0.156 -31.417  1.00  0.00     0.258 C 
BRANCH   8   9
HETATM    9  O   UNL     1      -4.429  -0.007 -32.826  1.00  0.00    -0.344 OA
BRANCH   9  10
HETATM   10  C   UNL     1      -5.044  -1.041 -33.475  1.00  0.00     0.069 A 
HETATM   11  C   UNL     1      -4.208  -2.119 -33.771  1.00  0.00     0.037 A 
HETATM   12  C   UNL     1      -4.705  -3.250 -34.424  1.00  0.00     0.009 A 
HETATM   13  C   UNL     1      -6.051  -3.314 -34.796  1.00  0.00    -0.062 A 
HETATM   14  C   UNL     1      -6.602  -4.539 -35.462  1.00  0.00     0.048 C 
HETATM   15  C   UNL     1      -6.890  -2.239 -34.483  1.00  0.00     0.009 A 
HETATM   16  C   UNL     1      -6.390  -1.106 -33.832  1.00  0.00     0.037 A 
ENDBRANCH   9  10
ENDBRANCH   8   9
ENDBRANCH   6   8
ENDBRANCH   1   2
BRANCH   1  17
HETATM   17  C   UNL     1      -7.243   4.635 -31.220  1.00  0.00     0.185 C 
BRANCH  17  18
HETATM   18  C   UNL     1      -8.481   3.746 -31.314  1.00  0.00     0.231 C 
HETATM   19  N   UNL     1      -8.841   3.339 -32.581  1.00  0.00    -0.327 N 
HETATM   20  H   UNL     1      -8.314   3.761 -33.336  1.00  0.00     0.169 HD
HETATM   21  O   UNL     1      -9.044   3.405 -30.272  1.00  0.00    -0.272 OA
BRANCH  19  22
HETATM   22  C   UNL     1      -9.946   2.555 -32.964  1.00  0.00     0.034 A 
HETATM   23  C   UNL     1      -9.928   1.161 -33.044  1.00  0.00     0.030 A 
HETATM   24  C   UNL     1     -11.079   0.452 -33.416  1.00  0.00     0.019 A 
HETATM   25  C   UNL     1     -12.263   1.135 -33.709  1.00  0.00     0.032 A 
HETATM   26  C   UNL     1     -12.280   2.531 -33.650  1.00  0.00     0.019 A 
HETATM   27  C   UNL     1     -11.130   3.235 -33.276  1.00  0.00     0.030 A 
BRANCH  25  28
HETATM   28  C   UNL     1     -13.511   0.429 -34.104  1.00  0.00     0.249 C 
HETATM   29  N   UNL     1     -13.680  -0.853 -33.661  1.00  0.00    -0.366 N 
HETATM   30  H   UNL     1     -13.123  -1.250 -32.918  1.00  0.00     0.159 HD
HETATM   31  H   UNL     1     -14.582  -1.274 -33.846  1.00  0.00     0.159 HD
HETATM   32  O   UNL     1     -14.377   0.980 -34.773  1.00  0.00    -0.268 OA
ENDBRANCH  25  28
ENDBRANCH  19  22
ENDBRANCH  17  18
ENDBRANCH   1  17
TORSDOF 8
ENDMDL
MODEL 3
REMARK VINA RESULT:      -8.8      1.673      2.150
REMARK  8 active torsions:
REMARK  status: ('A' for Active; 'I' for Inactive)
REMARK    1  A    between atoms: C_5  and  O_6 
REMARK    2  A    between atoms: O_6  and  C_7 
REMARK    3  A    between atoms: C_7  and  C_8 
REMARK    4  A    between atoms: C_12  and  S_13 
REMARK    5  A    between atoms: S_13  and  C_14 
REMARK    6  A    between atoms: C_14  and  C_15 
REMARK       I    between atoms: C_15  and  N_16 
REMARK    7  A    between atoms: N_16  and  C_17 
REMARK    8  A    between atoms: C_20  and  C_21 
REMARK       I    between atoms: C_21  and  N_22 
ROOT
HETATM    1  S   UNL     1      -6.032   3.895 -33.871  1.00  0.00    -0.081 SA
ENDROOT
BRANCH   1   2
HETATM    2  C   UNL     1      -4.373   4.310 -33.701  1.00  0.00     0.185 A 
HETATM    3  N   UNL     1      -3.539   3.653 -32.855  1.00  0.00    -0.254 N 
HETATM    4  N   UNL     1      -2.288   4.138 -32.944  1.00  0.00    -0.155 NA
HETATM    5  H   UNL     1      -3.746   2.892 -32.218  1.00  0.00     0.191 HD
HETATM    6  C   UNL     1      -2.429   5.070 -33.904  1.00  0.00     0.172 A 
HETATM    7  N   UNL     1      -3.716   5.219 -34.369  1.00  0.00    -0.204 NA
BRANCH   6   8
HETATM    8  C   UNL     1      -1.295   5.888 -34.439  1.00  0.00     0.258 C 
BRANCH   8   9
HETATM    9  O   UNL     1      -1.357   7.234 -33.954  1.00  0.00    -0.344 OA
BRANCH   9  10
HETATM   10  C   UNL     1      -1.167   7.422 -32.613  1.00  0.00     0.069 A 
HETATM   11  C   UNL     1      -2.113   8.249 -32.004  1.00  0.00     0.037 A 
HETATM   12  C   UNL     1      -2.048   8.521 -30.635  1.00  0.00     0.009 A 
HETATM   13  C   UNL     1      -1.028   7.969 -29.855  1.00  0.00    -0.062 A 
HETATM   14  C   UNL     1      -0.972   8.224 -28.378  1.00  0.00     0.048 C 
HETATM   15  C   UNL     1      -0.091   7.127 -30.465  1.00  0.00     0.009 A 
HETATM   16  C   UNL     1      -0.156   6.860 -31.837  1.00  0.00     0.037 A 
ENDBRANCH   9  10
ENDBRANCH   8   9
ENDBRANCH   6   8
ENDBRANCH   1   2
BRANCH   1  17
HETATM   17  C   UNL     1      -6.336   3.048 -32.290  1.00  0.00     0.185 C 
BRANCH  17  18
HETATM   18  C   UNL     1      -6.360   1.522 -32.324  1.00  0.00     0.231 C 
HETATM   19  N   UNL     1      -5.916   0.933 -33.489  1.00  0.00    -0.327 N 
HETATM   20  H   UNL     1      -5.722   1.574 -34.250  1.00  0.00     0.169 HD
HETATM   21  O   UNL     1      -6.715   0.914 -31.312  1.00  0.00    -0.272 OA
BRANCH  19  22
HETATM   22  C   UNL     1      -5.862  -0.436 -33.809  1.00  0.00     0.034 A 
HETATM   23  C   UNL     1      -6.914  -1.149 -34.387  1.00  0.00     0.030 A 
HETATM   24  C   UNL     1      -6.773  -2.510 -34.692  1.00  0.00     0.019 A 
HETATM   25  C   UNL     1      -5.570  -3.171 -34.423  1.00  0.00     0.032 A 
HETATM   26  C   UNL     1      -4.521  -2.467 -33.825  1.00  0.00     0.019 A 
HETATM   27  C   UNL     1      -4.666  -1.108 -33.525  1.00  0.00     0.030 A 
BRANCH  25  28
HETATM   28  C   UNL     1      -5.368  -4.611 -34.732  1.00  0.00     0.249 C 
HETATM   29  N   UNL     1      -4.266  -5.224 -34.206  1.00  0.00    -0.366 N 
HETATM   30  H   UNL     1      -3.723  -4.817 -33.458  1.00  0.00     0.159 HD
HETATM   31  H   UNL     1      -4.208  -6.226 -34.335  1.00  0.00     0.159 HD
HETATM   32  O   UNL     1      -6.174  -5.242 -35.407  1.00  0.00    -0.268 OA
ENDBRANCH  25  28
ENDBRANCH  19  22
ENDBRANCH  17  18
ENDBRANCH   1  17
TORSDOF 8
ENDMDL
MODEL 4
REMARK VINA RESULT:      -8.6      3.053     11.221
REMARK  8 active torsions:
REMARK  status: ('A' for Active; 'I' for Inactive)
REMARK    1  A    between atoms: C_5  and  O_6 
REMARK    2  A    between atoms: O_6  and  C_7 
REMARK    3  A    between atoms: C_7  and  C_8 
REMARK    4  A    between atoms: C_12  and  S_13 
REMARK    5  A    between atoms: S_13  and  C_14 
REMARK    6  A    between atoms: C_14  and  C_15 
REMARK       I    between atoms: C_15  and  N_16 
REMARK    7  A    between atoms: N_16  and  C_17 
REMARK    8  A    between atoms: C_20  and  C_21 
REMARK       I    between atoms: C_21  and  N_22 
ROOT
HETATM    1  S   UNL     1      -3.175   5.367 -31.347  1.00  0.00    -0.081 SA
ENDROOT
BRANCH   1   2
HETATM    2  C   UNL     1      -3.941   3.855 -31.071  1.00  0.00     0.185 A 
HETATM    3  N   UNL     1      -4.914   3.688 -30.140  1.00  0.00    -0.254 N 
HETATM    4  N   UNL     1      -5.381   2.426 -30.155  1.00  0.00    -0.155 NA
HETATM    5  H   UNL     1      -5.298   4.364 -29.489  1.00  0.00     0.191 HD
HETATM    6  C   UNL     1      -4.667   1.888 -31.159  1.00  0.00     0.172 A 
HETATM    7  N   UNL     1      -3.746   2.742 -31.725  1.00  0.00    -0.204 NA
BRANCH   6   8
HETATM    8  C   UNL     1      -4.841   0.482 -31.642  1.00  0.00     0.258 C 
BRANCH   8   9
HETATM    9  O   UNL     1      -4.894   0.430 -33.072  1.00  0.00    -0.344 OA
BRANCH   9  10
HETATM   10  C   UNL     1      -5.353  -0.728 -33.636  1.00  0.00     0.069 A 
HETATM   11  C   UNL     1      -4.373  -1.700 -33.845  1.00  0.00     0.037 A 
HETATM   12  C   UNL     1      -4.702  -2.937 -34.404  1.00  0.00     0.009 A 
HETATM   13  C   UNL     1      -6.023  -3.217 -34.769  1.00  0.00    -0.062 A 
HETATM   14  C   UNL     1      -6.392  -4.556 -35.334  1.00  0.00     0.048 C 
HETATM   15  C   UNL     1      -7.006  -2.248 -34.542  1.00  0.00     0.009 A 
HETATM   16  C   UNL     1      -6.673  -1.008 -33.985  1.00  0.00     0.037 A 
ENDBRANCH   9  10
ENDBRANCH   8   9
ENDBRANCH   6   8
ENDBRANCH   1   2
BRANCH   1  17
HETATM   17  C   UNL     1      -1.447   4.842 -31.560  1.00  0.00     0.185 C 
BRANCH  17  18
HETATM   18  C   UNL     1      -0.396   5.595 -30.748  1.00  0.00     0.231 C 
HETATM   19  N   UNL     1      -0.786   6.021 -29.497  1.00  0.00    -0.327 N 
HETATM   20  H   UNL     1      -1.768   5.889 -29.282  1.00  0.00     0.169 HD
HETATM   21  O   UNL     1       0.733   5.730 -31.224  1.00  0.00    -0.272 OA
BRANCH  19  22
HETATM   22  C   UNL     1      -0.045   6.761 -28.557  1.00  0.00     0.034 A 
HETATM   23  C   UNL     1       0.745   7.867 -28.876  1.00  0.00     0.030 A 
HETATM   24  C   UNL     1       1.439   8.562 -27.876  1.00  0.00     0.019 A 
HETATM   25  C   UNL     1       1.346   8.156 -26.541  1.00  0.00     0.032 A 
HETATM   26  C   UNL     1       0.573   7.036 -26.220  1.00  0.00     0.019 A 
HETATM   27  C   UNL     1      -0.120   6.348 -27.221  1.00  0.00     0.030 A 
BRANCH  25  28
HETATM   28  C   UNL     1       2.058   8.862 -25.444  1.00  0.00     0.249 C 
HETATM   29  N   UNL     1       2.281  10.202 -25.593  1.00  0.00    -0.366 N 
HETATM   30  H   UNL     1       1.802  10.759 -26.286  1.00  0.00     0.159 HD
HETATM   31  H   UNL     1       2.665  10.683 -24.789  1.00  0.00     0.159 HD
HETATM   32  O   UNL     1       2.406   8.279 -24.424  1.00  0.00    -0.268 OA
ENDBRANCH  25  28
ENDBRANCH  19  22
ENDBRANCH  17  18
ENDBRANCH   1  17
TORSDOF 8
ENDMDL
MODEL 5
REMARK VINA RESULT:      -8.3      4.163      8.816
REMARK  8 active torsions:
REMARK  status: ('A' for Active; 'I' for Inactive)
REMARK    1  A    between atoms: C_5  and  O_6 
REMARK    2  A    between atoms: O_6  and  C_7 
REMARK    3  A    between atoms: C_7  and  C_8 
REMARK    4  A    between atoms: C_12  and  S_13 
REMARK    5  A    between atoms: S_13  and  C_14 
REMARK    6  A    between atoms: C_14  and  C_15 
REMARK       I    between atoms: C_15  and  N_16 
REMARK    7  A    between atoms: N_16  and  C_17 
REMARK    8  A    between atoms: C_20  and  C_21 
REMARK       I    between atoms: C_21  and  N_22 
ROOT
HETATM    1  S   UNL     1      -6.118   3.877 -32.764  1.00  0.00    -0.081 SA
ENDROOT
BRANCH   1   2
HETATM    2  C   UNL     1      -7.573   2.974 -32.633  1.00  0.00     0.185 A 
HETATM    3  N   UNL     1      -8.358   3.011 -31.526  1.00  0.00    -0.254 N 
HETATM    4  N   UNL     1      -9.459   2.256 -31.695  1.00  0.00    -0.155 NA
HETATM    5  H   UNL     1      -8.214   3.512 -30.658  1.00  0.00     0.191 HD
HETATM    6  C   UNL     1      -9.294   1.819 -32.956  1.00  0.00     0.172 A 
HETATM    7  N   UNL     1      -8.120   2.224 -33.551  1.00  0.00    -0.204 NA
BRANCH   6   8
HETATM    8  C   UNL     1     -10.290   0.964 -33.676  1.00  0.00     0.258 C 
BRANCH   8   9
HETATM    9  O   UNL     1     -11.244   1.766 -34.381  1.00  0.00    -0.344 OA
BRANCH   9  10
HETATM   10  C   UNL     1     -12.520   1.793 -33.889  1.00  0.00     0.069 A 
HETATM   11  C   UNL     1     -12.799   2.881 -33.059  1.00  0.00     0.037 A 
HETATM   12  C   UNL     1     -14.067   3.041 -32.494  1.00  0.00     0.009 A 
HETATM   13  C   UNL     1     -15.075   2.107 -32.749  1.00  0.00    -0.062 A 
HETATM   14  C   UNL     1     -16.450   2.291 -32.178  1.00  0.00     0.048 C 
HETATM   15  C   UNL     1     -14.798   1.027 -33.594  1.00  0.00     0.009 A 
HETATM   16  C   UNL     1     -13.526   0.867 -34.156  1.00  0.00     0.037 A 
ENDBRANCH   9  10
ENDBRANCH   8   9
ENDBRANCH   6   8
ENDBRANCH   1   2
BRANCH   1  17
HETATM   17  C   UNL     1      -4.983   2.841 -31.790  1.00  0.00     0.185 C 
BRANCH  17  18
HETATM   18  C   UNL     1      -5.154   1.329 -31.919  1.00  0.00     0.231 C 
HETATM   19  N   UNL     1      -5.165   0.827 -33.203  1.00  0.00    -0.327 N 
HETATM   20  H   UNL     1      -5.168   1.523 -33.939  1.00  0.00     0.169 HD
HETATM   21  O   UNL     1      -5.218   0.652 -30.891  1.00  0.00    -0.272 OA
BRANCH  19  22
HETATM   22  C   UNL     1      -5.341  -0.507 -33.616  1.00  0.00     0.034 A 
HETATM   23  C   UNL     1      -6.521  -1.008 -34.169  1.00  0.00     0.030 A 
HETATM   24  C   UNL     1      -6.609  -2.348 -34.573  1.00  0.00     0.019 A 
HETATM   25  C   UNL     1      -5.510  -3.200 -34.429  1.00  0.00     0.032 A 
HETATM   26  C   UNL     1      -4.333  -2.708 -33.858  1.00  0.00     0.019 A 
HETATM   27  C   UNL     1      -4.249  -1.370 -33.459  1.00  0.00     0.030 A 
BRANCH  25  28
HETATM   28  C   UNL     1      -5.551  -4.626 -34.847  1.00  0.00     0.249 C 
HETATM   29  N   UNL     1      -4.525  -5.434 -34.443  1.00  0.00    -0.366 N 
HETATM   30  H   UNL     1      -3.881  -5.171 -33.711  1.00  0.00     0.159 HD
HETATM   31  H   UNL     1      -4.629  -6.421 -34.642  1.00  0.00     0.159 HD
HETATM   32  O   UNL     1      -6.483  -5.078 -35.501  1.00  0.00    -0.268 OA
ENDBRANCH  25  28
ENDBRANCH  19  22
ENDBRANCH  17  18
ENDBRANCH   1  17
TORSDOF 8
ENDMDL
MODEL 6
REMARK VINA RESULT:      -8.1      3.118     10.907
REMARK  8 active torsions:
REMARK  status: ('A' for Active; 'I' for Inactive)
REMARK    1  A    between atoms: C_5  and  O_6 
REMARK    2  A    between atoms: O_6  and  C_7 
REMARK    3  A    between atoms: C_7  and  C_8 
REMARK    4  A    between atoms: C_12  and  S_13 
REMARK    5  A    between atoms: S_13  and  C_14 
REMARK    6  A    between atoms: C_14  and  C_15 
REMARK       I    between atoms: C_15  and  N_16 
REMARK    7  A    between atoms: N_16  and  C_17 
REMARK    8  A    between atoms: C_20  and  C_21 
REMARK       I    between atoms: C_21  and  N_22 
ROOT
HETATM    1  S   UNL     1      -2.432   4.812 -33.219  1.00  0.00    -0.081 SA
ENDROOT
BRANCH   1   2
HETATM    2  C   UNL     1      -4.076   4.382 -33.473  1.00  0.00     0.185 A 
HETATM    3  N   UNL     1      -4.935   5.165 -34.173  1.00  0.00    -0.254 N 
HETATM    4  N   UNL     1      -6.145   4.583 -34.268  1.00  0.00    -0.155 NA
HETATM    5  H   UNL     1      -4.771   6.069 -34.602  1.00  0.00     0.191 HD
HETATM    6  C   UNL     1      -5.932   3.418 -33.631  1.00  0.00     0.172 A 
HETATM    7  N   UNL     1      -4.669   3.280 -33.102  1.00  0.00    -0.204 NA
BRANCH   6   8
HETATM    8  C   UNL     1      -6.967   2.345 -33.496  1.00  0.00     0.258 C 
BRANCH   8   9
HETATM    9  O   UNL     1      -6.522   1.307 -32.615  1.00  0.00    -0.344 OA
BRANCH   9  10
HETATM   10  C   UNL     1      -6.236   0.094 -33.178  1.00  0.00     0.069 A 
HETATM   11  C   UNL     1      -7.309  -0.507 -33.839  1.00  0.00     0.037 A 
HETATM   12  C   UNL     1      -7.157  -1.744 -34.469  1.00  0.00     0.009 A 
HETATM   13  C   UNL     1      -5.924  -2.403 -34.441  1.00  0.00    -0.062 A 
HETATM   14  C   UNL     1      -5.741  -3.713 -35.148  1.00  0.00     0.048 C 
HETATM   15  C   UNL     1      -4.846  -1.791 -33.792  1.00  0.00     0.009 A 
HETATM   16  C   UNL     1      -5.001  -0.553 -33.159  1.00  0.00     0.037 A 
ENDBRANCH   9  10
ENDBRANCH   8   9
ENDBRANCH   6   8
ENDBRANCH   1   2
BRANCH   1  17
HETATM   17  C   UNL     1      -2.500   6.607 -33.505  1.00  0.00     0.185 C 
BRANCH  17  18
HETATM   18  C   UNL     1      -1.861   7.496 -32.441  1.00  0.00     0.231 C 
HETATM   19  N   UNL     1      -1.490   6.870 -31.270  1.00  0.00    -0.327 N 
HETATM   20  H   UNL     1      -1.778   5.902 -31.188  1.00  0.00     0.169 HD
HETATM   21  O   UNL     1      -1.669   8.685 -32.702  1.00  0.00    -0.272 OA
BRANCH  19  22
HETATM   22  C   UNL     1      -0.919   7.442 -30.118  1.00  0.00     0.034 A 
HETATM   23  C   UNL     1       0.406   7.253 -29.722  1.00  0.00     0.030 A 
HETATM   24  C   UNL     1       0.904   7.876 -28.569  1.00  0.00     0.019 A 
HETATM   25  C   UNL     1       0.075   8.699 -27.800  1.00  0.00     0.032 A 
HETATM   26  C   UNL     1      -1.258   8.875 -28.181  1.00  0.00     0.019 A 
HETATM   27  C   UNL     1      -1.749   8.254 -29.334  1.00  0.00     0.030 A 
BRANCH  25  28
HETATM   28  C   UNL     1       0.556   9.386 -26.572  1.00  0.00     0.249 C 
HETATM   29  N   UNL     1       1.466  10.395 -26.725  1.00  0.00    -0.366 N 
HETATM   30  H   UNL     1       1.648  10.831 -27.617  1.00  0.00     0.159 HD
HETATM   31  H   UNL     1       1.694  10.921 -25.891  1.00  0.00     0.159 HD
HETATM   32  O   UNL     1       0.133   9.087 -25.461  1.00  0.00    -0.268 OA
ENDBRANCH  25  28
ENDBRANCH  19  22
ENDBRANCH  17  18
ENDBRANCH   1  17
TORSDOF 8
ENDMDL
MODEL 7
REMARK VINA RESULT:      -8.1      4.194      7.893
REMARK  8 active torsions:
REMARK  status: ('A' for Active; 'I' for Inactive)
REMARK    1  A    between atoms: C_5  and  O_6 
REMARK    2  A    between atoms: O_6  and  C_7 
REMARK    3  A    between atoms: C_7  and  C_8 
REMARK    4  A    between atoms: C_12  and  S_13 
REMARK    5  A    between atoms: S_13  and  C_14 
REMARK    6  A    between atoms: C_14  and  C_15 
REMARK       I    between atoms: C_15  and  N_16 
REMARK    7  A    between atoms: N_16  and  C_17 
REMARK    8  A    between atoms: C_20  and  C_21 
REMARK       I    between atoms: C_21  and  N_22 
ROOT
HETATM    1  S   UNL     1      -5.468   5.453 -31.768  1.00  0.00    -0.081 SA
ENDROOT
BRANCH   1   2
HETATM    2  C   UNL     1      -4.669   3.934 -31.816  1.00  0.00     0.185 A 
HETATM    3  N   UNL     1      -3.494   3.706 -31.176  1.00  0.00    -0.254 N 
HETATM    4  N   UNL     1      -3.105   2.427 -31.330  1.00  0.00    -0.155 NA
HETATM    5  H   UNL     1      -2.928   4.348 -30.634  1.00  0.00     0.191 HD
HETATM    6  C   UNL     1      -4.123   1.921 -32.048  1.00  0.00     0.172 A 
HETATM    7  N   UNL     1      -5.092   2.839 -32.389  1.00  0.00    -0.204 NA
BRANCH   6   8
HETATM    8  C   UNL     1      -4.219   0.483 -32.454  1.00  0.00     0.258 C 
BRANCH   8   9
HETATM    9  O   UNL     1      -5.532   0.169 -32.932  1.00  0.00    -0.344 OA
BRANCH   9  10
HETATM   10  C   UNL     1      -5.699  -1.045 -33.539  1.00  0.00     0.069 A 
HETATM   11  C   UNL     1      -4.528  -1.792 -33.674  1.00  0.00     0.037 A 
HETATM   12  C   UNL     1      -4.552  -3.057 -34.266  1.00  0.00     0.009 A 
HETATM   13  C   UNL     1      -5.754  -3.591 -34.738  1.00  0.00    -0.062 A 
HETATM   14  C   UNL     1      -5.797  -4.964 -35.340  1.00  0.00     0.048 C 
HETATM   15  C   UNL     1      -6.930  -2.848 -34.586  1.00  0.00     0.009 A 
HETATM   16  C   UNL     1      -6.903  -1.579 -33.995  1.00  0.00     0.037 A 
ENDBRANCH   9  10
ENDBRANCH   8   9
ENDBRANCH   6   8
ENDBRANCH   1   2
BRANCH   1  17
HETATM   17  C   UNL     1      -6.163   5.528 -33.448  1.00  0.00     0.185 C 
BRANCH  17  18
HETATM   18  C   UNL     1      -7.586   5.003 -33.626  1.00  0.00     0.231 C 
HETATM   19  N   UNL     1      -7.800   3.693 -33.255  1.00  0.00    -0.327 N 
HETATM   20  H   UNL     1      -6.967   3.173 -33.004  1.00  0.00     0.169 HD
HETATM   21  O   UNL     1      -8.454   5.778 -34.031  1.00  0.00    -0.272 OA
BRANCH  19  22
HETATM   22  C   UNL     1      -8.990   2.945 -33.343  1.00  0.00     0.034 A 
HETATM   23  C   UNL     1     -10.267   3.478 -33.156  1.00  0.00     0.030 A 
HETATM   24  C   UNL     1     -11.404   2.668 -33.280  1.00  0.00     0.019 A 
HETATM   25  C   UNL     1     -11.273   1.313 -33.595  1.00  0.00     0.032 A 
HETATM   26  C   UNL     1      -9.995   0.770 -33.763  1.00  0.00     0.019 A 
HETATM   27  C   UNL     1      -8.863   1.583 -33.641  1.00  0.00     0.030 A 
BRANCH  25  28
HETATM   28  C   UNL     1     -12.447   0.413 -33.743  1.00  0.00     0.249 C 
HETATM   29  N   UNL     1     -13.484   0.847 -34.521  1.00  0.00    -0.366 N 
HETATM   30  H   UNL     1     -13.395   1.624 -35.160  1.00  0.00     0.159 HD
HETATM   31  H   UNL     1     -14.221   0.176 -34.698  1.00  0.00     0.159 HD
HETATM   32  O   UNL     1     -12.480  -0.693 -33.216  1.00  0.00    -0.268 OA
ENDBRANCH  25  28
ENDBRANCH  19  22
ENDBRANCH  17  18
ENDBRANCH   1  17
TORSDOF 8
ENDMDL
MODEL 8
REMARK VINA RESULT:      -8.0      1.376      2.186
REMARK  8 active torsions:
REMARK  status: ('A' for Active; 'I' for Inactive)
REMARK    1  A    between atoms: C_5  and  O_6 
REMARK    2  A    between atoms: O_6  and  C_7 
REMARK    3  A    between atoms: C_7  and  C_8 
REMARK    4  A    between atoms: C_12  and  S_13 
REMARK    5  A    between atoms: S_13  and  C_14 
REMARK    6  A    between atoms: C_14  and  C_15 
REMARK       I    between atoms: C_15  and  N_16 
REMARK    7  A    between atoms: N_16  and  C_17 
REMARK    8  A    between atoms: C_20  and  C_21 
REMARK       I    between atoms: C_21  and  N_22 
ROOT
HETATM    1  S   UNL     1      -6.811   4.496 -31.247  1.00  0.00    -0.081 SA
ENDROOT
BRANCH   1   2
HETATM    2  C   UNL     1      -5.516   4.739 -32.350  1.00  0.00     0.185 A 
HETATM    3  N   UNL     1      -5.592   5.617 -33.383  1.00  0.00    -0.254 N 
HETATM    4  N   UNL     1      -4.433   5.654 -34.066  1.00  0.00    -0.155 NA
HETATM    5  H   UNL     1      -6.368   6.204 -33.666  1.00  0.00     0.191 HD
HETATM    6  C   UNL     1      -3.678   4.794 -33.359  1.00  0.00     0.172 A 
HETATM    7  N   UNL     1      -4.332   4.190 -32.309  1.00  0.00    -0.204 NA
BRANCH   6   8
HETATM    8  C   UNL     1      -2.242   4.503 -33.668  1.00  0.00     0.258 C 
BRANCH   8   9
HETATM    9  O   UNL     1      -1.452   5.697 -33.620  1.00  0.00    -0.344 OA
BRANCH   9  10
HETATM   10  C   UNL     1      -0.891   6.024 -32.417  1.00  0.00     0.069 A 
HETATM   11  C   UNL     1      -1.224   7.297 -31.948  1.00  0.00     0.037 A 
HETATM   12  C   UNL     1      -0.731   7.760 -30.726  1.00  0.00     0.009 A 
HETATM   13  C   UNL     1       0.111   6.953 -29.955  1.00  0.00    -0.062 A 
HETATM   14  C   UNL     1       0.614   7.426 -28.624  1.00  0.00     0.048 C 
HETATM   15  C   UNL     1       0.429   5.672 -30.418  1.00  0.00     0.009 A 
HETATM   16  C   UNL     1      -0.063   5.211 -31.644  1.00  0.00     0.037 A 
ENDBRANCH   9  10
ENDBRANCH   8   9
ENDBRANCH   6   8
ENDBRANCH   1   2
BRANCH   1  17
HETATM   17  C   UNL     1      -7.960   3.532 -32.276  1.00  0.00     0.185 C 
BRANCH  17  18
HETATM   18  C   UNL     1      -7.687   2.034 -32.391  1.00  0.00     0.231 C 
HETATM   19  N   UNL     1      -6.624   1.670 -33.189  1.00  0.00    -0.327 N 
HETATM   20  H   UNL     1      -6.196   2.427 -33.710  1.00  0.00     0.169 HD
HETATM   21  O   UNL     1      -8.383   1.256 -31.736  1.00  0.00    -0.272 OA
BRANCH  19  22
HETATM   22  C   UNL     1      -6.171   0.375 -33.501  1.00  0.00     0.034 A 
HETATM   23  C   UNL     1      -5.056  -0.229 -32.916  1.00  0.00     0.030 A 
HETATM   24  C   UNL     1      -4.682  -1.533 -33.269  1.00  0.00     0.019 A 
HETATM   25  C   UNL     1      -5.425  -2.248 -34.213  1.00  0.00     0.032 A 
HETATM   26  C   UNL     1      -6.530  -1.640 -34.816  1.00  0.00     0.019 A 
HETATM   27  C   UNL     1      -6.902  -0.340 -34.459  1.00  0.00     0.030 A 
BRANCH  25  28
HETATM   28  C   UNL     1      -5.073  -3.635 -34.617  1.00  0.00     0.249 C 
HETATM   29  N   UNL     1      -3.888  -4.144 -34.166  1.00  0.00    -0.366 N 
HETATM   30  H   UNL     1      -3.365  -3.720 -33.412  1.00  0.00     0.159 HD
HETATM   31  H   UNL     1      -3.720  -5.124 -34.359  1.00  0.00     0.159 HD
HETATM   32  O   UNL     1      -5.827  -4.315 -35.302  1.00  0.00    -0.268 OA
ENDBRANCH  25  28
ENDBRANCH  19  22
ENDBRANCH  17  18
ENDBRANCH   1  17
TORSDOF 8
ENDMDL
MODEL 9
REMARK VINA RESULT:      -7.8     16.968     19.200
REMARK  8 active torsions:
REMARK  status: ('A' for Active; 'I' for Inactive)
REMARK    1  A    between atoms: C_5  and  O_6 
REMARK    2  A    between atoms: O_6  and  C_7 
REMARK    3  A    between atoms: C_7  and  C_8 
REMARK    4  A    between atoms: C_12  and  S_13 
REMARK    5  A    between atoms: S_13  and  C_14 
REMARK    6  A    between atoms: C_14  and  C_15 
REMARK       I    between atoms: C_15  and  N_16 
REMARK    7  A    between atoms: N_16  and  C_17 
REMARK    8  A    between atoms: C_20  and  C_21 
REMARK       I    between atoms: C_21  and  N_22 
ROOT
HETATM    1  S   UNL     1      -2.065 -13.910 -36.980  1.00  0.00    -0.081 SA
ENDROOT
BRANCH   1   2
HETATM    2  C   UNL     1      -3.574 -14.230 -36.223  1.00  0.00     0.185 A 
HETATM    3  N   UNL     1      -4.114 -13.403 -35.292  1.00  0.00    -0.254 N 
HETATM    4  N   UNL     1      -5.317 -13.853 -34.892  1.00  0.00    -0.155 NA
HETATM    5  H   UNL     1      -3.736 -12.547 -34.902  1.00  0.00     0.191 HD
HETATM    6  C   UNL     1      -5.463 -14.947 -35.661  1.00  0.00     0.172 A 
HETATM    7  N   UNL     1      -4.386 -15.222 -36.472  1.00  0.00    -0.204 NA
BRANCH   6   8
HETATM    8  C   UNL     1      -6.687 -15.809 -35.652  1.00  0.00     0.258 C 
BRANCH   8   9
HETATM    9  O   UNL     1      -6.581 -16.864 -36.615  1.00  0.00    -0.344 OA
BRANCH   9  10
HETATM   10  C   UNL     1      -7.105 -16.629 -37.856  1.00  0.00     0.069 A 
HETATM   11  C   UNL     1      -8.500 -16.664 -37.913  1.00  0.00     0.037 A 
HETATM   12  C   UNL     1      -9.171 -16.431 -39.116  1.00  0.00     0.009 A 
HETATM   13  C   UNL     1      -8.452 -16.163 -40.284  1.00  0.00    -0.062 A 
HETATM   14  C   UNL     1      -9.165 -15.874 -41.571  1.00  0.00     0.048 C 
HETATM   15  C   UNL     1      -7.055 -16.112 -40.221  1.00  0.00     0.009 A 
HETATM   16  C   UNL     1      -6.384 -16.349 -39.016  1.00  0.00     0.037 A 
ENDBRANCH   9  10
ENDBRANCH   8   9
ENDBRANCH   6   8
ENDBRANCH   1   2
BRANCH   1  17
HETATM   17  C   UNL     1      -2.596 -12.867 -38.373  1.00  0.00     0.185 C 
BRANCH  17  18
HETATM   18  C   UNL     1      -3.969 -13.167 -38.970  1.00  0.00     0.231 C 
HETATM   19  N   UNL     1      -5.022 -12.432 -38.469  1.00  0.00    -0.327 N 
HETATM   20  H   UNL     1      -4.799 -11.842 -37.675  1.00  0.00     0.169 HD
HETATM   21  O   UNL     1      -4.049 -13.992 -39.882  1.00  0.00    -0.272 OA
BRANCH  19  22
HETATM   22  C   UNL     1      -6.386 -12.522 -38.804  1.00  0.00     0.034 A 
HETATM   23  C   UNL     1      -7.394 -12.874 -37.904  1.00  0.00     0.030 A 
HETATM   24  C   UNL     1      -8.733 -12.922 -38.315  1.00  0.00     0.019 A 
HETATM   25  C   UNL     1      -9.077 -12.615 -39.635  1.00  0.00     0.032 A 
HETATM   26  C   UNL     1      -8.069 -12.283 -40.545  1.00  0.00     0.019 A 
HETATM   27  C   UNL     1      -6.734 -12.233 -40.130  1.00  0.00     0.030 A 
BRANCH  25  28
HETATM   28  C   UNL     1     -10.483 -12.648 -40.118  1.00  0.00     0.249 C 
HETATM   29  N   UNL     1     -10.977 -11.517 -40.706  1.00  0.00    -0.366 N 
HETATM   30  H   UNL     1     -10.382 -10.764 -41.021  1.00  0.00     0.159 HD
HETATM   31  H   UNL     1     -11.894 -11.596 -41.127  1.00  0.00     0.159 HD
HETATM   32  O   UNL     1     -11.171 -13.658 -40.026  1.00  0.00    -0.268 OA
ENDBRANCH  25  28
ENDBRANCH  19  22
ENDBRANCH  17  18
ENDBRANCH   1  17
TORSDOF 8
ENDMDL
MODEL 10
REMARK VINA RESULT:      -7.7     16.889     18.045
REMARK  8 active torsions:
REMARK  status: ('A' for Active; 'I' for Inactive)
REMARK    1  A    between atoms: C_5  and  O_6 
REMARK    2  A    between atoms: O_6  and  C_7 
REMARK    3  A    between atoms: C_7  and  C_8 
REMARK    4  A    between atoms: C_12  and  S_13 
REMARK    5  A    between atoms: S_13  and  C_14 
REMARK    6  A    between atoms: C_14  and  C_15 
REMARK       I    between atoms: C_15  and  N_16 
REMARK    7  A    between atoms: N_16  and  C_17 
REMARK    8  A    between atoms: C_20  and  C_21 
REMARK       I    between atoms: C_21  and  N_22 
ROOT
HETATM    1  S   UNL     1      -4.668 -15.717 -34.170  1.00  0.00    -0.081 SA
ENDROOT
BRANCH   1   2
HETATM    2  C   UNL     1      -3.242 -15.336 -35.048  1.00  0.00     0.185 A 
HETATM    3  N   UNL     1      -2.000 -15.459 -34.513  1.00  0.00    -0.254 N 
HETATM    4  N   UNL     1      -1.055 -15.144 -35.417  1.00  0.00    -0.155 NA
HETATM    5  H   UNL     1      -1.734 -15.745 -33.578  1.00  0.00     0.191 HD
HETATM    6  C   UNL     1      -1.803 -14.877 -36.503  1.00  0.00     0.172 A 
HETATM    7  N   UNL     1      -3.161 -14.958 -36.295  1.00  0.00    -0.204 NA
BRANCH   6   8
HETATM    8  C   UNL     1      -1.228 -14.520 -37.839  1.00  0.00     0.258 C 
BRANCH   8   9
HETATM    9  O   UNL     1      -1.699 -13.241 -38.278  1.00  0.00    -0.344 OA
BRANCH   9  10
HETATM   10  C   UNL     1      -2.801 -13.228 -39.087  1.00  0.00     0.069 A 
HETATM   11  C   UNL     1      -3.786 -12.312 -38.711  1.00  0.00     0.037 A 
HETATM   12  C   UNL     1      -4.962 -12.183 -39.454  1.00  0.00     0.009 A 
HETATM   13  C   UNL     1      -5.172 -12.977 -40.585  1.00  0.00    -0.062 A 
HETATM   14  C   UNL     1      -6.414 -12.819 -41.410  1.00  0.00     0.048 C 
HETATM   15  C   UNL     1      -4.177 -13.883 -40.969  1.00  0.00     0.009 A 
HETATM   16  C   UNL     1      -3.001 -14.012 -40.222  1.00  0.00     0.037 A 
ENDBRANCH   9  10
ENDBRANCH   8   9
ENDBRANCH   6   8
ENDBRANCH   1   2
BRANCH   1  17
HETATM   17  C   UNL     1      -5.439 -14.074 -34.039  1.00  0.00     0.185 C 
BRANCH  17  18
HETATM   18  C   UNL     1      -6.659 -13.817 -34.920  1.00  0.00     0.231 C 
HETATM   19  N   UNL     1      -6.573 -14.264 -36.222  1.00  0.00    -0.327 N 
HETATM   20  H   UNL     1      -5.665 -14.621 -36.496  1.00  0.00     0.169 HD
HETATM   21  O   UNL     1      -7.649 -13.285 -34.416  1.00  0.00    -0.272 OA
BRANCH  19  22
HETATM   22  C   UNL     1      -7.522 -14.132 -37.253  1.00  0.00     0.034 A 
HETATM   23  C   UNL     1      -8.188 -15.205 -37.847  1.00  0.00     0.030 A 
HETATM   24  C   UNL     1      -9.135 -14.987 -38.858  1.00  0.00     0.019 A 
HETATM   25  C   UNL     1      -9.426 -13.687 -39.282  1.00  0.00     0.032 A 
HETATM   26  C   UNL     1      -8.746 -12.611 -38.704  1.00  0.00     0.019 A 
HETATM   27  C   UNL     1      -7.804 -12.833 -37.694  1.00  0.00     0.030 A 
BRANCH  25  28
HETATM   28  C   UNL     1     -10.425 -13.402 -40.346  1.00  0.00     0.249 C 
HETATM   29  N   UNL     1     -10.705 -12.093 -40.618  1.00  0.00    -0.366 N 
HETATM   30  H   UNL     1     -10.120 -11.334 -40.299  1.00  0.00     0.159 HD
HETATM   31  H   UNL     1     -11.300 -11.920 -41.418  1.00  0.00     0.159 HD
HETATM   32  O   UNL     1     -10.957 -14.303 -40.984  1.00  0.00    -0.268 OA
ENDBRANCH  25  28
ENDBRANCH  19  22
ENDBRANCH  17  18
ENDBRANCH   1  17
TORSDOF 8
ENDMDL
