MODEL 1
REMARK VINA RESULT:      -8.9      0.000      0.000
REMARK  7 active torsions:
REMARK  status: ('A' for Active; 'I' for Inactive)
REMARK    1  A    between atoms: C_8  and  C_9 
REMARK    2  A    between atoms: C_9  and  N_10 
REMARK    3  A    between atoms: C_9  and  C_14 
REMARK       I    between atoms: C_14  and  N_15 
REMARK    4  A    between atoms: N_15  and  C_16 
REMARK    5  A    between atoms: C_16  and  C_17 
REMARK    6  A    between atoms: C_17  and  C_18 
REMARK    7  A    between atoms: C_17  and  C_24 
ROOT
HETATM    1  C   UNL     1      -9.872   1.658 -33.140  1.00  0.00     0.253 C 
HETATM    2  N   UNL     1      -9.413   0.649 -33.950  1.00  0.00    -0.358 N 
HETATM    3  O   UNL     1      -9.608   1.769 -31.941  1.00  0.00    -0.271 OA
HETATM    4  H   UNL     1      -9.656   0.613 -34.932  1.00  0.00     0.162 HD
ENDROOT
BRANCH   2   5
HETATM    5  C   UNL     1      -8.577  -0.444 -33.446  1.00  0.00     0.141 C 
BRANCH   5   6
HETATM    6  C   UNL     1      -7.062  -0.339 -33.851  1.00  0.00     0.026 C 
HETATM    7  C   UNL     1      -7.026   0.447 -35.192  1.00  0.00     0.027 C 
BRANCH   6   8
HETATM    8  C   UNL     1      -6.348   0.430 -32.700  1.00  0.00    -0.044 A 
HETATM    9  C   UNL     1      -6.493   0.029 -31.354  1.00  0.00     0.008 A 
HETATM   10  C   UNL     1      -5.845   0.707 -30.317  1.00  0.00     0.001 A 
HETATM   11  C   UNL     1      -5.057   1.817 -30.597  1.00  0.00     0.000 A 
HETATM   12  C   UNL     1      -4.922   2.253 -31.912  1.00  0.00     0.001 A 
HETATM   13  C   UNL     1      -5.564   1.570 -32.951  1.00  0.00     0.008 A 
ENDBRANCH   6   8
BRANCH   6  14
HETATM   14  C   UNL     1      -6.387  -1.701 -34.179  1.00  0.00    -0.044 A 
HETATM   15  C   UNL     1      -5.000  -1.916 -34.082  1.00  0.00     0.008 A 
HETATM   16  C   UNL     1      -4.440  -3.164 -34.374  1.00  0.00     0.001 A 
HETATM   17  C   UNL     1      -5.252  -4.231 -34.746  1.00  0.00     0.000 A 
HETATM   18  C   UNL     1      -6.629  -4.057 -34.812  1.00  0.00     0.001 A 
HETATM   19  C   UNL     1      -7.190  -2.812 -34.522  1.00  0.00     0.008 A 
ENDBRANCH   6  14
ENDBRANCH   5   6
ENDBRANCH   2   5
BRANCH   1  20
HETATM   20  C   UNL     1     -10.857   2.660 -33.777  1.00  0.00     0.311 C 
BRANCH  20  21
HETATM   21  C   UNL     1     -12.214   2.562 -33.161  1.00  0.00     0.031 A 
HETATM   22  C   UNL     1     -13.153   1.538 -33.227  1.00  0.00     0.035 A 
HETATM   23  C   UNL     1     -13.170   0.204 -33.881  1.00  0.00     0.070 C 
HETATM   24  N   UNL     1     -14.222   1.956 -32.476  1.00  0.00    -0.282 N 
HETATM   25  H   UNL     1     -15.093   1.467 -32.281  1.00  0.00     0.189 HD
HETATM   26  N   UNL     1     -14.051   3.169 -31.947  1.00  0.00    -0.179 NA
HETATM   27  C   UNL     1     -12.834   3.548 -32.335  1.00  0.00     0.061 A 
HETATM   28  C   UNL     1     -12.311   4.864 -31.882  1.00  0.00     0.073 C 
ENDBRANCH  20  21
BRANCH  20  29
HETATM   29  N   UNL     1     -10.900   2.389 -35.250  1.00  0.00    -0.062 N 
HETATM   30  H   UNL     1     -10.587   1.435 -35.455  1.00  0.00     0.275 HD
HETATM   31  H   UNL     1     -11.892   2.425 -35.531  1.00  0.00     0.275 HD
HETATM   32  H   UNL     1     -10.362   3.073 -35.787  1.00  0.00     0.275 HD
ENDBRANCH  20  29
ENDBRANCH   1  20
TORSDOF 7
ENDMDL
MODEL 2
REMARK VINA RESULT:      -8.6      1.773      3.093
REMARK  7 active torsions:
REMARK  status: ('A' for Active; 'I' for Inactive)
REMARK    1  A    between atoms: C_8  and  C_9 
REMARK    2  A    between atoms: C_9  and  N_10 
REMARK    3  A    between atoms: C_9  and  C_14 
REMARK       I    between atoms: C_14  and  N_15 
REMARK    4  A    between atoms: N_15  and  C_16 
REMARK    5  A    between atoms: C_16  and  C_17 
REMARK    6  A    between atoms: C_17  and  C_18 
REMARK    7  A    between atoms: C_17  and  C_24 
ROOT
HETATM    1  C   UNL     1      -9.456   1.625 -32.353  1.00  0.00     0.253 C 
HETATM    2  N   UNL     1      -9.191   0.815 -33.430  1.00  0.00    -0.358 N 
HETATM    3  O   UNL     1      -9.076   1.406 -31.201  1.00  0.00    -0.271 OA
HETATM    4  H   UNL     1      -9.522   1.049 -34.357  1.00  0.00     0.162 HD
ENDROOT
BRANCH   2   5
HETATM    5  C   UNL     1      -8.445  -0.441 -33.303  1.00  0.00     0.141 C 
BRANCH   5   6
HETATM    6  C   UNL     1      -6.977  -0.379 -33.859  1.00  0.00     0.026 C 
HETATM    7  C   UNL     1      -7.061   0.362 -35.224  1.00  0.00     0.027 C 
BRANCH   6   8
HETATM    8  C   UNL     1      -6.139   0.412 -32.811  1.00  0.00    -0.044 A 
HETATM    9  C   UNL     1      -5.521   1.637 -33.144  1.00  0.00     0.008 A 
HETATM   10  C   UNL     1      -4.777   2.358 -32.204  1.00  0.00     0.001 A 
HETATM   11  C   UNL     1      -4.613   1.860 -30.917  1.00  0.00     0.000 A 
HETATM   12  C   UNL     1      -5.184   0.639 -30.571  1.00  0.00     0.001 A 
HETATM   13  C   UNL     1      -5.935  -0.078 -31.508  1.00  0.00     0.008 A 
ENDBRANCH   6   8
BRANCH   6  14
HETATM   14  C   UNL     1      -6.360  -1.764 -34.205  1.00  0.00    -0.044 A 
HETATM   15  C   UNL     1      -4.976  -2.017 -34.191  1.00  0.00     0.008 A 
HETATM   16  C   UNL     1      -4.469  -3.284 -34.496  1.00  0.00     0.001 A 
HETATM   17  C   UNL     1      -5.332  -4.333 -34.799  1.00  0.00     0.000 A 
HETATM   18  C   UNL     1      -6.705  -4.122 -34.782  1.00  0.00     0.001 A 
HETATM   19  C   UNL     1      -7.212  -2.857 -34.479  1.00  0.00     0.008 A 
ENDBRANCH   6  14
ENDBRANCH   5   6
ENDBRANCH   2   5
BRANCH   1  20
HETATM   20  C   UNL     1     -10.372   2.839 -32.613  1.00  0.00     0.311 C 
BRANCH  20  21
HETATM   21  C   UNL     1      -9.629   3.953 -33.276  1.00  0.00     0.031 A 
HETATM   22  C   UNL     1      -8.524   4.676 -32.837  1.00  0.00     0.035 A 
HETATM   23  C   UNL     1      -7.681   4.616 -31.616  1.00  0.00     0.070 C 
HETATM   24  N   UNL     1      -8.240   5.575 -33.832  1.00  0.00    -0.282 N 
HETATM   25  H   UNL     1      -7.492   6.263 -33.874  1.00  0.00     0.189 HD
HETATM   26  N   UNL     1      -9.081   5.498 -34.866  1.00  0.00    -0.179 NA
HETATM   27  C   UNL     1      -9.920   4.511 -34.557  1.00  0.00     0.061 A 
HETATM   28  C   UNL     1     -10.981   4.137 -35.529  1.00  0.00     0.073 C 
ENDBRANCH  20  21
BRANCH  20  29
HETATM   29  N   UNL     1     -10.951   3.268 -31.300  1.00  0.00    -0.062 N 
HETATM   30  H   UNL     1     -10.424   4.055 -30.908  1.00  0.00     0.275 HD
HETATM   31  H   UNL     1     -11.895   3.633 -31.496  1.00  0.00     0.275 HD
HETATM   32  H   UNL     1     -11.008   2.497 -30.630  1.00  0.00     0.275 HD
ENDBRANCH  20  29
ENDBRANCH   1  20
TORSDOF 7
ENDMDL
MODEL 3
REMARK VINA RESULT:      -8.2      1.512      2.612
REMARK  7 active torsions:
REMARK  status: ('A' for Active; 'I' for Inactive)
REMARK    1  A    between atoms: C_8  and  C_9 
REMARK    2  A    between atoms: C_9  and  N_10 
REMARK    3  A    between atoms: C_9  and  C_14 
REMARK       I    between atoms: C_14  and  N_15 
REMARK    4  A    between atoms: N_15  and  C_16 
REMARK    5  A    between atoms: C_16  and  C_17 
REMARK    6  A    between atoms: C_17  and  C_18 
REMARK    7  A    between atoms: C_17  and  C_24 
ROOT
HETATM    1  C   UNL     1      -9.903   2.143 -32.417  1.00  0.00     0.253 C 
HETATM    2  N   UNL     1      -9.575   0.886 -32.863  1.00  0.00    -0.358 N 
HETATM    3  O   UNL     1      -9.147   2.880 -31.780  1.00  0.00    -0.271 OA
HETATM    4  H   UNL     1     -10.234   0.328 -33.390  1.00  0.00     0.162 HD
ENDROOT
BRANCH   2   5
HETATM    5  C   UNL     1      -8.276   0.267 -32.582  1.00  0.00     0.141 C 
BRANCH   5   6
HETATM    6  C   UNL     1      -7.225   0.417 -33.739  1.00  0.00     0.026 C 
HETATM    7  C   UNL     1      -8.044   0.546 -35.055  1.00  0.00     0.027 C 
BRANCH   6   8
HETATM    8  C   UNL     1      -6.404   1.704 -33.429  1.00  0.00    -0.044 A 
HETATM    9  C   UNL     1      -5.706   1.850 -32.211  1.00  0.00     0.008 A 
HETATM   10  C   UNL     1      -4.958   2.997 -31.931  1.00  0.00     0.001 A 
HETATM   11  C   UNL     1      -4.909   4.038 -32.851  1.00  0.00     0.000 A 
HETATM   12  C   UNL     1      -5.614   3.935 -34.047  1.00  0.00     0.001 A 
HETATM   13  C   UNL     1      -6.356   2.783 -34.331  1.00  0.00     0.008 A 
ENDBRANCH   6   8
BRANCH   6  14
HETATM   14  C   UNL     1      -6.327  -0.833 -33.961  1.00  0.00    -0.044 A 
HETATM   15  C   UNL     1      -4.993  -0.912 -33.521  1.00  0.00     0.008 A 
HETATM   16  C   UNL     1      -4.229  -2.065 -33.731  1.00  0.00     0.001 A 
HETATM   17  C   UNL     1      -4.786  -3.173 -34.363  1.00  0.00     0.000 A 
HETATM   18  C   UNL     1      -6.113  -3.137 -34.772  1.00  0.00     0.001 A 
HETATM   19  C   UNL     1      -6.876  -1.987 -34.564  1.00  0.00     0.008 A 
ENDBRANCH   6  14
ENDBRANCH   5   6
ENDBRANCH   2   5
BRANCH   1  20
HETATM   20  C   UNL     1     -11.353   2.607 -32.667  1.00  0.00     0.311 C 
BRANCH  20  21
HETATM   21  C   UNL     1     -11.672   2.644 -34.125  1.00  0.00     0.031 A 
HETATM   22  C   UNL     1     -11.199   3.490 -35.123  1.00  0.00     0.035 A 
HETATM   23  C   UNL     1     -10.228   4.614 -35.136  1.00  0.00     0.070 C 
HETATM   24  N   UNL     1     -11.808   3.086 -36.283  1.00  0.00    -0.282 N 
HETATM   25  H   UNL     1     -11.699   3.459 -37.223  1.00  0.00     0.189 HD
HETATM   26  N   UNL     1     -12.643   2.060 -36.108  1.00  0.00    -0.179 NA
HETATM   27  C   UNL     1     -12.564   1.765 -34.811  1.00  0.00     0.061 A 
HETATM   28  C   UNL     1     -13.360   0.627 -34.281  1.00  0.00     0.073 C 
ENDBRANCH  20  21
BRANCH  20  29
HETATM   29  N   UNL     1     -11.521   3.954 -32.032  1.00  0.00    -0.062 N 
HETATM   30  H   UNL     1     -11.006   4.670 -32.553  1.00  0.00     0.275 HD
HETATM   31  H   UNL     1     -12.517   4.203 -32.122  1.00  0.00     0.275 HD
HETATM   32  H   UNL     1     -11.250   3.955 -31.045  1.00  0.00     0.275 HD
ENDBRANCH  20  29
ENDBRANCH   1  20
TORSDOF 7
ENDMDL
MODEL 4
REMARK VINA RESULT:      -8.1      2.079      4.862
REMARK  7 active torsions:
REMARK  status: ('A' for Active; 'I' for Inactive)
REMARK    1  A    between atoms: C_8  and  C_9 
REMARK    2  A    between atoms: C_9  and  N_10 
REMARK    3  A    between atoms: C_9  and  C_14 
REMARK       I    between atoms: C_14  and  N_15 
REMARK    4  A    between atoms: N_15  and  C_16 
REMARK    5  A    between atoms: C_16  and  C_17 
REMARK    6  A    between atoms: C_17  and  C_18 
REMARK    7  A    between atoms: C_17  and  C_24 
ROOT
HETATM    1  C   UNL     1     -10.255   1.738 -32.881  1.00  0.00     0.253 C 
HETATM    2  N   UNL     1      -9.100   1.357 -32.243  1.00  0.00    -0.358 N 
HETATM    3  O   UNL     1     -10.839   1.064 -33.733  1.00  0.00    -0.271 OA
HETATM    4  H   UNL     1      -8.668   1.948 -31.544  1.00  0.00     0.162 HD
ENDROOT
BRANCH   2   5
HETATM    5  C   UNL     1      -8.411   0.100 -32.549  1.00  0.00     0.141 C 
BRANCH   5   6
HETATM    6  C   UNL     1      -6.848   0.167 -32.399  1.00  0.00     0.026 C 
HETATM    7  C   UNL     1      -6.551  -0.001 -30.881  1.00  0.00     0.027 C 
BRANCH   6   8
HETATM    8  C   UNL     1      -6.271  -1.008 -33.244  1.00  0.00    -0.044 A 
HETATM    9  C   UNL     1      -4.881  -1.251 -33.303  1.00  0.00     0.008 A 
HETATM   10  C   UNL     1      -4.358  -2.311 -34.050  1.00  0.00     0.001 A 
HETATM   11  C   UNL     1      -5.207  -3.137 -34.776  1.00  0.00     0.000 A 
HETATM   12  C   UNL     1      -6.579  -2.900 -34.761  1.00  0.00     0.001 A 
HETATM   13  C   UNL     1      -7.104  -1.846 -34.007  1.00  0.00     0.008 A 
ENDBRANCH   6   8
BRANCH   6  14
HETATM   14  C   UNL     1      -6.223   1.542 -32.768  1.00  0.00    -0.044 A 
HETATM   15  C   UNL     1      -6.468   2.196 -33.989  1.00  0.00     0.008 A 
HETATM   16  C   UNL     1      -5.894   3.441 -34.271  1.00  0.00     0.001 A 
HETATM   17  C   UNL     1      -5.082   4.070 -33.332  1.00  0.00     0.000 A 
HETATM   18  C   UNL     1      -4.855   3.464 -32.102  1.00  0.00     0.001 A 
HETATM   19  C   UNL     1      -5.427   2.222 -31.820  1.00  0.00     0.008 A 
ENDBRANCH   6  14
ENDBRANCH   5   6
ENDBRANCH   2   5
BRANCH   1  20
HETATM   20  C   UNL     1     -10.788   3.148 -32.558  1.00  0.00     0.311 C 
BRANCH  20  21
HETATM   21  C   UNL     1     -10.008   4.205 -33.268  1.00  0.00     0.031 A 
HETATM   22  C   UNL     1      -8.942   4.980 -32.823  1.00  0.00     0.035 A 
HETATM   23  C   UNL     1      -8.186   5.045 -31.547  1.00  0.00     0.070 C 
HETATM   24  N   UNL     1      -8.595   5.787 -33.877  1.00  0.00    -0.282 N 
HETATM   25  H   UNL     1      -7.850   6.478 -33.931  1.00  0.00     0.189 HD
HETATM   26  N   UNL     1      -9.361   5.603 -34.954  1.00  0.00    -0.179 NA
HETATM   27  C   UNL     1     -10.213   4.638 -34.614  1.00  0.00     0.061 A 
HETATM   28  C   UNL     1     -11.201   4.162 -35.617  1.00  0.00     0.073 C 
ENDBRANCH  20  21
BRANCH  20  29
HETATM   29  N   UNL     1     -10.735   3.330 -31.071  1.00  0.00    -0.062 N 
HETATM   30  H   UNL     1     -10.584   4.315 -30.829  1.00  0.00     0.275 HD
HETATM   31  H   UNL     1     -11.671   3.094 -30.709  1.00  0.00     0.275 HD
HETATM   32  H   UNL     1     -10.031   2.733 -30.631  1.00  0.00     0.275 HD
ENDBRANCH  20  29
ENDBRANCH   1  20
TORSDOF 7
ENDMDL
MODEL 5
REMARK VINA RESULT:      -8.0      4.359      7.200
REMARK  7 active torsions:
REMARK  status: ('A' for Active; 'I' for Inactive)
REMARK    1  A    between atoms: C_8  and  C_9 
REMARK    2  A    between atoms: C_9  and  N_10 
REMARK    3  A    between atoms: C_9  and  C_14 
REMARK       I    between atoms: C_14  and  N_15 
REMARK    4  A    between atoms: N_15  and  C_16 
REMARK    5  A    between atoms: C_16  and  C_17 
REMARK    6  A    between atoms: C_17  and  C_18 
REMARK    7  A    between atoms: C_17  and  C_24 
ROOT
HETATM    1  C   UNL     1      -4.804   4.483 -32.644  1.00  0.00     0.253 C 
HETATM    2  N   UNL     1      -4.967   3.119 -32.618  1.00  0.00    -0.358 N 
HETATM    3  O   UNL     1      -5.440   5.250 -33.370  1.00  0.00    -0.271 OA
HETATM    4  H   UNL     1      -4.422   2.537 -31.994  1.00  0.00     0.162 HD
ENDROOT
BRANCH   2   5
HETATM    5  C   UNL     1      -5.905   2.423 -33.503  1.00  0.00     0.141 C 
BRANCH   5   6
HETATM    6  C   UNL     1      -6.525   1.116 -32.887  1.00  0.00     0.026 C 
HETATM    7  C   UNL     1      -6.234   1.177 -31.361  1.00  0.00     0.027 C 
BRANCH   6   8
HETATM    8  C   UNL     1      -8.051   1.161 -33.197  1.00  0.00    -0.044 A 
HETATM    9  C   UNL     1      -8.595   2.145 -34.051  1.00  0.00     0.008 A 
HETATM   10  C   UNL     1      -9.962   2.183 -34.342  1.00  0.00     0.001 A 
HETATM   11  C   UNL     1     -10.822   1.255 -33.767  1.00  0.00     0.000 A 
HETATM   12  C   UNL     1     -10.318   0.294 -32.897  1.00  0.00     0.001 A 
HETATM   13  C   UNL     1      -8.949   0.250 -32.611  1.00  0.00     0.008 A 
ENDBRANCH   6   8
BRANCH   6  14
HETATM   14  C   UNL     1      -5.851  -0.202 -33.361  1.00  0.00    -0.044 A 
HETATM   15  C   UNL     1      -4.730  -0.766 -32.725  1.00  0.00     0.008 A 
HETATM   16  C   UNL     1      -4.167  -1.964 -33.179  1.00  0.00     0.001 A 
HETATM   17  C   UNL     1      -4.724  -2.636 -34.263  1.00  0.00     0.000 A 
HETATM   18  C   UNL     1      -5.855  -2.122 -34.885  1.00  0.00     0.001 A 
HETATM   19  C   UNL     1      -6.417  -0.927 -34.433  1.00  0.00     0.008 A 
ENDBRANCH   6  14
ENDBRANCH   5   6
ENDBRANCH   2   5
BRANCH   1  20
HETATM   20  C   UNL     1      -3.681   5.060 -31.759  1.00  0.00     0.311 C 
BRANCH  20  21
HETATM   21  C   UNL     1      -2.894   6.103 -32.483  1.00  0.00     0.031 A 
HETATM   22  C   UNL     1      -2.188   6.020 -33.679  1.00  0.00     0.035 A 
HETATM   23  C   UNL     1      -1.968   4.930 -34.664  1.00  0.00     0.070 C 
HETATM   24  N   UNL     1      -1.658   7.266 -33.893  1.00  0.00    -0.282 N 
HETATM   25  H   UNL     1      -1.091   7.591 -34.674  1.00  0.00     0.189 HD
HETATM   26  N   UNL     1      -1.953   8.136 -32.926  1.00  0.00    -0.179 NA
HETATM   27  C   UNL     1      -2.715   7.458 -32.069  1.00  0.00     0.061 A 
HETATM   28  C   UNL     1      -3.251   8.156 -30.872  1.00  0.00     0.073 C 
ENDBRANCH  20  21
BRANCH  20  29
HETATM   29  N   UNL     1      -2.812   3.922 -31.318  1.00  0.00    -0.062 N 
HETATM   30  H   UNL     1      -2.188   4.211 -30.558  1.00  0.00     0.275 HD
HETATM   31  H   UNL     1      -3.437   3.210 -30.911  1.00  0.00     0.275 HD
HETATM   32  H   UNL     1      -2.280   3.516 -32.092  1.00  0.00     0.275 HD
ENDBRANCH  20  29
ENDBRANCH   1  20
TORSDOF 7
ENDMDL
MODEL 6
REMARK VINA RESULT:      -7.9      3.169      6.674
REMARK  7 active torsions:
REMARK  status: ('A' for Active; 'I' for Inactive)
REMARK    1  A    between atoms: C_8  and  C_9 
REMARK    2  A    between atoms: C_9  and  N_10 
REMARK    3  A    between atoms: C_9  and  C_14 
REMARK       I    between atoms: C_14  and  N_15 
REMARK    4  A    between atoms: N_15  and  C_16 
REMARK    5  A    between atoms: C_16  and  C_17 
REMARK    6  A    between atoms: C_17  and  C_18 
REMARK    7  A    between atoms: C_17  and  C_24 
ROOT
HETATM    1  C   UNL     1      -6.716   4.756 -33.008  1.00  0.00     0.253 C 
HETATM    2  N   UNL     1      -7.688   3.873 -32.606  1.00  0.00    -0.358 N 
HETATM    3  O   UNL     1      -6.520   5.097 -34.176  1.00  0.00    -0.271 OA
HETATM    4  H   UNL     1      -7.809   3.635 -31.629  1.00  0.00     0.162 HD
ENDROOT
BRANCH   2   5
HETATM    5  C   UNL     1      -8.583   3.203 -33.554  1.00  0.00     0.141 C 
BRANCH   5   6
HETATM    6  C   UNL     1      -9.046   1.771 -33.104  1.00  0.00     0.026 C 
HETATM    7  C   UNL     1      -9.041   1.783 -31.549  1.00  0.00     0.027 C 
BRANCH   6   8
HETATM    8  C   UNL     1     -10.477   1.565 -33.685  1.00  0.00    -0.044 A 
HETATM    9  C   UNL     1     -11.285   0.484 -33.271  1.00  0.00     0.008 A 
HETATM   10  C   UNL     1     -12.574   0.301 -33.780  1.00  0.00     0.001 A 
HETATM   11  C   UNL     1     -13.078   1.178 -34.733  1.00  0.00     0.000 A 
HETATM   12  C   UNL     1     -12.291   2.235 -35.182  1.00  0.00     0.001 A 
HETATM   13  C   UNL     1     -11.004   2.423 -34.667  1.00  0.00     0.008 A 
ENDBRANCH   6   8
BRANCH   6  14
HETATM   14  C   UNL     1      -8.067   0.626 -33.488  1.00  0.00    -0.044 A 
HETATM   15  C   UNL     1      -7.942   0.126 -34.797  1.00  0.00     0.008 A 
HETATM   16  C   UNL     1      -7.036  -0.897 -35.097  1.00  0.00     0.001 A 
HETATM   17  C   UNL     1      -6.218  -1.427 -34.103  1.00  0.00     0.000 A 
HETATM   18  C   UNL     1      -6.293  -0.924 -32.810  1.00  0.00     0.001 A 
HETATM   19  C   UNL     1      -7.198   0.096 -32.509  1.00  0.00     0.008 A 
ENDBRANCH   6  14
ENDBRANCH   5   6
ENDBRANCH   2   5
BRANCH   1  20
HETATM   20  C   UNL     1      -5.759   5.273 -31.914  1.00  0.00     0.311 C 
BRANCH  20  21
HETATM   21  C   UNL     1      -4.622   4.331 -31.691  1.00  0.00     0.031 A 
HETATM   22  C   UNL     1      -4.564   3.165 -30.935  1.00  0.00     0.035 A 
HETATM   23  C   UNL     1      -5.557   2.426 -30.114  1.00  0.00     0.070 C 
HETATM   24  N   UNL     1      -3.287   2.684 -31.079  1.00  0.00    -0.282 N 
HETATM   25  H   UNL     1      -2.876   1.841 -30.683  1.00  0.00     0.189 HD
HETATM   26  N   UNL     1      -2.520   3.454 -31.853  1.00  0.00    -0.179 NA
HETATM   27  C   UNL     1      -3.313   4.448 -32.248  1.00  0.00     0.061 A 
HETATM   28  C   UNL     1      -2.767   5.483 -33.165  1.00  0.00     0.073 C 
ENDBRANCH  20  21
BRANCH  20  29
HETATM   29  N   UNL     1      -6.558   5.479 -30.664  1.00  0.00    -0.062 N 
HETATM   30  H   UNL     1      -7.062   6.371 -30.695  1.00  0.00     0.275 HD
HETATM   31  H   UNL     1      -7.285   4.747 -30.651  1.00  0.00     0.275 HD
HETATM   32  H   UNL     1      -5.984   5.413 -29.820  1.00  0.00     0.275 HD
ENDBRANCH  20  29
ENDBRANCH   1  20
TORSDOF 7
ENDMDL
MODEL 7
REMARK VINA RESULT:      -7.8      2.904      6.716
REMARK  7 active torsions:
REMARK  status: ('A' for Active; 'I' for Inactive)
REMARK    1  A    between atoms: C_8  and  C_9 
REMARK    2  A    between atoms: C_9  and  N_10 
REMARK    3  A    between atoms: C_9  and  C_14 
REMARK       I    between atoms: C_14  and  N_15 
REMARK    4  A    between atoms: N_15  and  C_16 
REMARK    5  A    between atoms: C_16  and  C_17 
REMARK    6  A    between atoms: C_17  and  C_18 
REMARK    7  A    between atoms: C_17  and  C_24 
ROOT
HETATM    1  C   UNL     1      -6.986   3.667 -30.912  1.00  0.00     0.253 C 
HETATM    2  N   UNL     1      -7.263   3.220 -32.181  1.00  0.00    -0.358 N 
HETATM    3  O   UNL     1      -7.836   4.037 -30.099  1.00  0.00    -0.271 OA
HETATM    4  H   UNL     1      -6.524   2.920 -32.804  1.00  0.00     0.162 HD
ENDROOT
BRANCH   2   5
HETATM    5  C   UNL     1      -8.626   3.175 -32.718  1.00  0.00     0.141 C 
BRANCH   5   6
HETATM    6  C   UNL     1      -9.198   1.725 -32.911  1.00  0.00     0.026 C 
HETATM    7  C   UNL     1      -9.465   1.170 -31.483  1.00  0.00     0.027 C 
BRANCH   6   8
HETATM    8  C   UNL     1     -10.509   1.871 -33.740  1.00  0.00    -0.044 A 
HETATM    9  C   UNL     1     -10.740   3.006 -34.547  1.00  0.00     0.008 A 
HETATM   10  C   UNL     1     -11.909   3.138 -35.302  1.00  0.00     0.001 A 
HETATM   11  C   UNL     1     -12.887   2.151 -35.249  1.00  0.00     0.000 A 
HETATM   12  C   UNL     1     -12.699   1.037 -34.437  1.00  0.00     0.001 A 
HETATM   13  C   UNL     1     -11.526   0.901 -33.687  1.00  0.00     0.008 A 
ENDBRANCH   6   8
BRANCH   6  14
HETATM   14  C   UNL     1      -8.196   0.715 -33.540  1.00  0.00    -0.044 A 
HETATM   15  C   UNL     1      -7.590  -0.324 -32.812  1.00  0.00     0.008 A 
HETATM   16  C   UNL     1      -6.705  -1.218 -33.425  1.00  0.00     0.001 A 
HETATM   17  C   UNL     1      -6.423  -1.107 -34.784  1.00  0.00     0.000 A 
HETATM   18  C   UNL     1      -7.038  -0.114 -35.536  1.00  0.00     0.001 A 
HETATM   19  C   UNL     1      -7.920   0.779 -34.924  1.00  0.00     0.008 A 
ENDBRANCH   6  14
ENDBRANCH   5   6
ENDBRANCH   2   5
BRANCH   1  20
HETATM   20  C   UNL     1      -5.496   3.791 -30.535  1.00  0.00     0.311 C 
BRANCH  20  21
HETATM   21  C   UNL     1      -4.714   2.606 -30.996  1.00  0.00     0.031 A 
HETATM   22  C   UNL     1      -3.635   2.532 -31.872  1.00  0.00     0.035 A 
HETATM   23  C   UNL     1      -2.864   3.547 -32.634  1.00  0.00     0.070 C 
HETATM   24  N   UNL     1      -3.293   1.206 -31.940  1.00  0.00    -0.282 N 
HETATM   25  H   UNL     1      -2.542   0.769 -32.471  1.00  0.00     0.189 HD
HETATM   26  N   UNL     1      -4.073   0.422 -31.193  1.00  0.00    -0.179 NA
HETATM   27  C   UNL     1      -4.930   1.251 -30.599  1.00  0.00     0.061 A 
HETATM   28  C   UNL     1      -5.934   0.694 -29.655  1.00  0.00     0.073 C 
ENDBRANCH  20  21
BRANCH  20  29
HETATM   29  N   UNL     1      -5.410   3.963 -29.049  1.00  0.00    -0.062 N 
HETATM   30  H   UNL     1      -5.490   3.060 -28.571  1.00  0.00     0.275 HD
HETATM   31  H   UNL     1      -4.460   4.305 -28.843  1.00  0.00     0.275 HD
HETATM   32  H   UNL     1      -6.103   4.626 -28.693  1.00  0.00     0.275 HD
ENDBRANCH  20  29
ENDBRANCH   1  20
TORSDOF 7
ENDMDL
MODEL 8
REMARK VINA RESULT:      -7.7      2.241      5.221
REMARK  7 active torsions:
REMARK  status: ('A' for Active; 'I' for Inactive)
REMARK    1  A    between atoms: C_8  and  C_9 
REMARK    2  A    between atoms: C_9  and  N_10 
REMARK    3  A    between atoms: C_9  and  C_14 
REMARK       I    between atoms: C_14  and  N_15 
REMARK    4  A    between atoms: N_15  and  C_16 
REMARK    5  A    between atoms: C_16  and  C_17 
REMARK    6  A    between atoms: C_17  and  C_18 
REMARK    7  A    between atoms: C_17  and  C_24 
ROOT
HETATM    1  C   UNL     1      -8.007   2.643 -30.806  1.00  0.00     0.253 C 
HETATM    2  N   UNL     1      -7.132   1.636 -31.132  1.00  0.00    -0.358 N 
HETATM    3  O   UNL     1      -7.684   3.708 -30.277  1.00  0.00    -0.271 OA
HETATM    4  H   UNL     1      -7.453   0.784 -31.574  1.00  0.00     0.162 HD
ENDROOT
BRANCH   2   5
HETATM    5  C   UNL     1      -5.698   1.715 -30.837  1.00  0.00     0.141 C 
BRANCH   5   6
HETATM    6  C   UNL     1      -4.774   1.659 -32.107  1.00  0.00     0.026 C 
HETATM    7  C   UNL     1      -3.426   1.044 -31.634  1.00  0.00     0.027 C 
BRANCH   6   8
HETATM    8  C   UNL     1      -5.501   0.753 -33.145  1.00  0.00    -0.044 A 
HETATM    9  C   UNL     1      -5.331  -0.648 -33.138  1.00  0.00     0.008 A 
HETATM   10  C   UNL     1      -5.990  -1.468 -34.059  1.00  0.00     0.001 A 
HETATM   11  C   UNL     1      -6.816  -0.905 -35.025  1.00  0.00     0.000 A 
HETATM   12  C   UNL     1      -6.977   0.477 -35.075  1.00  0.00     0.001 A 
HETATM   13  C   UNL     1      -6.324   1.296 -34.148  1.00  0.00     0.008 A 
ENDBRANCH   6   8
BRANCH   6  14
HETATM   14  C   UNL     1      -4.386   3.049 -32.685  1.00  0.00    -0.044 A 
HETATM   15  C   UNL     1      -5.333   4.018 -33.062  1.00  0.00     0.008 A 
HETATM   16  C   UNL     1      -4.936   5.262 -33.564  1.00  0.00     0.001 A 
HETATM   17  C   UNL     1      -3.584   5.575 -33.678  1.00  0.00     0.000 A 
HETATM   18  C   UNL     1      -2.627   4.651 -33.276  1.00  0.00     0.001 A 
HETATM   19  C   UNL     1      -3.023   3.410 -32.776  1.00  0.00     0.008 A 
ENDBRANCH   6  14
ENDBRANCH   5   6
ENDBRANCH   2   5
BRANCH   1  20
HETATM   20  C   UNL     1      -9.505   2.360 -31.047  1.00  0.00     0.311 C 
BRANCH  20  21
HETATM   21  C   UNL     1      -9.818   2.280 -32.505  1.00  0.00     0.031 A 
HETATM   22  C   UNL     1      -9.853   3.284 -33.468  1.00  0.00     0.035 A 
HETATM   23  C   UNL     1      -9.586   4.744 -33.435  1.00  0.00     0.070 C 
HETATM   24  N   UNL     1     -10.189   2.666 -34.646  1.00  0.00    -0.282 N 
HETATM   25  H   UNL     1     -10.297   3.077 -35.571  1.00  0.00     0.189 HD
HETATM   26  N   UNL     1     -10.387   1.354 -34.514  1.00  0.00    -0.179 NA
HETATM   27  C   UNL     1     -10.151   1.095 -33.229  1.00  0.00     0.061 A 
HETATM   28  C   UNL     1     -10.253  -0.308 -32.746  1.00  0.00     0.073 C 
ENDBRANCH  20  21
BRANCH  20  29
HETATM   29  N   UNL     1     -10.292   3.441 -30.372  1.00  0.00    -0.062 N 
HETATM   30  H   UNL     1     -10.155   3.413 -29.357  1.00  0.00     0.275 HD
HETATM   31  H   UNL     1      -9.891   4.339 -30.684  1.00  0.00     0.275 HD
HETATM   32  H   UNL     1     -11.286   3.404 -30.608  1.00  0.00     0.275 HD
ENDBRANCH  20  29
ENDBRANCH   1  20
TORSDOF 7
ENDMDL
MODEL 9
REMARK VINA RESULT:      -7.6      3.091      6.666
REMARK  7 active torsions:
REMARK  status: ('A' for Active; 'I' for Inactive)
REMARK    1  A    between atoms: C_8  and  C_9 
REMARK    2  A    between atoms: C_9  and  N_10 
REMARK    3  A    between atoms: C_9  and  C_14 
REMARK       I    between atoms: C_14  and  N_15 
REMARK    4  A    between atoms: N_15  and  C_16 
REMARK    5  A    between atoms: C_16  and  C_17 
REMARK    6  A    between atoms: C_17  and  C_18 
REMARK    7  A    between atoms: C_17  and  C_24 
ROOT
HETATM    1  C   UNL     1      -7.072   2.955 -30.843  1.00  0.00     0.253 C 
HETATM    2  N   UNL     1      -8.255   3.163 -31.509  1.00  0.00    -0.358 N 
HETATM    3  O   UNL     1      -6.663   1.854 -30.468  1.00  0.00    -0.271 OA
HETATM    4  H   UNL     1      -8.537   4.090 -31.801  1.00  0.00     0.162 HD
ENDROOT
BRANCH   2   5
HETATM    5  C   UNL     1      -9.188   2.074 -31.812  1.00  0.00     0.141 C 
BRANCH   5   6
HETATM    6  C   UNL     1      -9.403   1.815 -33.347  1.00  0.00     0.026 C 
HETATM    7  C   UNL     1      -9.170   3.181 -34.053  1.00  0.00     0.027 C 
BRANCH   6   8
HETATM    8  C   UNL     1      -8.350   0.748 -33.769  1.00  0.00    -0.044 A 
HETATM    9  C   UNL     1      -7.859   0.689 -35.091  1.00  0.00     0.008 A 
HETATM   10  C   UNL     1      -6.905  -0.259 -35.473  1.00  0.00     0.001 A 
HETATM   11  C   UNL     1      -6.437  -1.186 -34.550  1.00  0.00     0.000 A 
HETATM   12  C   UNL     1      -6.927  -1.171 -33.248  1.00  0.00     0.001 A 
HETATM   13  C   UNL     1      -7.875  -0.218 -32.863  1.00  0.00     0.008 A 
ENDBRANCH   6   8
BRANCH   6  14
HETATM   14  C   UNL     1     -10.856   1.418 -33.736  1.00  0.00    -0.044 A 
HETATM   15  C   UNL     1     -11.491   0.258 -33.258  1.00  0.00     0.008 A 
HETATM   16  C   UNL     1     -12.806  -0.050 -33.624  1.00  0.00     0.001 A 
HETATM   17  C   UNL     1     -13.522   0.804 -34.457  1.00  0.00     0.000 A 
HETATM   18  C   UNL     1     -12.932   1.977 -34.913  1.00  0.00     0.001 A 
HETATM   19  C   UNL     1     -11.620   2.285 -34.548  1.00  0.00     0.008 A 
ENDBRANCH   6  14
ENDBRANCH   5   6
ENDBRANCH   2   5
BRANCH   1  20
HETATM   20  C   UNL     1      -6.260   4.213 -30.470  1.00  0.00     0.311 C 
BRANCH  20  21
HETATM   21  C   UNL     1      -5.428   4.687 -31.615  1.00  0.00     0.031 A 
HETATM   22  C   UNL     1      -4.267   4.148 -32.160  1.00  0.00     0.035 A 
HETATM   23  C   UNL     1      -3.454   2.944 -31.849  1.00  0.00     0.070 C 
HETATM   24  N   UNL     1      -3.918   4.971 -33.200  1.00  0.00    -0.282 N 
HETATM   25  H   UNL     1      -3.132   4.888 -33.841  1.00  0.00     0.189 HD
HETATM   26  N   UNL     1      -4.751   6.001 -33.357  1.00  0.00    -0.179 NA
HETATM   27  C   UNL     1      -5.683   5.840 -32.419  1.00  0.00     0.061 A 
HETATM   28  C   UNL     1      -6.801   6.817 -32.338  1.00  0.00     0.073 C 
ENDBRANCH  20  21
BRANCH  20  29
HETATM   29  N   UNL     1      -5.418   3.880 -29.277  1.00  0.00    -0.062 N 
HETATM   30  H   UNL     1      -5.979   3.428 -28.548  1.00  0.00     0.275 HD
HETATM   31  H   UNL     1      -4.734   3.171 -29.583  1.00  0.00     0.275 HD
HETATM   32  H   UNL     1      -4.927   4.697 -28.906  1.00  0.00     0.275 HD
ENDBRANCH  20  29
ENDBRANCH   1  20
TORSDOF 7
ENDMDL
MODEL 10
REMARK VINA RESULT:      -7.6      3.323      5.523
REMARK  7 active torsions:
REMARK  status: ('A' for Active; 'I' for Inactive)
REMARK    1  A    between atoms: C_8  and  C_9 
REMARK    2  A    between atoms: C_9  and  N_10 
REMARK    3  A    between atoms: C_9  and  C_14 
REMARK       I    between atoms: C_14  and  N_15 
REMARK    4  A    between atoms: N_15  and  C_16 
REMARK    5  A    between atoms: C_16  and  C_17 
REMARK    6  A    between atoms: C_17  and  C_18 
REMARK    7  A    between atoms: C_17  and  C_24 
ROOT
HETATM    1  C   UNL     1      -4.152   2.628 -32.069  1.00  0.00     0.253 C 
HETATM    2  N   UNL     1      -5.264   1.987 -32.557  1.00  0.00    -0.358 N 
HETATM    3  O   UNL     1      -2.989   2.297 -32.312  1.00  0.00    -0.271 OA
HETATM    4  H   UNL     1      -6.197   2.309 -32.330  1.00  0.00     0.162 HD
ENDROOT
BRANCH   2   5
HETATM    5  C   UNL     1      -5.175   0.794 -33.403  1.00  0.00     0.141 C 
BRANCH   5   6
HETATM    6  C   UNL     1      -6.169  -0.357 -33.003  1.00  0.00     0.026 C 
HETATM    7  C   UNL     1      -5.920  -0.639 -31.495  1.00  0.00     0.027 C 
BRANCH   6   8
HETATM    8  C   UNL     1      -7.605   0.184 -33.272  1.00  0.00    -0.044 A 
HETATM    9  C   UNL     1      -7.975   0.673 -34.543  1.00  0.00     0.008 A 
HETATM   10  C   UNL     1      -9.266   1.149 -34.793  1.00  0.00     0.001 A 
HETATM   11  C   UNL     1     -10.210   1.171 -33.773  1.00  0.00     0.000 A 
HETATM   12  C   UNL     1      -9.862   0.725 -32.502  1.00  0.00     0.001 A 
HETATM   13  C   UNL     1      -8.573   0.241 -32.253  1.00  0.00     0.008 A 
ENDBRANCH   6   8
BRANCH   6  14
HETATM   14  C   UNL     1      -5.895  -1.717 -33.705  1.00  0.00    -0.044 A 
HETATM   15  C   UNL     1      -4.614  -2.290 -33.802  1.00  0.00     0.008 A 
HETATM   16  C   UNL     1      -4.419  -3.525 -34.431  1.00  0.00     0.001 A 
HETATM   17  C   UNL     1      -5.501  -4.226 -34.955  1.00  0.00     0.000 A 
HETATM   18  C   UNL     1      -6.783  -3.702 -34.838  1.00  0.00     0.001 A 
HETATM   19  C   UNL     1      -6.978  -2.470 -34.212  1.00  0.00     0.008 A 
ENDBRANCH   6  14
ENDBRANCH   5   6
ENDBRANCH   2   5
BRANCH   1  20
HETATM   20  C   UNL     1      -4.401   3.783 -31.078  1.00  0.00     0.311 C 
BRANCH  20  21
HETATM   21  C   UNL     1      -5.485   4.692 -31.557  1.00  0.00     0.031 A 
HETATM   22  C   UNL     1      -6.715   4.996 -30.984  1.00  0.00     0.035 A 
HETATM   23  C   UNL     1      -7.391   4.578 -29.729  1.00  0.00     0.070 C 
HETATM   24  N   UNL     1      -7.318   5.889 -31.832  1.00  0.00    -0.282 N 
HETATM   25  H   UNL     1      -8.222   6.346 -31.738  1.00  0.00     0.189 HD
HETATM   26  N   UNL     1      -6.581   6.171 -32.909  1.00  0.00    -0.179 NA
HETATM   27  C   UNL     1      -5.459   5.470 -32.755  1.00  0.00     0.061 A 
HETATM   28  C   UNL     1      -4.391   5.584 -33.782  1.00  0.00     0.073 C 
ENDBRANCH  20  21
BRANCH  20  29
HETATM   29  N   UNL     1      -3.108   4.518 -30.893  1.00  0.00    -0.062 N 
HETATM   30  H   UNL     1      -3.152   5.135 -30.076  1.00  0.00     0.275 HD
HETATM   31  H   UNL     1      -2.393   3.809 -30.669  1.00  0.00     0.275 HD
HETATM   32  H   UNL     1      -2.833   5.037 -31.729  1.00  0.00     0.275 HD
ENDBRANCH  20  29
ENDBRANCH   1  20
TORSDOF 7
ENDMDL
