MODEL 1
REMARK VINA RESULT:      -8.5      0.000      0.000
REMARK  3 active torsions:
REMARK  status: ('A' for Active; 'I' for Inactive)
REMARK    1  A    between atoms: C_2  and  N_3 
REMARK       I    between atoms: N_3  and  C_4 
REMARK    2  A    between atoms: C_4  and  C_5 
REMARK    3  A    between atoms: C_22  and  C_23 
REMARK       I    between atoms: C_23  and  N_24 
ROOT
HETATM    1  C   UNL     1      -5.395  -0.154 -32.980  1.00  0.00     0.109 A 
HETATM    2  C   UNL     1      -4.333  -0.960 -33.401  1.00  0.00     0.136 A 
HETATM    3  F   UNL     1      -3.061  -0.599 -33.172  1.00  0.00    -0.205 F 
HETATM    4  C   UNL     1      -4.543  -2.166 -34.075  1.00  0.00     0.066 A 
HETATM    5  C   UNL     1      -5.842  -2.595 -34.344  1.00  0.00     0.050 A 
HETATM    6  C   UNL     1      -6.067  -3.828 -35.039  1.00  0.00     0.099 C 
HETATM    7  N   UNL     1      -6.245  -4.826 -35.604  1.00  0.00    -0.191 NA
HETATM    8  C   UNL     1      -6.918  -1.810 -33.931  1.00  0.00     0.066 A 
HETATM    9  C   UNL     1      -6.691  -0.606 -33.258  1.00  0.00     0.136 A 
HETATM   10  F   UNL     1      -7.774   0.096 -32.901  1.00  0.00    -0.205 F 
ENDROOT
BRANCH   1  11
HETATM   11  C   UNL     1      -5.194   1.145 -32.267  1.00  0.00     0.262 C 
HETATM   12  N   UNL     1      -4.763   2.213 -33.039  1.00  0.00    -0.323 N 
HETATM   13  H   UNL     1      -4.573   2.036 -34.020  1.00  0.00     0.169 HD
HETATM   14  O   UNL     1      -5.416   1.196 -31.064  1.00  0.00    -0.267 OA
BRANCH  12  15
HETATM   15  C   UNL     1      -4.547   3.548 -32.628  1.00  0.00     0.036 A 
HETATM   16  C   UNL     1      -5.495   4.566 -32.741  1.00  0.00     0.032 A 
HETATM   17  C   UNL     1      -5.220   5.880 -32.332  1.00  0.00     0.034 A 
HETATM   18  C   UNL     1      -3.954   6.133 -31.801  1.00  0.00     0.063 A 
HETATM   19  C   UNL     1      -2.982   5.152 -31.669  1.00  0.00     0.030 A 
HETATM   20  N   UNL     1      -3.381   7.278 -31.323  1.00  0.00    -0.277 N 
HETATM   21  C   UNL     1      -3.282   3.839 -32.088  1.00  0.00     0.046 A 
HETATM   22  C   UNL     1      -1.860   5.817 -31.093  1.00  0.00     0.156 A 
HETATM   23  N   UNL     1      -2.119   7.128 -30.886  1.00  0.00    -0.168 NA
HETATM   24  H   UNL     1      -3.803   8.198 -31.268  1.00  0.00     0.189 HD
BRANCH  22  25
HETATM   25  C   UNL     1      -0.561   5.226 -30.744  1.00  0.00     0.270 C 
HETATM   26  N   UNL     1      -0.303   5.194 -29.401  1.00  0.00    -0.365 N 
HETATM   27  H   UNL     1      -1.000   5.564 -28.765  1.00  0.00     0.159 HD
HETATM   28  H   UNL     1       0.562   4.803 -29.064  1.00  0.00     0.159 HD
HETATM   29  O   UNL     1       0.245   4.789 -31.560  1.00  0.00    -0.266 OA
ENDBRANCH  22  25
ENDBRANCH  12  15
ENDBRANCH   1  11
TORSDOF 3
ENDMDL
MODEL 2
REMARK VINA RESULT:      -8.5      0.079      1.657
REMARK  3 active torsions:
REMARK  status: ('A' for Active; 'I' for Inactive)
REMARK    1  A    between atoms: C_2  and  N_3 
REMARK       I    between atoms: N_3  and  C_4 
REMARK    2  A    between atoms: C_4  and  C_5 
REMARK    3  A    between atoms: C_22  and  C_23 
REMARK       I    between atoms: C_23  and  N_24 
ROOT
HETATM    1  C   UNL     1      -5.474  -0.086 -33.006  1.00  0.00     0.109 A 
HETATM    2  C   UNL     1      -6.746  -0.605 -33.266  1.00  0.00     0.136 A 
HETATM    3  F   UNL     1      -7.850   0.053 -32.881  1.00  0.00    -0.205 F 
HETATM    4  C   UNL     1      -6.926  -1.820 -33.930  1.00  0.00     0.066 A 
HETATM    5  C   UNL     1      -5.817  -2.552 -34.355  1.00  0.00     0.050 A 
HETATM    6  C   UNL     1      -5.991  -3.803 -35.032  1.00  0.00     0.099 C 
HETATM    7  N   UNL     1      -6.137  -4.816 -35.579  1.00  0.00    -0.191 NA
HETATM    8  C   UNL     1      -4.538  -2.054 -34.109  1.00  0.00     0.066 A 
HETATM    9  C   UNL     1      -4.375  -0.836 -33.443  1.00  0.00     0.136 A 
HETATM   10  F   UNL     1      -3.116  -0.428 -33.236  1.00  0.00    -0.205 F 
ENDROOT
BRANCH   1  11
HETATM   11  C   UNL     1      -5.257   1.207 -32.287  1.00  0.00     0.262 C 
HETATM   12  N   UNL     1      -4.805   2.271 -33.051  1.00  0.00    -0.323 N 
HETATM   13  H   UNL     1      -4.611   2.096 -34.031  1.00  0.00     0.169 HD
HETATM   14  O   UNL     1      -5.487   1.256 -31.084  1.00  0.00    -0.267 OA
BRANCH  12  15
HETATM   15  C   UNL     1      -4.571   3.601 -32.632  1.00  0.00     0.036 A 
HETATM   16  C   UNL     1      -5.506   4.632 -32.739  1.00  0.00     0.032 A 
HETATM   17  C   UNL     1      -5.214   5.940 -32.322  1.00  0.00     0.034 A 
HETATM   18  C   UNL     1      -3.945   6.174 -31.791  1.00  0.00     0.063 A 
HETATM   19  C   UNL     1      -2.986   5.179 -31.664  1.00  0.00     0.030 A 
HETATM   20  N   UNL     1      -3.357   7.309 -31.306  1.00  0.00    -0.277 N 
HETATM   21  C   UNL     1      -3.303   3.873 -32.090  1.00  0.00     0.046 A 
HETATM   22  C   UNL     1      -1.855   5.826 -31.085  1.00  0.00     0.156 A 
HETATM   23  N   UNL     1      -2.096   7.139 -30.870  1.00  0.00    -0.168 NA
HETATM   24  H   UNL     1      -3.767   8.234 -31.246  1.00  0.00     0.189 HD
BRANCH  22  25
HETATM   25  C   UNL     1      -0.564   5.216 -30.740  1.00  0.00     0.270 C 
HETATM   26  N   UNL     1      -0.292   5.203 -29.399  1.00  0.00    -0.365 N 
HETATM   27  H   UNL     1      -0.973   5.598 -28.763  1.00  0.00     0.159 HD
HETATM   28  H   UNL     1       0.570   4.802 -29.064  1.00  0.00     0.159 HD
HETATM   29  O   UNL     1       0.224   4.750 -31.557  1.00  0.00    -0.266 OA
ENDBRANCH  22  25
ENDBRANCH  12  15
ENDBRANCH   1  11
TORSDOF 3
ENDMDL
MODEL 3
REMARK VINA RESULT:      -8.2      5.993      8.144
REMARK  3 active torsions:
REMARK  status: ('A' for Active; 'I' for Inactive)
REMARK    1  A    between atoms: C_2  and  N_3 
REMARK       I    between atoms: N_3  and  C_4 
REMARK    2  A    between atoms: C_4  and  C_5 
REMARK    3  A    between atoms: C_22  and  C_23 
REMARK       I    between atoms: C_23  and  N_24 
ROOT
HETATM    1  C   UNL     1     -12.667   1.924 -33.208  1.00  0.00     0.109 A 
HETATM    2  C   UNL     1     -13.108   3.030 -32.474  1.00  0.00     0.136 A 
HETATM    3  F   UNL     1     -12.248   3.980 -32.077  1.00  0.00    -0.205 F 
HETATM    4  C   UNL     1     -14.449   3.195 -32.122  1.00  0.00     0.066 A 
HETATM    5  C   UNL     1     -15.392   2.241 -32.504  1.00  0.00     0.050 A 
HETATM    6  C   UNL     1     -16.770   2.399 -32.143  1.00  0.00     0.099 C 
HETATM    7  N   UNL     1     -17.884   2.530 -31.847  1.00  0.00    -0.191 NA
HETATM    8  C   UNL     1     -14.978   1.130 -33.239  1.00  0.00     0.066 A 
HETATM    9  C   UNL     1     -13.631   0.979 -33.583  1.00  0.00     0.136 A 
HETATM   10  F   UNL     1     -13.308  -0.117 -34.281  1.00  0.00    -0.205 F 
ENDROOT
BRANCH   1  11
HETATM   11  C   UNL     1     -11.235   1.720 -33.586  1.00  0.00     0.262 C 
HETATM   12  N   UNL     1     -10.506   0.842 -32.798  1.00  0.00    -0.323 N 
HETATM   13  H   UNL     1     -10.976   0.430 -31.999  1.00  0.00     0.169 HD
HETATM   14  O   UNL     1     -10.790   2.328 -34.552  1.00  0.00    -0.267 OA
BRANCH  12  15
HETATM   15  C   UNL     1      -9.163   0.438 -32.967  1.00  0.00     0.036 A 
HETATM   16  C   UNL     1      -8.732  -0.462 -33.944  1.00  0.00     0.032 A 
HETATM   17  C   UNL     1      -7.385  -0.841 -34.056  1.00  0.00     0.034 A 
HETATM   18  C   UNL     1      -6.485  -0.282 -33.147  1.00  0.00     0.063 A 
HETATM   19  C   UNL     1      -6.869   0.617 -32.162  1.00  0.00     0.030 A 
HETATM   20  N   UNL     1      -5.137  -0.441 -32.988  1.00  0.00    -0.277 N 
HETATM   21  C   UNL     1      -8.227   0.983 -32.070  1.00  0.00     0.046 A 
HETATM   22  C   UNL     1      -5.667   0.939 -31.466  1.00  0.00     0.156 A 
HETATM   23  N   UNL     1      -4.607   0.279 -31.985  1.00  0.00    -0.168 NA
HETATM   24  H   UNL     1      -4.521  -1.031 -33.536  1.00  0.00     0.189 HD
BRANCH  22  25
HETATM   25  C   UNL     1      -5.519   1.855 -30.327  1.00  0.00     0.270 C 
HETATM   26  N   UNL     1      -6.242   1.495 -29.223  1.00  0.00    -0.365 N 
HETATM   27  H   UNL     1      -6.805   0.654 -29.265  1.00  0.00     0.159 HD
HETATM   28  H   UNL     1      -6.203   2.060 -28.389  1.00  0.00     0.159 HD
HETATM   29  O   UNL     1      -4.818   2.862 -30.332  1.00  0.00    -0.266 OA
ENDBRANCH  22  25
ENDBRANCH  12  15
ENDBRANCH   1  11
TORSDOF 3
ENDMDL
MODEL 4
REMARK VINA RESULT:      -8.2      1.845      2.691
REMARK  3 active torsions:
REMARK  status: ('A' for Active; 'I' for Inactive)
REMARK    1  A    between atoms: C_2  and  N_3 
REMARK       I    between atoms: N_3  and  C_4 
REMARK    2  A    between atoms: C_4  and  C_5 
REMARK    3  A    between atoms: C_22  and  C_23 
REMARK       I    between atoms: C_23  and  N_24 
ROOT
HETATM    1  C   UNL     1      -5.785  -0.112 -33.810  1.00  0.00     0.109 A 
HETATM    2  C   UNL     1      -6.914  -0.829 -34.222  1.00  0.00     0.136 A 
HETATM    3  F   UNL     1      -8.108  -0.228 -34.335  1.00  0.00    -0.205 F 
HETATM    4  C   UNL     1      -6.851  -2.190 -34.531  1.00  0.00     0.066 A 
HETATM    5  C   UNL     1      -5.638  -2.871 -34.432  1.00  0.00     0.050 A 
HETATM    6  C   UNL     1      -5.565  -4.268 -34.742  1.00  0.00     0.099 C 
HETATM    7  N   UNL     1      -5.511  -5.400 -34.991  1.00  0.00    -0.191 NA
HETATM    8  C   UNL     1      -4.499  -2.177 -34.026  1.00  0.00     0.066 A 
HETATM    9  C   UNL     1      -4.578  -0.815 -33.721  1.00  0.00     0.136 A 
HETATM   10  F   UNL     1      -3.443  -0.220 -33.329  1.00  0.00    -0.205 F 
ENDROOT
BRANCH   1  11
HETATM   11  C   UNL     1      -5.831   1.342 -33.464  1.00  0.00     0.262 C 
HETATM   12  N   UNL     1      -5.076   1.741 -32.372  1.00  0.00    -0.323 N 
HETATM   13  H   UNL     1      -4.579   1.022 -31.858  1.00  0.00     0.169 HD
HETATM   14  O   UNL     1      -6.520   2.088 -34.149  1.00  0.00    -0.267 OA
BRANCH  12  15
HETATM   15  C   UNL     1      -4.905   3.051 -31.869  1.00  0.00     0.036 A 
HETATM   16  C   UNL     1      -5.449   3.506 -30.667  1.00  0.00     0.032 A 
HETATM   17  C   UNL     1      -5.261   4.824 -30.223  1.00  0.00     0.034 A 
HETATM   18  C   UNL     1      -4.502   5.670 -31.034  1.00  0.00     0.063 A 
HETATM   19  C   UNL     1      -3.942   5.260 -32.235  1.00  0.00     0.030 A 
HETATM   20  N   UNL     1      -4.142   6.981 -30.895  1.00  0.00    -0.277 N 
HETATM   21  C   UNL     1      -4.145   3.931 -32.660  1.00  0.00     0.046 A 
HETATM   22  C   UNL     1      -3.259   6.407 -32.736  1.00  0.00     0.156 A 
HETATM   23  N   UNL     1      -3.392   7.462 -31.901  1.00  0.00    -0.168 NA
HETATM   24  H   UNL     1      -4.380   7.604 -30.131  1.00  0.00     0.189 HD
BRANCH  22  25
HETATM   25  C   UNL     1      -2.494   6.509 -33.986  1.00  0.00     0.270 C 
HETATM   26  N   UNL     1      -3.033   5.809 -35.030  1.00  0.00    -0.365 N 
HETATM   27  H   UNL     1      -3.890   5.291 -34.876  1.00  0.00     0.159 HD
HETATM   28  H   UNL     1      -2.581   5.820 -35.931  1.00  0.00     0.159 HD
HETATM   29  O   UNL     1      -1.460   7.156 -34.117  1.00  0.00    -0.266 OA
ENDBRANCH  22  25
ENDBRANCH  12  15
ENDBRANCH   1  11
TORSDOF 3
ENDMDL
MODEL 5
REMARK VINA RESULT:      -8.2      5.073      7.419
REMARK  3 active torsions:
REMARK  status: ('A' for Active; 'I' for Inactive)
REMARK    1  A    between atoms: C_2  and  N_3 
REMARK       I    between atoms: N_3  and  C_4 
REMARK    2  A    between atoms: C_4  and  C_5 
REMARK    3  A    between atoms: C_22  and  C_23 
REMARK       I    between atoms: C_23  and  N_24 
ROOT
HETATM    1  C   UNL     1      -6.266  -0.433 -33.780  1.00  0.00     0.109 A 
HETATM    2  C   UNL     1      -6.563  -1.480 -34.658  1.00  0.00     0.136 A 
HETATM    3  F   UNL     1      -7.626  -1.415 -35.473  1.00  0.00    -0.205 F 
HETATM    4  C   UNL     1      -5.775  -2.632 -34.725  1.00  0.00     0.066 A 
HETATM    5  C   UNL     1      -4.656  -2.759 -33.903  1.00  0.00     0.050 A 
HETATM    6  C   UNL     1      -3.845  -3.939 -33.961  1.00  0.00     0.099 C 
HETATM    7  N   UNL     1      -3.193  -4.897 -34.010  1.00  0.00    -0.191 NA
HETATM    8  C   UNL     1      -4.338  -1.727 -33.020  1.00  0.00     0.066 A 
HETATM    9  C   UNL     1      -5.137  -0.581 -32.965  1.00  0.00     0.136 A 
HETATM   10  F   UNL     1      -4.773   0.363 -32.087  1.00  0.00    -0.205 F 
ENDROOT
BRANCH   1  11
HETATM   11  C   UNL     1      -7.101   0.804 -33.682  1.00  0.00     0.262 C 
HETATM   12  N   UNL     1      -8.271   0.703 -32.946  1.00  0.00    -0.323 N 
HETATM   13  H   UNL     1      -8.505  -0.205 -32.559  1.00  0.00     0.169 HD
HETATM   14  O   UNL     1      -6.715   1.820 -34.247  1.00  0.00    -0.267 OA
BRANCH  12  15
HETATM   15  C   UNL     1      -9.204   1.725 -32.657  1.00  0.00     0.036 A 
HETATM   16  C   UNL     1      -8.961   2.785 -31.782  1.00  0.00     0.032 A 
HETATM   17  C   UNL     1      -9.931   3.764 -31.520  1.00  0.00     0.034 A 
HETATM   18  C   UNL     1     -11.159   3.638 -32.172  1.00  0.00     0.063 A 
HETATM   19  C   UNL     1     -11.444   2.603 -33.050  1.00  0.00     0.030 A 
HETATM   20  N   UNL     1     -12.291   4.404 -32.134  1.00  0.00    -0.277 N 
HETATM   21  C   UNL     1     -10.453   1.631 -33.298  1.00  0.00     0.046 A 
HETATM   22  C   UNL     1     -12.779   2.846 -33.489  1.00  0.00     0.156 A 
HETATM   23  N   UNL     1     -13.290   3.958 -32.916  1.00  0.00    -0.168 NA
HETATM   24  H   UNL     1     -12.443   5.246 -31.591  1.00  0.00     0.189 HD
BRANCH  22  25
HETATM   25  C   UNL     1     -13.563   2.039 -34.434  1.00  0.00     0.270 C 
HETATM   26  N   UNL     1     -14.771   1.623 -33.946  1.00  0.00    -0.365 N 
HETATM   27  H   UNL     1     -15.031   1.890 -33.005  1.00  0.00     0.159 HD
HETATM   28  H   UNL     1     -15.382   1.066 -34.523  1.00  0.00     0.159 HD
HETATM   29  O   UNL     1     -13.196   1.748 -35.568  1.00  0.00    -0.266 OA
ENDBRANCH  22  25
ENDBRANCH  12  15
ENDBRANCH   1  11
TORSDOF 3
ENDMDL
MODEL 6
REMARK VINA RESULT:      -7.9      5.668      8.360
REMARK  3 active torsions:
REMARK  status: ('A' for Active; 'I' for Inactive)
REMARK    1  A    between atoms: C_2  and  N_3 
REMARK       I    between atoms: N_3  and  C_4 
REMARK    2  A    between atoms: C_4  and  C_5 
REMARK    3  A    between atoms: C_22  and  C_23 
REMARK       I    between atoms: C_23  and  N_24 
ROOT
HETATM    1  C   UNL     1     -12.018   2.185 -33.220  1.00  0.00     0.109 A 
HETATM    2  C   UNL     1     -12.647   3.325 -32.710  1.00  0.00     0.136 A 
HETATM    3  F   UNL     1     -11.943   4.432 -32.427  1.00  0.00    -0.205 F 
HETATM    4  C   UNL     1     -14.023   3.365 -32.472  1.00  0.00     0.066 A 
HETATM    5  C   UNL     1     -14.809   2.246 -32.745  1.00  0.00     0.050 A 
HETATM    6  C   UNL     1     -16.220   2.275 -32.499  1.00  0.00     0.099 C 
HETATM    7  N   UNL     1     -17.362   2.302 -32.297  1.00  0.00    -0.191 NA
HETATM    8  C   UNL     1     -14.205   1.097 -33.257  1.00  0.00     0.066 A 
HETATM    9  C   UNL     1     -12.826   1.074 -33.489  1.00  0.00     0.136 A 
HETATM   10  F   UNL     1     -12.318  -0.067 -33.973  1.00  0.00    -0.205 F 
ENDROOT
BRANCH   1  11
HETATM   11  C   UNL     1     -10.545   2.117 -33.472  1.00  0.00     0.262 C 
HETATM   12  N   UNL     1      -9.777   1.512 -32.488  1.00  0.00    -0.323 N 
HETATM   13  H   UNL     1     -10.254   1.196 -31.650  1.00  0.00     0.169 HD
HETATM   14  O   UNL     1     -10.104   2.588 -34.513  1.00  0.00    -0.267 OA
BRANCH  12  15
HETATM   15  C   UNL     1      -8.384   1.275 -32.500  1.00  0.00     0.036 A 
HETATM   16  C   UNL     1      -7.437   2.139 -31.950  1.00  0.00     0.032 A 
HETATM   17  C   UNL     1      -6.062   1.861 -32.005  1.00  0.00     0.034 A 
HETATM   18  C   UNL     1      -5.674   0.677 -32.635  1.00  0.00     0.063 A 
HETATM   19  C   UNL     1      -6.581  -0.212 -33.193  1.00  0.00     0.030 A 
HETATM   20  N   UNL     1      -4.443   0.125 -32.855  1.00  0.00    -0.277 N 
HETATM   21  C   UNL     1      -7.957   0.090 -33.126  1.00  0.00     0.046 A 
HETATM   22  C   UNL     1      -5.785  -1.271 -33.721  1.00  0.00     0.156 A 
HETATM   23  N   UNL     1      -4.468  -1.050 -33.507  1.00  0.00    -0.168 NA
HETATM   24  H   UNL     1      -3.544   0.506 -32.582  1.00  0.00     0.189 HD
BRANCH  22  25
HETATM   25  C   UNL     1      -6.258  -2.473 -34.420  1.00  0.00     0.270 C 
HETATM   26  N   UNL     1      -5.381  -2.963 -35.348  1.00  0.00    -0.365 N 
HETATM   27  H   UNL     1      -4.499  -2.482 -35.482  1.00  0.00     0.159 HD
HETATM   28  H   UNL     1      -5.615  -3.788 -35.876  1.00  0.00     0.159 HD
HETATM   29  O   UNL     1      -7.339  -3.016 -34.213  1.00  0.00    -0.266 OA
ENDBRANCH  22  25
ENDBRANCH  12  15
ENDBRANCH   1  11
TORSDOF 3
ENDMDL
MODEL 7
REMARK VINA RESULT:      -7.9      4.965      7.040
REMARK  3 active torsions:
REMARK  status: ('A' for Active; 'I' for Inactive)
REMARK    1  A    between atoms: C_2  and  N_3 
REMARK       I    between atoms: N_3  and  C_4 
REMARK    2  A    between atoms: C_4  and  C_5 
REMARK    3  A    between atoms: C_22  and  C_23 
REMARK       I    between atoms: C_23  and  N_24 
ROOT
HETATM    1  C   UNL     1      -6.253  -0.218 -33.332  1.00  0.00     0.109 A 
HETATM    2  C   UNL     1      -5.180  -0.568 -32.506  1.00  0.00     0.136 A 
HETATM    3  F   UNL     1      -4.825   0.209 -31.472  1.00  0.00    -0.205 F 
HETATM    4  C   UNL     1      -4.433  -1.729 -32.719  1.00  0.00     0.066 A 
HETATM    5  C   UNL     1      -4.752  -2.577 -33.778  1.00  0.00     0.050 A 
HETATM    6  C   UNL     1      -3.988  -3.768 -34.008  1.00  0.00     0.099 C 
HETATM    7  N   UNL     1      -3.366  -4.730 -34.190  1.00  0.00    -0.191 NA
HETATM    8  C   UNL     1      -5.819  -2.251 -34.615  1.00  0.00     0.066 A 
HETATM    9  C   UNL     1      -6.557  -1.085 -34.389  1.00  0.00     0.136 A 
HETATM   10  F   UNL     1      -7.561  -0.835 -35.239  1.00  0.00    -0.205 F 
ENDROOT
BRANCH   1  11
HETATM   11  C   UNL     1      -7.058   1.026 -33.131  1.00  0.00     0.262 C 
HETATM   12  N   UNL     1      -8.312   0.865 -32.563  1.00  0.00    -0.323 N 
HETATM   13  H   UNL     1      -8.617  -0.081 -32.360  1.00  0.00     0.169 HD
HETATM   14  O   UNL     1      -6.577   2.100 -33.472  1.00  0.00    -0.267 OA
BRANCH  12  15
HETATM   15  C   UNL     1      -9.244   1.871 -32.221  1.00  0.00     0.036 A 
HETATM   16  C   UNL     1      -9.218   2.591 -31.025  1.00  0.00     0.032 A 
HETATM   17  C   UNL     1     -10.180   3.569 -30.731  1.00  0.00     0.034 A 
HETATM   18  C   UNL     1     -11.172   3.799 -31.686  1.00  0.00     0.063 A 
HETATM   19  C   UNL     1     -11.236   3.109 -32.887  1.00  0.00     0.030 A 
HETATM   20  N   UNL     1     -12.233   4.660 -31.705  1.00  0.00    -0.277 N 
HETATM   21  C   UNL     1     -10.258   2.130 -33.160  1.00  0.00     0.046 A 
HETATM   22  C   UNL     1     -12.376   3.639 -33.559  1.00  0.00     0.156 A 
HETATM   23  N   UNL     1     -12.983   4.594 -32.819  1.00  0.00    -0.168 NA
HETATM   24  H   UNL     1     -12.500   5.321 -30.984  1.00  0.00     0.189 HD
BRANCH  22  25
HETATM   25  C   UNL     1     -12.889   3.250 -34.880  1.00  0.00     0.270 C 
HETATM   26  N   UNL     1     -12.957   4.279 -35.779  1.00  0.00    -0.365 N 
HETATM   27  H   UNL     1     -12.660   5.201 -35.483  1.00  0.00     0.159 HD
HETATM   28  H   UNL     1     -13.293   4.109 -36.714  1.00  0.00     0.159 HD
HETATM   29  O   UNL     1     -13.232   2.112 -35.184  1.00  0.00    -0.266 OA
ENDBRANCH  22  25
ENDBRANCH  12  15
ENDBRANCH   1  11
TORSDOF 3
ENDMDL
MODEL 8
REMARK VINA RESULT:      -7.8     16.688     17.968
REMARK  3 active torsions:
REMARK  status: ('A' for Active; 'I' for Inactive)
REMARK    1  A    between atoms: C_2  and  N_3 
REMARK       I    between atoms: N_3  and  C_4 
REMARK    2  A    between atoms: C_4  and  C_5 
REMARK    3  A    between atoms: C_22  and  C_23 
REMARK       I    between atoms: C_23  and  N_24 
ROOT
HETATM    1  C   UNL     1      -5.626 -12.692 -38.936  1.00  0.00     0.109 A 
HETATM    2  C   UNL     1      -6.649 -12.863 -37.998  1.00  0.00     0.136 A 
HETATM    3  F   UNL     1      -6.368 -13.152 -36.718  1.00  0.00    -0.205 F 
HETATM    4  C   UNL     1      -7.997 -12.745 -38.345  1.00  0.00     0.066 A 
HETATM    5  C   UNL     1      -8.353 -12.448 -39.660  1.00  0.00     0.050 A 
HETATM    6  C   UNL     1      -9.733 -12.330 -40.027  1.00  0.00     0.099 C 
HETATM    7  N   UNL     1     -10.852 -12.237 -40.320  1.00  0.00    -0.191 NA
HETATM    8  C   UNL     1      -7.351 -12.270 -40.614  1.00  0.00     0.066 A 
HETATM    9  C   UNL     1      -6.007 -12.392 -40.250  1.00  0.00     0.136 A 
HETATM   10  F   UNL     1      -5.103 -12.216 -41.223  1.00  0.00    -0.205 F 
ENDROOT
BRANCH   1  11
HETATM   11  C   UNL     1      -4.178 -12.825 -38.590  1.00  0.00     0.262 C 
HETATM   12  N   UNL     1      -3.518 -13.932 -39.103  1.00  0.00    -0.323 N 
HETATM   13  H   UNL     1      -4.066 -14.596 -39.640  1.00  0.00     0.169 HD
HETATM   14  O   UNL     1      -3.661 -11.967 -37.885  1.00  0.00    -0.267 OA
BRANCH  12  15
HETATM   15  C   UNL     1      -2.151 -14.264 -38.971  1.00  0.00     0.036 A 
HETATM   16  C   UNL     1      -1.198 -14.074 -39.973  1.00  0.00     0.032 A 
HETATM   17  C   UNL     1       0.146 -14.439 -39.793  1.00  0.00     0.034 A 
HETATM   18  C   UNL     1       0.497 -15.001 -38.564  1.00  0.00     0.063 A 
HETATM   19  C   UNL     1      -0.417 -15.206 -37.540  1.00  0.00     0.030 A 
HETATM   20  N   UNL     1       1.692 -15.456 -38.081  1.00  0.00    -0.277 N 
HETATM   21  C   UNL     1      -1.761 -14.832 -37.745  1.00  0.00     0.046 A 
HETATM   22  C   UNL     1       0.339 -15.788 -36.480  1.00  0.00     0.156 A 
HETATM   23  N   UNL     1       1.638 -15.937 -36.827  1.00  0.00    -0.168 NA
HETATM   24  H   UNL     1       2.584 -15.464 -38.562  1.00  0.00     0.189 HD
BRANCH  22  25
HETATM   25  C   UNL     1      -0.155 -16.198 -35.159  1.00  0.00     0.270 C 
HETATM   26  N   UNL     1      -0.547 -15.159 -34.361  1.00  0.00    -0.365 N 
HETATM   27  H   UNL     1      -0.474 -14.216 -34.722  1.00  0.00     0.159 HD
HETATM   28  H   UNL     1      -0.905 -15.341 -33.436  1.00  0.00     0.159 HD
HETATM   29  O   UNL     1      -0.225 -17.361 -34.774  1.00  0.00    -0.266 OA
ENDBRANCH  22  25
ENDBRANCH  12  15
ENDBRANCH   1  11
TORSDOF 3
ENDMDL
MODEL 9
REMARK VINA RESULT:      -7.8      3.441      4.286
REMARK  3 active torsions:
REMARK  status: ('A' for Active; 'I' for Inactive)
REMARK    1  A    between atoms: C_2  and  N_3 
REMARK       I    between atoms: N_3  and  C_4 
REMARK    2  A    between atoms: C_4  and  C_5 
REMARK    3  A    between atoms: C_22  and  C_23 
REMARK       I    between atoms: C_23  and  N_24 
ROOT
HETATM    1  C   UNL     1      -5.805  -0.092 -33.085  1.00  0.00     0.109 A 
HETATM    2  C   UNL     1      -6.284  -0.963 -34.068  1.00  0.00     0.136 A 
HETATM    3  F   UNL     1      -7.369  -0.653 -34.794  1.00  0.00    -0.205 F 
HETATM    4  C   UNL     1      -5.664  -2.186 -34.336  1.00  0.00     0.066 A 
HETATM    5  C   UNL     1      -4.534  -2.566 -33.614  1.00  0.00     0.050 A 
HETATM    6  C   UNL     1      -3.894  -3.821 -33.878  1.00  0.00     0.099 C 
HETATM    7  N   UNL     1      -3.381  -4.839 -34.094  1.00  0.00    -0.191 NA
HETATM    8  C   UNL     1      -4.035  -1.713 -32.630  1.00  0.00     0.066 A 
HETATM    9  C   UNL     1      -4.667  -0.492 -32.374  1.00  0.00     0.136 A 
HETATM   10  F   UNL     1      -4.134   0.269 -31.409  1.00  0.00    -0.205 F 
ENDROOT
BRANCH   1  11
HETATM   11  C   UNL     1      -6.458   1.217 -32.773  1.00  0.00     0.262 C 
HETATM   12  N   UNL     1      -7.143   1.295 -31.570  1.00  0.00    -0.323 N 
HETATM   13  H   UNL     1      -7.192   0.454 -31.004  1.00  0.00     0.169 HD
HETATM   14  O   UNL     1      -6.356   2.132 -33.581  1.00  0.00    -0.267 OA
BRANCH  12  15
HETATM   15  C   UNL     1      -7.799   2.418 -31.018  1.00  0.00     0.036 A 
HETATM   16  C   UNL     1      -9.133   2.748 -31.266  1.00  0.00     0.032 A 
HETATM   17  C   UNL     1      -9.729   3.886 -30.703  1.00  0.00     0.034 A 
HETATM   18  C   UNL     1      -8.934   4.683 -29.877  1.00  0.00     0.063 A 
HETATM   19  C   UNL     1      -7.606   4.392 -29.601  1.00  0.00     0.030 A 
HETATM   20  N   UNL     1      -9.203   5.834 -29.191  1.00  0.00    -0.277 N 
HETATM   21  C   UNL     1      -7.029   3.243 -30.179  1.00  0.00     0.046 A 
HETATM   22  C   UNL     1      -7.171   5.436 -28.733  1.00  0.00     0.156 A 
HETATM   23  N   UNL     1      -8.165   6.319 -28.489  1.00  0.00    -0.168 NA
HETATM   24  H   UNL     1     -10.082   6.340 -29.164  1.00  0.00     0.189 HD
BRANCH  22  25
HETATM   25  C   UNL     1      -5.836   5.600 -28.142  1.00  0.00     0.270 C 
HETATM   26  N   UNL     1      -4.817   5.602 -29.054  1.00  0.00    -0.365 N 
HETATM   27  H   UNL     1      -5.045   5.497 -30.035  1.00  0.00     0.159 HD
HETATM   28  H   UNL     1      -3.864   5.712 -28.745  1.00  0.00     0.159 HD
HETATM   29  O   UNL     1      -5.619   5.727 -26.941  1.00  0.00    -0.266 OA
ENDBRANCH  22  25
ENDBRANCH  12  15
ENDBRANCH   1  11
TORSDOF 3
ENDMDL
MODEL 10
REMARK VINA RESULT:      -7.7      3.500      4.940
REMARK  3 active torsions:
REMARK  status: ('A' for Active; 'I' for Inactive)
REMARK    1  A    between atoms: C_2  and  N_3 
REMARK       I    between atoms: N_3  and  C_4 
REMARK    2  A    between atoms: C_4  and  C_5 
REMARK    3  A    between atoms: C_22  and  C_23 
REMARK       I    between atoms: C_23  and  N_24 
ROOT
HETATM    1  C   UNL     1      -6.048  -0.243 -33.466  1.00  0.00     0.109 A 
HETATM    2  C   UNL     1      -4.819  -0.885 -33.653  1.00  0.00     0.136 A 
HETATM    3  F   UNL     1      -3.666  -0.261 -33.366  1.00  0.00    -0.205 F 
HETATM    4  C   UNL     1      -4.735  -2.190 -34.144  1.00  0.00     0.066 A 
HETATM    5  C   UNL     1      -5.898  -2.890 -34.461  1.00  0.00     0.050 A 
HETATM    6  C   UNL     1      -5.821  -4.228 -34.970  1.00  0.00     0.099 C 
HETATM    7  N   UNL     1      -5.755  -5.310 -35.384  1.00  0.00    -0.191 NA
HETATM    8  C   UNL     1      -7.136  -2.273 -34.281  1.00  0.00     0.066 A 
HETATM    9  C   UNL     1      -7.203  -0.966 -33.789  1.00  0.00     0.136 A 
HETATM   10  F   UNL     1      -8.426  -0.438 -33.652  1.00  0.00    -0.205 F 
ENDROOT
BRANCH   1  11
HETATM   11  C   UNL     1      -6.162   1.157 -32.954  1.00  0.00     0.262 C 
HETATM   12  N   UNL     1      -6.577   1.302 -31.639  1.00  0.00    -0.323 N 
HETATM   13  H   UNL     1      -6.816   0.459 -31.128  1.00  0.00     0.169 HD
HETATM   14  O   UNL     1      -5.886   2.083 -33.707  1.00  0.00    -0.267 OA
BRANCH  12  15
HETATM   15  C   UNL     1      -6.717   2.499 -30.902  1.00  0.00     0.036 A 
HETATM   16  C   UNL     1      -5.706   3.061 -30.120  1.00  0.00     0.032 A 
HETATM   17  C   UNL     1      -5.905   4.246 -29.394  1.00  0.00     0.034 A 
HETATM   18  C   UNL     1      -7.162   4.847 -29.484  1.00  0.00     0.063 A 
HETATM   19  C   UNL     1      -8.194   4.325 -30.250  1.00  0.00     0.030 A 
HETATM   20  N   UNL     1      -7.670   5.980 -28.913  1.00  0.00    -0.277 N 
HETATM   21  C   UNL     1      -7.970   3.134 -30.970  1.00  0.00     0.046 A 
HETATM   22  C   UNL     1      -9.282   5.229 -30.070  1.00  0.00     0.156 A 
HETATM   23  N   UNL     1      -8.946   6.245 -29.242  1.00  0.00    -0.168 NA
HETATM   24  H   UNL     1      -7.193   6.617 -28.285  1.00  0.00     0.189 HD
BRANCH  22  25
HETATM   25  C   UNL     1     -10.621   5.137 -30.668  1.00  0.00     0.270 C 
HETATM   26  N   UNL     1     -10.969   6.218 -31.430  1.00  0.00    -0.365 N 
HETATM   27  H   UNL     1     -10.305   6.977 -31.527  1.00  0.00     0.159 HD
HETATM   28  H   UNL     1     -11.867   6.245 -31.885  1.00  0.00     0.159 HD
HETATM   29  O   UNL     1     -11.384   4.188 -30.518  1.00  0.00    -0.266 OA
ENDBRANCH  22  25
ENDBRANCH  12  15
ENDBRANCH   1  11
TORSDOF 3
ENDMDL
