MODEL 1
REMARK VINA RESULT:      -9.2      0.000      0.000
REMARK  7 active torsions:
REMARK  status: ('A' for Active; 'I' for Inactive)
REMARK    1  A    between atoms: C_11  and  N_12 
REMARK       I    between atoms: N_12  and  C_13 
REMARK    2  A    between atoms: C_13  and  C_14 
REMARK    3  A    between atoms: C_14  and  S_15 
REMARK    4  A    between atoms: S_15  and  C_16 
REMARK    5  A    between atoms: N_17  and  C_18 
REMARK    6  A    between atoms: C_18  and  C_19 
REMARK    7  A    between atoms: C_25  and  C_26 
ROOT
HETATM    1  N   UNL     1      -6.989   2.844 -34.076  1.00  0.00    -0.326 N 
HETATM    2  C   UNL     1      -8.302   2.651 -33.685  1.00  0.00     0.231 C 
HETATM    3  O   UNL     1      -8.908   3.361 -32.880  1.00  0.00    -0.272 OA
HETATM    4  H   UNL     1      -6.667   2.265 -34.844  1.00  0.00     0.169 HD
ENDROOT
BRANCH   2   5
HETATM    5  C   UNL     1      -9.007   1.426 -34.243  1.00  0.00     0.185 C 
BRANCH   5   6
HETATM    6  S   UNL     1      -9.180   0.031 -33.085  1.00  0.00    -0.081 SA
BRANCH   6   7
HETATM    7  C   UNL     1      -7.644   0.158 -32.280  1.00  0.00     0.192 A 
HETATM    8  N   UNL     1      -6.450  -0.345 -32.743  1.00  0.00    -0.307 N 
HETATM    9  C   UNL     1      -5.552  -0.126 -31.718  1.00  0.00     0.135 A 
HETATM   10  N   UNL     1      -6.154   0.568 -30.771  1.00  0.00    -0.134 NA
HETATM   11  N   UNL     1      -7.463   0.733 -31.117  1.00  0.00    -0.123 NA
BRANCH   8  12
HETATM   12  C   UNL     1      -6.171  -0.746 -34.110  1.00  0.00     0.171 C 
BRANCH  12  13
HETATM   13  C   UNL     1      -5.940  -2.222 -34.314  1.00  0.00    -0.040 A 
HETATM   14  C   UNL     1      -6.968  -3.112 -34.659  1.00  0.00     0.009 A 
HETATM   15  C   UNL     1      -6.695  -4.465 -34.877  1.00  0.00     0.001 A 
HETATM   16  C   UNL     1      -5.391  -4.944 -34.771  1.00  0.00     0.000 A 
HETATM   17  C   UNL     1      -4.355  -4.071 -34.451  1.00  0.00     0.001 A 
HETATM   18  C   UNL     1      -4.627  -2.719 -34.232  1.00  0.00     0.009 A 
ENDBRANCH  12  13
ENDBRANCH   8  12
BRANCH   9  19
HETATM   19  C   UNL     1      -4.102  -0.537 -31.487  1.00  0.00     0.057 A 
HETATM   20  C   UNL     1      -3.042  -0.069 -32.459  1.00  0.00     0.013 A 
HETATM   21  C   UNL     1      -3.000   0.386 -31.039  1.00  0.00     0.013 A 
ENDBRANCH   9  19
ENDBRANCH   6   7
ENDBRANCH   5   6
ENDBRANCH   2   5
BRANCH   1  22
HETATM   22  C   UNL     1      -6.093   3.819 -33.579  1.00  0.00     0.037 A 
HETATM   23  C   UNL     1      -6.359   5.193 -33.606  1.00  0.00     0.032 A 
HETATM   24  C   UNL     1      -5.447   6.115 -33.085  1.00  0.00     0.041 A 
HETATM   25  C   UNL     1      -4.262   5.670 -32.514  1.00  0.00     0.096 A 
HETATM   26  O   UNL     1      -3.401   6.630 -32.061  1.00  0.00    -0.335 OA
HETATM   27  C   UNL     1      -3.978   4.303 -32.488  1.00  0.00     0.070 A 
HETATM   28  C   UNL     1      -2.452   6.139 -31.117  1.00  0.00     0.217 C 
HETATM   29  C   UNL     1      -1.342   7.176 -31.004  1.00  0.00     0.050 C 
HETATM   30  C   UNL     1      -1.871   4.741 -31.388  1.00  0.00     0.251 C 
HETATM   31  N   UNL     1      -2.754   3.866 -31.973  1.00  0.00    -0.323 N 
HETATM   32  O   UNL     1      -0.757   4.368 -31.030  1.00  0.00    -0.270 OA
HETATM   33  H   UNL     1      -2.449   2.908 -32.076  1.00  0.00     0.169 HD
HETATM   34  C   UNL     1      -4.887   3.378 -33.015  1.00  0.00     0.062 A 
ENDBRANCH   1  22
TORSDOF 7
ENDMDL
MODEL 2
REMARK VINA RESULT:      -9.0      2.811      6.738
REMARK  7 active torsions:
REMARK  status: ('A' for Active; 'I' for Inactive)
REMARK    1  A    between atoms: C_11  and  N_12 
REMARK       I    between atoms: N_12  and  C_13 
REMARK    2  A    between atoms: C_13  and  C_14 
REMARK    3  A    between atoms: C_14  and  S_15 
REMARK    4  A    between atoms: S_15  and  C_16 
REMARK    5  A    between atoms: N_17  and  C_18 
REMARK    6  A    between atoms: C_18  and  C_19 
REMARK    7  A    between atoms: C_25  and  C_26 
ROOT
HETATM    1  N   UNL     1      -7.151   2.466 -34.156  1.00  0.00    -0.326 N 
HETATM    2  C   UNL     1      -7.974   3.078 -33.227  1.00  0.00     0.231 C 
HETATM    3  O   UNL     1      -8.613   2.485 -32.356  1.00  0.00    -0.272 OA
HETATM    4  H   UNL     1      -6.585   3.088 -34.723  1.00  0.00     0.169 HD
ENDROOT
BRANCH   2   5
HETATM    5  C   UNL     1      -8.146   4.582 -33.354  1.00  0.00     0.185 C 
BRANCH   5   6
HETATM    6  S   UNL     1      -7.043   5.585 -32.307  1.00  0.00    -0.081 SA
BRANCH   6   7
HETATM    7  C   UNL     1      -5.556   5.342 -33.174  1.00  0.00     0.192 A 
HETATM    8  N   UNL     1      -4.324   5.110 -32.606  1.00  0.00    -0.307 N 
HETATM    9  C   UNL     1      -3.438   5.119 -33.666  1.00  0.00     0.135 A 
HETATM   10  N   UNL     1      -4.124   5.227 -34.787  1.00  0.00    -0.134 NA
HETATM   11  N   UNL     1      -5.444   5.378 -34.479  1.00  0.00    -0.123 NA
BRANCH   8  12
HETATM   12  C   UNL     1      -4.086   4.676 -31.242  1.00  0.00     0.171 C 
BRANCH  12  13
HETATM   13  C   UNL     1      -4.274   3.201 -30.993  1.00  0.00    -0.040 A 
HETATM   14  C   UNL     1      -3.299   2.245 -31.316  1.00  0.00     0.009 A 
HETATM   15  C   UNL     1      -3.505   0.893 -31.028  1.00  0.00     0.001 A 
HETATM   16  C   UNL     1      -4.677   0.480 -30.399  1.00  0.00     0.000 A 
HETATM   17  C   UNL     1      -5.645   1.417 -30.052  1.00  0.00     0.001 A 
HETATM   18  C   UNL     1      -5.441   2.768 -30.339  1.00  0.00     0.009 A 
ENDBRANCH  12  13
ENDBRANCH   8  12
BRANCH   9  19
HETATM   19  C   UNL     1      -1.919   5.061 -33.763  1.00  0.00     0.057 A 
HETATM   20  C   UNL     1      -1.138   6.354 -33.848  1.00  0.00     0.013 A 
HETATM   21  C   UNL     1      -0.964   5.459 -32.669  1.00  0.00     0.013 A 
ENDBRANCH   9  19
ENDBRANCH   6   7
ENDBRANCH   5   6
ENDBRANCH   2   5
BRANCH   1  22
HETATM   22  C   UNL     1      -6.957   1.075 -34.328  1.00  0.00     0.037 A 
HETATM   23  C   UNL     1      -7.823   0.264 -35.070  1.00  0.00     0.032 A 
HETATM   24  C   UNL     1      -7.575  -1.103 -35.225  1.00  0.00     0.041 A 
HETATM   25  C   UNL     1      -6.445  -1.671 -34.652  1.00  0.00     0.096 A 
HETATM   26  O   UNL     1      -6.289  -3.020 -34.812  1.00  0.00    -0.335 OA
HETATM   27  C   UNL     1      -5.576  -0.877 -33.901  1.00  0.00     0.070 A 
HETATM   28  C   UNL     1      -4.950  -3.462 -34.608  1.00  0.00     0.217 C 
HETATM   29  C   UNL     1      -4.990  -4.974 -34.424  1.00  0.00     0.050 C 
HETATM   30  C   UNL     1      -4.169  -2.792 -33.465  1.00  0.00     0.251 C 
HETATM   31  N   UNL     1      -4.478  -1.468 -33.271  1.00  0.00    -0.323 N 
HETATM   32  O   UNL     1      -3.264  -3.328 -32.830  1.00  0.00    -0.270 OA
HETATM   33  H   UNL     1      -3.918  -0.960 -32.600  1.00  0.00     0.169 HD
HETATM   34  C   UNL     1      -5.826   0.491 -33.739  1.00  0.00     0.062 A 
ENDBRANCH   1  22
TORSDOF 7
ENDMDL
MODEL 3
REMARK VINA RESULT:      -8.8      2.873      8.188
REMARK  7 active torsions:
REMARK  status: ('A' for Active; 'I' for Inactive)
REMARK    1  A    between atoms: C_11  and  N_12 
REMARK       I    between atoms: N_12  and  C_13 
REMARK    2  A    between atoms: C_13  and  C_14 
REMARK    3  A    between atoms: C_14  and  S_15 
REMARK    4  A    between atoms: S_15  and  C_16 
REMARK    5  A    between atoms: N_17  and  C_18 
REMARK    6  A    between atoms: C_18  and  C_19 
REMARK    7  A    between atoms: C_25  and  C_26 
ROOT
HETATM    1  N   UNL     1      -6.986   2.149 -33.780  1.00  0.00    -0.326 N 
HETATM    2  C   UNL     1      -7.956   2.630 -32.919  1.00  0.00     0.231 C 
HETATM    3  O   UNL     1      -8.563   1.947 -32.092  1.00  0.00    -0.272 OA
HETATM    4  H   UNL     1      -6.478   2.849 -34.310  1.00  0.00     0.169 HD
ENDROOT
BRANCH   2   5
HETATM    5  C   UNL     1      -8.340   4.092 -33.072  1.00  0.00     0.185 C 
BRANCH   5   6
HETATM    6  S   UNL     1      -7.352   5.265 -32.091  1.00  0.00    -0.081 SA
BRANCH   6   7
HETATM    7  C   UNL     1      -5.916   5.294 -33.073  1.00  0.00     0.192 A 
HETATM    8  N   UNL     1      -4.656   5.641 -32.643  1.00  0.00    -0.307 N 
HETATM    9  C   UNL     1      -3.882   5.649 -33.786  1.00  0.00     0.135 A 
HETATM   10  N   UNL     1      -4.614   5.217 -34.794  1.00  0.00    -0.134 NA
HETATM   11  N   UNL     1      -5.887   5.008 -34.351  1.00  0.00    -0.123 NA
BRANCH   8  12
HETATM   12  C   UNL     1      -4.215   5.696 -31.261  1.00  0.00     0.171 C 
BRANCH  12  13
HETATM   13  C   UNL     1      -3.557   6.988 -30.847  1.00  0.00    -0.040 A 
HETATM   14  C   UNL     1      -2.261   7.042 -30.311  1.00  0.00     0.009 A 
HETATM   15  C   UNL     1      -1.679   8.269 -29.979  1.00  0.00     0.001 A 
HETATM   16  C   UNL     1      -2.375   9.457 -30.195  1.00  0.00     0.000 A 
HETATM   17  C   UNL     1      -3.652   9.423 -30.746  1.00  0.00     0.001 A 
HETATM   18  C   UNL     1      -4.235   8.198 -31.077  1.00  0.00     0.009 A 
ENDBRANCH  12  13
ENDBRANCH   8  12
BRANCH   9  19
HETATM   19  C   UNL     1      -2.445   6.065 -34.077  1.00  0.00     0.057 A 
HETATM   20  C   UNL     1      -1.312   5.299 -33.430  1.00  0.00     0.013 A 
HETATM   21  C   UNL     1      -1.468   5.282 -34.913  1.00  0.00     0.013 A 
ENDBRANCH   9  19
ENDBRANCH   6   7
ENDBRANCH   5   6
ENDBRANCH   2   5
BRANCH   1  22
HETATM   22  C   UNL     1      -6.575   0.802 -33.925  1.00  0.00     0.037 A 
HETATM   23  C   UNL     1      -7.132  -0.075 -34.862  1.00  0.00     0.032 A 
HETATM   24  C   UNL     1      -6.677  -1.392 -34.977  1.00  0.00     0.041 A 
HETATM   25  C   UNL     1      -5.645  -1.841 -34.164  1.00  0.00     0.096 A 
HETATM   26  O   UNL     1      -5.279  -3.151 -34.305  1.00  0.00    -0.335 OA
HETATM   27  C   UNL     1      -5.085  -0.980 -33.217  1.00  0.00     0.070 A 
HETATM   28  C   UNL     1      -3.977  -3.431 -33.800  1.00  0.00     0.217 C 
HETATM   29  C   UNL     1      -3.858  -4.944 -33.656  1.00  0.00     0.050 C 
HETATM   30  C   UNL     1      -3.576  -2.724 -32.495  1.00  0.00     0.251 C 
HETATM   31  N   UNL     1      -4.093  -1.459 -32.357  1.00  0.00    -0.323 N 
HETATM   32  O   UNL     1      -2.779  -3.172 -31.674  1.00  0.00    -0.270 OA
HETATM   33  H   UNL     1      -3.775  -0.917 -31.565  1.00  0.00     0.169 HD
HETATM   34  C   UNL     1      -5.544   0.337 -33.096  1.00  0.00     0.062 A 
ENDBRANCH   1  22
TORSDOF 7
ENDMDL
MODEL 4
REMARK VINA RESULT:      -8.8      2.964      8.396
REMARK  7 active torsions:
REMARK  status: ('A' for Active; 'I' for Inactive)
REMARK    1  A    between atoms: C_11  and  N_12 
REMARK       I    between atoms: N_12  and  C_13 
REMARK    2  A    between atoms: C_13  and  C_14 
REMARK    3  A    between atoms: C_14  and  S_15 
REMARK    4  A    between atoms: S_15  and  C_16 
REMARK    5  A    between atoms: N_17  and  C_18 
REMARK    6  A    between atoms: C_18  and  C_19 
REMARK    7  A    between atoms: C_25  and  C_26 
ROOT
HETATM    1  N   UNL     1      -6.328   2.575 -32.702  1.00  0.00    -0.326 N 
HETATM    2  C   UNL     1      -6.917   3.036 -31.538  1.00  0.00     0.231 C 
HETATM    3  O   UNL     1      -7.626   2.358 -30.792  1.00  0.00    -0.272 OA
HETATM    4  H   UNL     1      -5.664   3.204 -33.141  1.00  0.00     0.169 HD
ENDROOT
BRANCH   2   5
HETATM    5  C   UNL     1      -6.724   4.507 -31.212  1.00  0.00     0.185 C 
BRANCH   5   6
HETATM    6  S   UNL     1      -5.394   4.877 -30.025  1.00  0.00    -0.081 SA
BRANCH   6   7
HETATM    7  C   UNL     1      -4.025   4.513 -31.034  1.00  0.00     0.192 A 
HETATM    8  N   UNL     1      -3.188   5.437 -31.616  1.00  0.00    -0.307 N 
HETATM    9  C   UNL     1      -2.348   4.695 -32.423  1.00  0.00     0.135 A 
HETATM   10  N   UNL     1      -2.600   3.415 -32.229  1.00  0.00    -0.134 NA
HETATM   11  N   UNL     1      -3.655   3.302 -31.372  1.00  0.00    -0.123 NA
BRANCH   8  12
HETATM   12  C   UNL     1      -3.059   6.829 -31.228  1.00  0.00     0.171 C 
BRANCH  12  13
HETATM   13  C   UNL     1      -2.008   7.113 -30.184  1.00  0.00    -0.040 A 
HETATM   14  C   UNL     1      -2.305   7.229 -28.818  1.00  0.00     0.009 A 
HETATM   15  C   UNL     1      -1.289   7.453 -27.885  1.00  0.00     0.001 A 
HETATM   16  C   UNL     1       0.037   7.546 -28.301  1.00  0.00     0.000 A 
HETATM   17  C   UNL     1       0.353   7.411 -29.650  1.00  0.00     0.001 A 
HETATM   18  C   UNL     1      -0.662   7.188 -30.583  1.00  0.00     0.009 A 
ENDBRANCH  12  13
ENDBRANCH   8  12
BRANCH   9  19
HETATM   19  C   UNL     1      -1.279   5.063 -33.445  1.00  0.00     0.057 A 
HETATM   20  C   UNL     1      -1.657   5.140 -34.908  1.00  0.00     0.013 A 
HETATM   21  C   UNL     1      -1.208   6.369 -34.192  1.00  0.00     0.013 A 
ENDBRANCH   9  19
ENDBRANCH   6   7
ENDBRANCH   5   6
ENDBRANCH   2   5
BRANCH   1  22
HETATM   22  C   UNL     1      -6.490   1.295 -33.283  1.00  0.00     0.037 A 
HETATM   23  C   UNL     1      -7.611   0.929 -34.037  1.00  0.00     0.032 A 
HETATM   24  C   UNL     1      -7.714  -0.344 -34.605  1.00  0.00     0.041 A 
HETATM   25  C   UNL     1      -6.685  -1.262 -34.439  1.00  0.00     0.096 A 
HETATM   26  O   UNL     1      -6.872  -2.499 -34.989  1.00  0.00    -0.335 OA
HETATM   27  C   UNL     1      -5.564  -0.915 -33.682  1.00  0.00     0.070 A 
HETATM   28  C   UNL     1      -5.660  -3.224 -35.177  1.00  0.00     0.217 C 
HETATM   29  C   UNL     1      -6.031  -4.683 -35.410  1.00  0.00     0.050 C 
HETATM   30  C   UNL     1      -4.602  -3.097 -34.067  1.00  0.00     0.251 C 
HETATM   31  N   UNL     1      -4.563  -1.865 -33.462  1.00  0.00    -0.323 N 
HETATM   32  O   UNL     1      -3.774  -3.962 -33.791  1.00  0.00    -0.270 OA
HETATM   33  H   UNL     1      -3.818  -1.703 -32.799  1.00  0.00     0.169 HD
HETATM   34  C   UNL     1      -5.462   0.357 -33.106  1.00  0.00     0.062 A 
ENDBRANCH   1  22
TORSDOF 7
ENDMDL
MODEL 5
REMARK VINA RESULT:      -8.5      3.664      8.190
REMARK  7 active torsions:
REMARK  status: ('A' for Active; 'I' for Inactive)
REMARK    1  A    between atoms: C_11  and  N_12 
REMARK       I    between atoms: N_12  and  C_13 
REMARK    2  A    between atoms: C_13  and  C_14 
REMARK    3  A    between atoms: C_14  and  S_15 
REMARK    4  A    between atoms: S_15  and  C_16 
REMARK    5  A    between atoms: N_17  and  C_18 
REMARK    6  A    between atoms: C_18  and  C_19 
REMARK    7  A    between atoms: C_25  and  C_26 
ROOT
HETATM    1  N   UNL     1      -4.735   4.286 -30.334  1.00  0.00    -0.326 N 
HETATM    2  C   UNL     1      -5.684   4.754 -29.443  1.00  0.00     0.231 C 
HETATM    3  O   UNL     1      -6.762   4.204 -29.209  1.00  0.00    -0.272 OA
HETATM    4  H   UNL     1      -3.842   4.767 -30.322  1.00  0.00     0.169 HD
ENDROOT
BRANCH   2   5
HETATM    5  C   UNL     1      -5.390   6.084 -28.769  1.00  0.00     0.185 C 
BRANCH   5   6
HETATM    6  S   UNL     1      -4.423   7.265 -29.762  1.00  0.00    -0.081 SA
BRANCH   6   7
HETATM    7  C   UNL     1      -2.968   7.289 -28.809  1.00  0.00     0.192 A 
HETATM    8  N   UNL     1      -1.690   7.432 -29.298  1.00  0.00    -0.307 N 
HETATM    9  C   UNL     1      -0.869   7.255 -28.201  1.00  0.00     0.135 A 
HETATM   10  N   UNL     1      -1.623   7.138 -27.126  1.00  0.00    -0.134 NA
HETATM   11  N   UNL     1      -2.933   7.147 -27.507  1.00  0.00    -0.123 NA
BRANCH   8  12
HETATM   12  C   UNL     1      -1.334   7.937 -30.611  1.00  0.00     0.171 C 
BRANCH  12  13
HETATM   13  C   UNL     1      -1.456   6.943 -31.739  1.00  0.00    -0.040 A 
HETATM   14  C   UNL     1      -1.498   5.556 -31.528  1.00  0.00     0.009 A 
HETATM   15  C   UNL     1      -1.652   4.678 -32.604  1.00  0.00     0.001 A 
HETATM   16  C   UNL     1      -1.785   5.171 -33.900  1.00  0.00     0.000 A 
HETATM   17  C   UNL     1      -1.768   6.544 -34.124  1.00  0.00     0.001 A 
HETATM   18  C   UNL     1      -1.613   7.424 -33.051  1.00  0.00     0.009 A 
ENDBRANCH  12  13
ENDBRANCH   8  12
BRANCH   9  19
HETATM   19  C   UNL     1       0.641   7.148 -28.028  1.00  0.00     0.057 A 
HETATM   20  C   UNL     1       1.462   8.415 -27.939  1.00  0.00     0.013 A 
HETATM   21  C   UNL     1       1.395   7.491 -26.771  1.00  0.00     0.013 A 
ENDBRANCH   9  19
ENDBRANCH   6   7
ENDBRANCH   5   6
ENDBRANCH   2   5
BRANCH   1  22
HETATM   22  C   UNL     1      -4.854   3.159 -31.182  1.00  0.00     0.037 A 
HETATM   23  C   UNL     1      -5.633   3.152 -32.345  1.00  0.00     0.032 A 
HETATM   24  C   UNL     1      -5.702   2.018 -33.159  1.00  0.00     0.041 A 
HETATM   25  C   UNL     1      -4.977   0.882 -32.827  1.00  0.00     0.096 A 
HETATM   26  O   UNL     1      -5.125  -0.202 -33.648  1.00  0.00    -0.335 OA
HETATM   27  C   UNL     1      -4.203   0.870 -31.665  1.00  0.00     0.070 A 
HETATM   28  C   UNL     1      -4.064  -1.147 -33.533  1.00  0.00     0.217 C 
HETATM   29  C   UNL     1      -4.536  -2.445 -34.176  1.00  0.00     0.050 C 
HETATM   30  C   UNL     1      -3.519  -1.403 -32.118  1.00  0.00     0.251 C 
HETATM   31  N   UNL     1      -3.529  -0.299 -31.301  1.00  0.00    -0.323 N 
HETATM   32  O   UNL     1      -3.011  -2.458 -31.746  1.00  0.00    -0.270 OA
HETATM   33  H   UNL     1      -3.086  -0.393 -30.397  1.00  0.00     0.169 HD
HETATM   34  C   UNL     1      -4.137   2.003 -30.844  1.00  0.00     0.062 A 
ENDBRANCH   1  22
TORSDOF 7
ENDMDL
MODEL 6
REMARK VINA RESULT:      -8.4      2.651      5.054
REMARK  7 active torsions:
REMARK  status: ('A' for Active; 'I' for Inactive)
REMARK    1  A    between atoms: C_11  and  N_12 
REMARK       I    between atoms: N_12  and  C_13 
REMARK    2  A    between atoms: C_13  and  C_14 
REMARK    3  A    between atoms: C_14  and  S_15 
REMARK    4  A    between atoms: S_15  and  C_16 
REMARK    5  A    between atoms: N_17  and  C_18 
REMARK    6  A    between atoms: C_18  and  C_19 
REMARK    7  A    between atoms: C_25  and  C_26 
ROOT
HETATM    1  N   UNL     1      -2.441   4.803 -32.017  1.00  0.00    -0.326 N 
HETATM    2  C   UNL     1      -3.336   5.275 -32.960  1.00  0.00     0.231 C 
HETATM    3  O   UNL     1      -3.436   6.453 -33.307  1.00  0.00    -0.272 OA
HETATM    4  H   UNL     1      -2.378   3.795 -31.931  1.00  0.00     0.169 HD
ENDROOT
BRANCH   2   5
HETATM    5  C   UNL     1      -4.308   4.264 -33.544  1.00  0.00     0.185 C 
BRANCH   5   6
HETATM    6  S   UNL     1      -4.830   2.938 -32.409  1.00  0.00    -0.081 SA
BRANCH   6   7
HETATM    7  C   UNL     1      -6.470   2.748 -32.954  1.00  0.00     0.192 A 
HETATM    8  N   UNL     1      -7.167   1.563 -33.006  1.00  0.00    -0.307 N 
HETATM    9  C   UNL     1      -8.360   1.881 -33.626  1.00  0.00     0.135 A 
HETATM   10  N   UNL     1      -8.404   3.186 -33.812  1.00  0.00    -0.134 NA
HETATM   11  N   UNL     1      -7.219   3.725 -33.404  1.00  0.00    -0.123 NA
BRANCH   8  12
HETATM   12  C   UNL     1      -6.819   0.342 -32.304  1.00  0.00     0.171 C 
BRANCH  12  13
HETATM   13  C   UNL     1      -6.249  -0.757 -33.166  1.00  0.00    -0.040 A 
HETATM   14  C   UNL     1      -4.880  -1.061 -33.202  1.00  0.00     0.009 A 
HETATM   15  C   UNL     1      -4.406  -2.116 -33.987  1.00  0.00     0.001 A 
HETATM   16  C   UNL     1      -5.293  -2.891 -34.730  1.00  0.00     0.000 A 
HETATM   17  C   UNL     1      -6.656  -2.618 -34.689  1.00  0.00     0.001 A 
HETATM   18  C   UNL     1      -7.131  -1.564 -33.906  1.00  0.00     0.009 A 
ENDBRANCH  12  13
ENDBRANCH   8  12
BRANCH   9  19
HETATM   19  C   UNL     1      -9.537   1.051 -34.124  1.00  0.00     0.057 A 
HETATM   20  C   UNL     1     -10.380   0.294 -33.121  1.00  0.00     0.013 A 
HETATM   21  C   UNL     1     -10.988   1.395 -33.922  1.00  0.00     0.013 A 
ENDBRANCH   9  19
ENDBRANCH   6   7
ENDBRANCH   5   6
ENDBRANCH   2   5
BRANCH   1  22
HETATM   22  C   UNL     1      -1.549   5.576 -31.235  1.00  0.00     0.037 A 
HETATM   23  C   UNL     1      -0.243   5.882 -31.635  1.00  0.00     0.032 A 
HETATM   24  C   UNL     1       0.592   6.665 -30.833  1.00  0.00     0.041 A 
HETATM   25  C   UNL     1       0.122   7.167 -29.627  1.00  0.00     0.096 A 
HETATM   26  O   UNL     1       1.008   7.891 -28.878  1.00  0.00    -0.335 OA
HETATM   27  C   UNL     1      -1.175   6.863 -29.209  1.00  0.00     0.070 A 
HETATM   28  C   UNL     1       0.378   8.729 -27.912  1.00  0.00     0.217 C 
HETATM   29  C   UNL     1       1.446   9.157 -26.913  1.00  0.00     0.050 C 
HETATM   30  C   UNL     1      -0.847   8.145 -27.188  1.00  0.00     0.251 C 
HETATM   31  N   UNL     1      -1.618   7.314 -27.963  1.00  0.00    -0.323 N 
HETATM   32  O   UNL     1      -1.200   8.456 -26.053  1.00  0.00    -0.270 OA
HETATM   33  H   UNL     1      -2.488   6.989 -27.563  1.00  0.00     0.169 HD
HETATM   34  C   UNL     1      -2.011   6.073 -30.007  1.00  0.00     0.062 A 
ENDBRANCH   1  22
TORSDOF 7
ENDMDL
MODEL 7
REMARK VINA RESULT:      -8.4      3.568      8.658
REMARK  7 active torsions:
REMARK  status: ('A' for Active; 'I' for Inactive)
REMARK    1  A    between atoms: C_11  and  N_12 
REMARK       I    between atoms: N_12  and  C_13 
REMARK    2  A    between atoms: C_13  and  C_14 
REMARK    3  A    between atoms: C_14  and  S_15 
REMARK    4  A    between atoms: S_15  and  C_16 
REMARK    5  A    between atoms: N_17  and  C_18 
REMARK    6  A    between atoms: C_18  and  C_19 
REMARK    7  A    between atoms: C_25  and  C_26 
ROOT
HETATM    1  N   UNL     1      -6.290   3.703 -29.458  1.00  0.00    -0.326 N 
HETATM    2  C   UNL     1      -5.408   4.761 -29.589  1.00  0.00     0.231 C 
HETATM    3  O   UNL     1      -4.538   4.848 -30.457  1.00  0.00    -0.272 OA
HETATM    4  H   UNL     1      -7.036   3.830 -28.783  1.00  0.00     0.169 HD
ENDROOT
BRANCH   2   5
HETATM    5  C   UNL     1      -5.484   5.848 -28.529  1.00  0.00     0.185 C 
BRANCH   5   6
HETATM    6  S   UNL     1      -4.783   7.458 -29.012  1.00  0.00    -0.081 SA
BRANCH   6   7
HETATM    7  C   UNL     1      -3.237   7.324 -28.227  1.00  0.00     0.192 A 
HETATM    8  N   UNL     1      -2.013   7.525 -28.824  1.00  0.00    -0.307 N 
HETATM    9  C   UNL     1      -1.088   7.176 -27.860  1.00  0.00     0.135 A 
HETATM   10  N   UNL     1      -1.728   6.907 -26.739  1.00  0.00    -0.134 NA
HETATM   11  N   UNL     1      -3.070   6.987 -26.972  1.00  0.00    -0.123 NA
BRANCH   8  12
HETATM   12  C   UNL     1      -1.784   8.218 -30.078  1.00  0.00     0.171 C 
BRANCH  12  13
HETATM   13  C   UNL     1      -1.572   7.328 -31.277  1.00  0.00    -0.040 A 
HETATM   14  C   UNL     1      -1.291   5.957 -31.166  1.00  0.00     0.009 A 
HETATM   15  C   UNL     1      -1.143   5.167 -32.309  1.00  0.00     0.001 A 
HETATM   16  C   UNL     1      -1.290   5.729 -33.575  1.00  0.00     0.000 A 
HETATM   17  C   UNL     1      -1.590   7.081 -33.703  1.00  0.00     0.001 A 
HETATM   18  C   UNL     1      -1.738   7.873 -32.562  1.00  0.00     0.009 A 
ENDBRANCH  12  13
ENDBRANCH   8  12
BRANCH   9  19
HETATM   19  C   UNL     1       0.429   7.028 -27.867  1.00  0.00     0.057 A 
HETATM   20  C   UNL     1       1.287   8.266 -27.999  1.00  0.00     0.013 A 
HETATM   21  C   UNL     1       1.347   7.452 -26.751  1.00  0.00     0.013 A 
ENDBRANCH   9  19
ENDBRANCH   6   7
ENDBRANCH   5   6
ENDBRANCH   2   5
BRANCH   1  22
HETATM   22  C   UNL     1      -6.307   2.516 -30.228  1.00  0.00     0.037 A 
HETATM   23  C   UNL     1      -6.057   1.248 -29.690  1.00  0.00     0.032 A 
HETATM   24  C   UNL     1      -6.105   0.103 -30.491  1.00  0.00     0.041 A 
HETATM   25  C   UNL     1      -6.420   0.213 -31.839  1.00  0.00     0.096 A 
HETATM   26  O   UNL     1      -6.409  -0.944 -32.568  1.00  0.00    -0.335 OA
HETATM   27  C   UNL     1      -6.663   1.472 -32.392  1.00  0.00     0.070 A 
HETATM   28  C   UNL     1      -7.148  -0.853 -33.783  1.00  0.00     0.217 C 
HETATM   29  C   UNL     1      -6.735  -2.030 -34.658  1.00  0.00     0.050 C 
HETATM   30  C   UNL     1      -7.039   0.471 -34.558  1.00  0.00     0.251 C 
HETATM   31  N   UNL     1      -6.914   1.583 -33.762  1.00  0.00    -0.323 N 
HETATM   32  O   UNL     1      -7.159   0.578 -35.777  1.00  0.00    -0.270 OA
HETATM   33  H   UNL     1      -6.943   2.482 -34.223  1.00  0.00     0.169 HD
HETATM   34  C   UNL     1      -6.610   2.621 -31.593  1.00  0.00     0.062 A 
ENDBRANCH   1  22
TORSDOF 7
ENDMDL
MODEL 8
REMARK VINA RESULT:      -8.4      3.077      8.944
REMARK  7 active torsions:
REMARK  status: ('A' for Active; 'I' for Inactive)
REMARK    1  A    between atoms: C_11  and  N_12 
REMARK       I    between atoms: N_12  and  C_13 
REMARK    2  A    between atoms: C_13  and  C_14 
REMARK    3  A    between atoms: C_14  and  S_15 
REMARK    4  A    between atoms: S_15  and  C_16 
REMARK    5  A    between atoms: N_17  and  C_18 
REMARK    6  A    between atoms: C_18  and  C_19 
REMARK    7  A    between atoms: C_25  and  C_26 
ROOT
HETATM    1  N   UNL     1      -5.865   2.386 -31.942  1.00  0.00    -0.326 N 
HETATM    2  C   UNL     1      -6.017   2.687 -30.601  1.00  0.00     0.231 C 
HETATM    3  O   UNL     1      -6.388   1.889 -29.739  1.00  0.00    -0.272 OA
HETATM    4  H   UNL     1      -5.424   3.103 -32.509  1.00  0.00     0.169 HD
ENDROOT
BRANCH   2   5
HETATM    5  C   UNL     1      -5.777   4.131 -30.194  1.00  0.00     0.185 C 
BRANCH   5   6
HETATM    6  S   UNL     1      -5.326   5.260 -31.550  1.00  0.00    -0.081 SA
BRANCH   6   7
HETATM    7  C   UNL     1      -3.613   4.960 -31.590  1.00  0.00     0.192 A 
HETATM    8  N   UNL     1      -2.666   5.613 -30.834  1.00  0.00    -0.307 N 
HETATM    9  C   UNL     1      -1.455   5.142 -31.302  1.00  0.00     0.135 A 
HETATM   10  N   UNL     1      -1.685   4.190 -32.185  1.00  0.00    -0.134 NA
HETATM   11  N   UNL     1      -3.032   4.086 -32.374  1.00  0.00    -0.123 NA
BRANCH   8  12
HETATM   12  C   UNL     1      -2.924   6.392 -29.638  1.00  0.00     0.171 C 
BRANCH  12  13
HETATM   13  C   UNL     1      -2.689   7.875 -29.772  1.00  0.00    -0.040 A 
HETATM   14  C   UNL     1      -3.003   8.593 -30.936  1.00  0.00     0.009 A 
HETATM   15  C   UNL     1      -2.803   9.975 -30.996  1.00  0.00     0.001 A 
HETATM   16  C   UNL     1      -2.305  10.660 -29.890  1.00  0.00     0.000 A 
HETATM   17  C   UNL     1      -2.009   9.968 -28.720  1.00  0.00     0.001 A 
HETATM   18  C   UNL     1      -2.207   8.588 -28.659  1.00  0.00     0.009 A 
ENDBRANCH  12  13
ENDBRANCH   8  12
BRANCH   9  19
HETATM   19  C   UNL     1      -0.005   5.518 -31.022  1.00  0.00     0.057 A 
HETATM   20  C   UNL     1       0.438   6.949 -31.235  1.00  0.00     0.013 A 
HETATM   21  C   UNL     1       0.465   6.359 -29.865  1.00  0.00     0.013 A 
ENDBRANCH   9  19
ENDBRANCH   6   7
ENDBRANCH   5   6
ENDBRANCH   2   5
BRANCH   1  22
HETATM   22  C   UNL     1      -6.174   1.159 -32.575  1.00  0.00     0.037 A 
HETATM   23  C   UNL     1      -7.453   0.838 -33.047  1.00  0.00     0.032 A 
HETATM   24  C   UNL     1      -7.701  -0.382 -33.681  1.00  0.00     0.041 A 
HETATM   25  C   UNL     1      -6.668  -1.290 -33.867  1.00  0.00     0.096 A 
HETATM   26  O   UNL     1      -6.994  -2.478 -34.460  1.00  0.00    -0.335 OA
HETATM   27  C   UNL     1      -5.389  -0.988 -33.394  1.00  0.00     0.070 A 
HETATM   28  C   UNL     1      -5.872  -3.159 -35.016  1.00  0.00     0.217 C 
HETATM   29  C   UNL     1      -6.295  -4.599 -35.277  1.00  0.00     0.050 C 
HETATM   30  C   UNL     1      -4.565  -3.109 -34.207  1.00  0.00     0.251 C 
HETATM   31  N   UNL     1      -4.368  -1.935 -33.524  1.00  0.00    -0.323 N 
HETATM   32  O   UNL     1      -3.697  -3.979 -34.231  1.00  0.00    -0.270 OA
HETATM   33  H   UNL     1      -3.477  -1.816 -33.062  1.00  0.00     0.169 HD
HETATM   34  C   UNL     1      -5.138   0.230 -32.752  1.00  0.00     0.062 A 
ENDBRANCH   1  22
TORSDOF 7
ENDMDL
MODEL 9
REMARK VINA RESULT:      -8.3      3.309      7.934
REMARK  7 active torsions:
REMARK  status: ('A' for Active; 'I' for Inactive)
REMARK    1  A    between atoms: C_11  and  N_12 
REMARK       I    between atoms: N_12  and  C_13 
REMARK    2  A    between atoms: C_13  and  C_14 
REMARK    3  A    between atoms: C_14  and  S_15 
REMARK    4  A    between atoms: S_15  and  C_16 
REMARK    5  A    between atoms: N_17  and  C_18 
REMARK    6  A    between atoms: C_18  and  C_19 
REMARK    7  A    between atoms: C_25  and  C_26 
ROOT
HETATM    1  N   UNL     1      -5.027   4.412 -29.999  1.00  0.00    -0.326 N 
HETATM    2  C   UNL     1      -5.722   5.567 -30.308  1.00  0.00     0.231 C 
HETATM    3  O   UNL     1      -6.355   5.751 -31.349  1.00  0.00    -0.272 OA
HETATM    4  H   UNL     1      -4.667   4.351 -29.053  1.00  0.00     0.169 HD
ENDROOT
BRANCH   2   5
HETATM    5  C   UNL     1      -5.623   6.710 -29.310  1.00  0.00     0.185 C 
BRANCH   5   6
HETATM    6  S   UNL     1      -4.739   8.188 -29.901  1.00  0.00    -0.081 SA
BRANCH   6   7
HETATM    7  C   UNL     1      -3.114   7.701 -29.518  1.00  0.00     0.192 A 
HETATM    8  N   UNL     1      -2.088   7.542 -30.422  1.00  0.00    -0.307 N 
HETATM    9  C   UNL     1      -1.044   7.020 -29.684  1.00  0.00     0.135 A 
HETATM   10  N   UNL     1      -1.398   6.991 -28.414  1.00  0.00    -0.134 NA
HETATM   11  N   UNL     1      -2.695   7.404 -28.313  1.00  0.00    -0.123 NA
BRANCH   8  12
HETATM   12  C   UNL     1      -2.054   8.079 -31.769  1.00  0.00     0.171 C 
BRANCH  12  13
HETATM   13  C   UNL     1      -2.145   7.056 -32.873  1.00  0.00    -0.040 A 
HETATM   14  C   UNL     1      -1.061   6.737 -33.706  1.00  0.00     0.009 A 
HETATM   15  C   UNL     1      -1.185   5.752 -34.689  1.00  0.00     0.001 A 
HETATM   16  C   UNL     1      -2.384   5.060 -34.842  1.00  0.00     0.000 A 
HETATM   17  C   UNL     1      -3.462   5.347 -34.011  1.00  0.00     0.001 A 
HETATM   18  C   UNL     1      -3.340   6.332 -33.028  1.00  0.00     0.009 A 
ENDBRANCH  12  13
ENDBRANCH   8  12
BRANCH   9  19
HETATM   19  C   UNL     1       0.334   6.482 -30.052  1.00  0.00     0.057 A 
HETATM   20  C   UNL     1       0.772   5.145 -29.498  1.00  0.00     0.013 A 
HETATM   21  C   UNL     1       0.593   5.316 -30.968  1.00  0.00     0.013 A 
ENDBRANCH   9  19
ENDBRANCH   6   7
ENDBRANCH   5   6
ENDBRANCH   2   5
BRANCH   1  22
HETATM   22  C   UNL     1      -4.850   3.282 -30.834  1.00  0.00     0.037 A 
HETATM   23  C   UNL     1      -3.604   2.880 -31.329  1.00  0.00     0.032 A 
HETATM   24  C   UNL     1      -3.482   1.745 -32.135  1.00  0.00     0.041 A 
HETATM   25  C   UNL     1      -4.604   0.989 -32.442  1.00  0.00     0.096 A 
HETATM   26  O   UNL     1      -4.414  -0.085 -33.268  1.00  0.00    -0.335 OA
HETATM   27  C   UNL     1      -5.856   1.382 -31.964  1.00  0.00     0.070 A 
HETATM   28  C   UNL     1      -5.460  -1.049 -33.191  1.00  0.00     0.217 C 
HETATM   29  C   UNL     1      -5.334  -1.958 -34.407  1.00  0.00     0.050 C 
HETATM   30  C   UNL     1      -6.893  -0.504 -33.061  1.00  0.00     0.251 C 
HETATM   31  N   UNL     1      -6.991   0.655 -32.332  1.00  0.00    -0.323 N 
HETATM   32  O   UNL     1      -7.898  -1.082 -33.466  1.00  0.00    -0.270 OA
HETATM   33  H   UNL     1      -7.923   0.994 -32.133  1.00  0.00     0.169 HD
HETATM   34  C   UNL     1      -5.983   2.523 -31.161  1.00  0.00     0.062 A 
ENDBRANCH   1  22
TORSDOF 7
ENDMDL
MODEL 10
REMARK VINA RESULT:      -8.3      2.908      8.481
REMARK  7 active torsions:
REMARK  status: ('A' for Active; 'I' for Inactive)
REMARK    1  A    between atoms: C_11  and  N_12 
REMARK       I    between atoms: N_12  and  C_13 
REMARK    2  A    between atoms: C_13  and  C_14 
REMARK    3  A    between atoms: C_14  and  S_15 
REMARK    4  A    between atoms: S_15  and  C_16 
REMARK    5  A    between atoms: N_17  and  C_18 
REMARK    6  A    between atoms: C_18  and  C_19 
REMARK    7  A    between atoms: C_25  and  C_26 
ROOT
HETATM    1  N   UNL     1      -6.573   3.105 -33.319  1.00  0.00    -0.326 N 
HETATM    2  C   UNL     1      -5.999   4.211 -33.920  1.00  0.00     0.231 C 
HETATM    3  O   UNL     1      -5.249   4.170 -34.897  1.00  0.00    -0.272 OA
HETATM    4  H   UNL     1      -7.273   3.299 -32.611  1.00  0.00     0.169 HD
ENDROOT
BRANCH   2   5
HETATM    5  C   UNL     1      -6.266   5.557 -33.268  1.00  0.00     0.185 C 
BRANCH   5   6
HETATM    6  S   UNL     1      -5.946   5.634 -31.477  1.00  0.00    -0.081 SA
BRANCH   6   7
HETATM    7  C   UNL     1      -4.256   5.223 -31.488  1.00  0.00     0.192 A 
HETATM    8  N   UNL     1      -3.217   6.103 -31.680  1.00  0.00    -0.307 N 
HETATM    9  C   UNL     1      -2.088   5.310 -31.743  1.00  0.00     0.135 A 
HETATM   10  N   UNL     1      -2.433   4.064 -31.483  1.00  0.00    -0.134 NA
HETATM   11  N   UNL     1      -3.789   4.008 -31.336  1.00  0.00    -0.123 NA
BRANCH   8  12
HETATM   12  C   UNL     1      -3.292   7.547 -31.554  1.00  0.00     0.171 C 
BRANCH  12  13
HETATM   13  C   UNL     1      -2.847   8.101 -30.224  1.00  0.00    -0.040 A 
HETATM   14  C   UNL     1      -2.860   7.345 -29.042  1.00  0.00     0.009 A 
HETATM   15  C   UNL     1      -2.399   7.893 -27.842  1.00  0.00     0.001 A 
HETATM   16  C   UNL     1      -1.903   9.194 -27.809  1.00  0.00     0.000 A 
HETATM   17  C   UNL     1      -1.862   9.951 -28.976  1.00  0.00     0.001 A 
HETATM   18  C   UNL     1      -2.323   9.405 -30.176  1.00  0.00     0.009 A 
ENDBRANCH  12  13
ENDBRANCH   8  12
BRANCH   9  19
HETATM   19  C   UNL     1      -0.626   5.591 -32.066  1.00  0.00     0.057 A 
HETATM   20  C   UNL     1       0.121   6.625 -31.253  1.00  0.00     0.013 A 
HETATM   21  C   UNL     1       0.544   5.196 -31.203  1.00  0.00     0.013 A 
ENDBRANCH   9  19
ENDBRANCH   6   7
ENDBRANCH   5   6
ENDBRANCH   2   5
BRANCH   1  22
HETATM   22  C   UNL     1      -6.349   1.748 -33.654  1.00  0.00     0.037 A 
HETATM   23  C   UNL     1      -7.026   1.090 -34.687  1.00  0.00     0.032 A 
HETATM   24  C   UNL     1      -6.754  -0.248 -34.989  1.00  0.00     0.041 A 
HETATM   25  C   UNL     1      -5.788  -0.938 -34.270  1.00  0.00     0.096 A 
HETATM   26  O   UNL     1      -5.604  -2.253 -34.595  1.00  0.00    -0.335 OA
HETATM   27  C   UNL     1      -5.111  -0.298 -33.230  1.00  0.00     0.070 A 
HETATM   28  C   UNL     1      -4.349  -2.772 -34.166  1.00  0.00     0.217 C 
HETATM   29  C   UNL     1      -4.436  -4.292 -34.229  1.00  0.00     0.050 C 
HETATM   30  C   UNL     1      -3.848  -2.310 -32.787  1.00  0.00     0.251 C 
HETATM   31  N   UNL     1      -4.187  -1.018 -32.467  1.00  0.00    -0.323 N 
HETATM   32  O   UNL     1      -3.114  -2.969 -32.054  1.00  0.00    -0.270 OA
HETATM   33  H   UNL     1      -3.794  -0.637 -31.617  1.00  0.00     0.169 HD
HETATM   34  C   UNL     1      -5.385   1.040 -32.921  1.00  0.00     0.062 A 
ENDBRANCH   1  22
TORSDOF 7
ENDMDL
