MODEL 1
REMARK VINA RESULT:      -9.1      0.000      0.000
REMARK  10 active torsions:
REMARK  status: ('A' for Active; 'I' for Inactive)
REMARK    1  A    between atoms: N_15  and  C_16 
REMARK    2  A    between atoms: C_16  and  C_17 
REMARK    3  A    between atoms: C_17  and  N_18 
REMARK       I    between atoms: N_18  and  C_19 
REMARK    4  A    between atoms: C_19  and  C_20 
REMARK    5  A    between atoms: C_20  and  C_21 
REMARK    6  A    between atoms: C_21  and  C_22 
REMARK    7  A    between atoms: C_24  and  C_25 
REMARK    8  A    between atoms: C_29  and  O_30 
REMARK    9  A    between atoms: C_31  and  C_32 
REMARK   10  A    between atoms: C_38  and  O_39 
ROOT
HETATM    1  C   UNL     1      -3.353   4.730 -33.552  1.00  0.00     0.142 C 
ENDROOT
BRANCH   1   2
HETATM    2  C   UNL     1      -3.929   6.036 -32.985  1.00  0.00     0.151 C 
BRANCH   2   3
HETATM    3  N   UNL     1      -2.951   6.875 -32.268  1.00  0.00    -0.291 N 
HETATM    4  C   UNL     1      -2.045   7.651 -32.932  1.00  0.00     0.366 A 
HETATM    5  O   UNL     1      -1.387   8.447 -32.052  1.00  0.00    -0.287 OA
HETATM    6  O   UNL     1      -1.820   7.655 -34.128  1.00  0.00    -0.238 OA
HETATM    7  C   UNL     1      -1.858   8.258 -30.675  1.00  0.00     0.126 A 
HETATM    8  C   UNL     1      -0.588   7.784 -29.940  1.00  0.00     0.082 C 
HETATM    9  C   UNL     1      -2.993   7.187 -30.867  1.00  0.00     0.166 A 
HETATM   10  C   UNL     1      -2.230   9.687 -30.225  1.00  0.00     0.082 C 
HETATM   11  C   UNL     1      -0.597   7.936 -28.418  1.00  0.00     0.122 C 
HETATM   12  N   UNL     1      -0.939   9.370 -28.087  1.00  0.00    -0.059 N 
HETATM   13  C   UNL     1       0.833   7.704 -27.883  1.00  0.00     0.046 C 
HETATM   14  C   UNL     1      -1.522   6.978 -27.667  1.00  0.00     0.046 C 
HETATM   15  C   UNL     1      -2.127  10.048 -28.728  1.00  0.00     0.122 C 
HETATM   16  H   UNL     1      -0.106   9.932 -28.324  1.00  0.00     0.279 HD
HETATM   17  H   UNL     1      -1.010   9.467 -27.062  1.00  0.00     0.279 HD
HETATM   18  C   UNL     1      -1.854  11.567 -28.612  1.00  0.00     0.046 C 
HETATM   19  C   UNL     1      -3.386   9.775 -27.901  1.00  0.00     0.046 C 
HETATM   20  C   UNL     1      -4.389   7.597 -30.418  1.00  0.00     0.074 C 
BRANCH   9  21
HETATM   21  O   UNL     1      -2.627   5.983 -30.212  1.00  0.00    -0.368 OA
HETATM   22  H   UNL     1      -2.004   6.277 -29.520  1.00  0.00     0.212 HD
ENDBRANCH   9  21
ENDBRANCH   2   3
ENDBRANCH   1   2
BRANCH   1  23
HETATM   23  N   UNL     1      -3.758   3.540 -32.820  1.00  0.00    -0.359 N 
HETATM   24  C   UNL     1      -3.025   3.073 -31.753  1.00  0.00     0.217 C 
HETATM   25  O   UNL     1      -1.994   3.618 -31.375  1.00  0.00    -0.274 OA
HETATM   26  H   UNL     1      -4.493   2.955 -33.196  1.00  0.00     0.162 HD
BRANCH  24  27
HETATM   27  C   UNL     1      -3.604   1.853 -31.059  1.00  0.00     0.107 C 
BRANCH  27  28
HETATM   28  C   UNL     1      -3.427   0.538 -31.822  1.00  0.00     0.048 C 
BRANCH  28  29
HETATM   29  C   UNL     1      -4.631  -0.076 -32.510  1.00  0.00    -0.057 A 
HETATM   30  C   UNL     1      -5.882   0.545 -32.573  1.00  0.00     0.018 A 
HETATM   31  C   UNL     1      -7.009  -0.050 -33.181  1.00  0.00    -0.016 A 
HETATM   32  C   UNL     1      -6.796  -1.306 -33.789  1.00  0.00     0.079 A 
HETATM   33  C   UNL     1      -5.543  -1.971 -33.789  1.00  0.00    -0.016 A 
HETATM   34  C   UNL     1      -4.484  -1.330 -33.118  1.00  0.00     0.018 A 
BRANCH  31  35
HETATM   35  C   UNL     1      -8.327   0.771 -33.232  1.00  0.00    -0.021 C 
HETATM   36  C   UNL     1      -8.051   2.144 -32.586  1.00  0.00     0.019 C 
HETATM   37  C   UNL     1      -8.913   1.017 -34.640  1.00  0.00     0.019 C 
HETATM   38  C   UNL     1      -9.471   0.078 -32.439  1.00  0.00     0.019 C 
ENDBRANCH  31  35
BRANCH  32  39
HETATM   39  O   UNL     1      -7.817  -1.919 -34.457  1.00  0.00    -0.360 OA
HETATM   40  H   UNL     1      -7.464  -2.760 -34.789  1.00  0.00     0.217 HD
ENDBRANCH  32  39
BRANCH  33  41
HETATM   41  C   UNL     1      -5.320  -3.320 -34.523  1.00  0.00    -0.021 C 
HETATM   42  C   UNL     1      -6.510  -4.272 -34.265  1.00  0.00     0.019 C 
HETATM   43  C   UNL     1      -5.208  -3.179 -36.064  1.00  0.00     0.019 C 
HETATM   44  C   UNL     1      -4.003  -3.985 -34.063  1.00  0.00     0.019 C 
ENDBRANCH  33  41
ENDBRANCH  28  29
ENDBRANCH  27  28
ENDBRANCH  24  27
ENDBRANCH   1  23
TORSDOF 10
ENDMDL
MODEL 2
REMARK VINA RESULT:      -9.1      0.227      2.943
REMARK  10 active torsions:
REMARK  status: ('A' for Active; 'I' for Inactive)
REMARK    1  A    between atoms: N_15  and  C_16 
REMARK    2  A    between atoms: C_16  and  C_17 
REMARK    3  A    between atoms: C_17  and  N_18 
REMARK       I    between atoms: N_18  and  C_19 
REMARK    4  A    between atoms: C_19  and  C_20 
REMARK    5  A    between atoms: C_20  and  C_21 
REMARK    6  A    between atoms: C_21  and  C_22 
REMARK    7  A    between atoms: C_24  and  C_25 
REMARK    8  A    between atoms: C_29  and  O_30 
REMARK    9  A    between atoms: C_31  and  C_32 
REMARK   10  A    between atoms: C_38  and  O_39 
ROOT
HETATM    1  C   UNL     1      -3.314   4.568 -33.462  1.00  0.00     0.142 C 
ENDROOT
BRANCH   1   2
HETATM    2  C   UNL     1      -3.892   5.932 -33.058  1.00  0.00     0.151 C 
BRANCH   2   3
HETATM    3  N   UNL     1      -2.941   6.816 -32.356  1.00  0.00    -0.291 N 
HETATM    4  C   UNL     1      -2.071   7.620 -33.036  1.00  0.00     0.366 A 
HETATM    5  O   UNL     1      -1.438   8.449 -32.168  1.00  0.00    -0.287 OA
HETATM    6  O   UNL     1      -1.857   7.622 -34.233  1.00  0.00    -0.238 OA
HETATM    7  C   UNL     1      -1.889   8.254 -30.786  1.00  0.00     0.126 A 
HETATM    8  C   UNL     1      -0.595   7.835 -30.057  1.00  0.00     0.082 C 
HETATM    9  C   UNL     1      -2.983   7.137 -30.958  1.00  0.00     0.166 A 
HETATM   10  C   UNL     1      -2.313   9.671 -30.344  1.00  0.00     0.082 C 
HETATM   11  C   UNL     1      -0.597   8.001 -28.537  1.00  0.00     0.122 C 
HETATM   12  N   UNL     1      -0.992   9.423 -28.215  1.00  0.00    -0.059 N 
HETATM   13  C   UNL     1       0.845   7.829 -28.012  1.00  0.00     0.046 C 
HETATM   14  C   UNL     1      -1.478   7.014 -27.770  1.00  0.00     0.046 C 
HETATM   15  C   UNL     1      -2.211  10.049 -28.852  1.00  0.00     0.122 C 
HETATM   16  H   UNL     1      -0.184  10.015 -28.465  1.00  0.00     0.279 HD
HETATM   17  H   UNL     1      -1.058   9.527 -27.190  1.00  0.00     0.279 HD
HETATM   18  C   UNL     1      -1.996  11.579 -28.751  1.00  0.00     0.046 C 
HETATM   19  C   UNL     1      -3.452   9.734 -28.011  1.00  0.00     0.046 C 
HETATM   20  C   UNL     1      -4.390   7.497 -30.500  1.00  0.00     0.074 C 
BRANCH   9  21
HETATM   21  O   UNL     1      -2.565   5.955 -30.296  1.00  0.00    -0.368 OA
HETATM   22  H   UNL     1      -2.550   5.285 -31.007  1.00  0.00     0.212 HD
ENDBRANCH   9  21
ENDBRANCH   2   3
ENDBRANCH   1   2
BRANCH   1  23
HETATM   23  N   UNL     1      -3.844   3.452 -32.693  1.00  0.00    -0.359 N 
HETATM   24  C   UNL     1      -3.155   2.929 -31.623  1.00  0.00     0.217 C 
HETATM   25  O   UNL     1      -2.061   3.361 -31.271  1.00  0.00    -0.274 OA
HETATM   26  H   UNL     1      -4.647   2.947 -33.045  1.00  0.00     0.162 HD
BRANCH  24  27
HETATM   27  C   UNL     1      -3.861   1.803 -30.890  1.00  0.00     0.107 C 
BRANCH  27  28
HETATM   28  C   UNL     1      -3.634   0.411 -31.484  1.00  0.00     0.048 C 
BRANCH  28  29
HETATM   29  C   UNL     1      -4.726  -0.207 -32.335  1.00  0.00    -0.057 A 
HETATM   30  C   UNL     1      -4.564  -1.395 -33.053  1.00  0.00     0.018 A 
HETATM   31  C   UNL     1      -5.572  -1.943 -33.875  1.00  0.00    -0.016 A 
HETATM   32  C   UNL     1      -6.803  -1.253 -33.894  1.00  0.00     0.079 A 
HETATM   33  C   UNL     1      -7.041  -0.062 -33.161  1.00  0.00    -0.016 A 
HETATM   34  C   UNL     1      -5.966   0.444 -32.406  1.00  0.00     0.018 A 
BRANCH  31  35
HETATM   35  C   UNL     1      -5.282  -3.300 -34.576  1.00  0.00    -0.021 C 
HETATM   36  C   UNL     1      -4.898  -3.000 -36.040  1.00  0.00     0.019 C 
HETATM   37  C   UNL     1      -4.154  -4.152 -33.953  1.00  0.00     0.019 C 
HETATM   38  C   UNL     1      -6.529  -4.229 -34.576  1.00  0.00     0.019 C 
ENDBRANCH  31  35
BRANCH  32  39
HETATM   39  O   UNL     1      -7.852  -1.753 -34.612  1.00  0.00    -0.360 OA
HETATM   40  H   UNL     1      -7.769  -2.720 -34.584  1.00  0.00     0.217 HD
ENDBRANCH  32  39
BRANCH  33  41
HETATM   41  C   UNL     1      -8.424   0.641 -33.147  1.00  0.00    -0.021 C 
HETATM   42  C   UNL     1      -9.516  -0.335 -32.654  1.00  0.00     0.019 C 
HETATM   43  C   UNL     1      -8.487   1.870 -32.201  1.00  0.00     0.019 C 
HETATM   44  C   UNL     1      -8.786   1.172 -34.552  1.00  0.00     0.019 C 
ENDBRANCH  33  41
ENDBRANCH  28  29
ENDBRANCH  27  28
ENDBRANCH  24  27
ENDBRANCH   1  23
TORSDOF 10
ENDMDL
MODEL 3
REMARK VINA RESULT:      -8.7      2.492      9.603
REMARK  10 active torsions:
REMARK  status: ('A' for Active; 'I' for Inactive)
REMARK    1  A    between atoms: N_15  and  C_16 
REMARK    2  A    between atoms: C_16  and  C_17 
REMARK    3  A    between atoms: C_17  and  N_18 
REMARK       I    between atoms: N_18  and  C_19 
REMARK    4  A    between atoms: C_19  and  C_20 
REMARK    5  A    between atoms: C_20  and  C_21 
REMARK    6  A    between atoms: C_21  and  C_22 
REMARK    7  A    between atoms: C_24  and  C_25 
REMARK    8  A    between atoms: C_29  and  O_30 
REMARK    9  A    between atoms: C_31  and  C_32 
REMARK   10  A    between atoms: C_38  and  O_39 
ROOT
HETATM    1  C   UNL     1      -5.995   7.351 -31.348  1.00  0.00     0.142 C 
ENDROOT
BRANCH   1   2
HETATM    2  C   UNL     1      -5.081   6.118 -31.328  1.00  0.00     0.151 C 
BRANCH   2   3
HETATM    3  N   UNL     1      -5.543   5.000 -32.173  1.00  0.00    -0.291 N 
HETATM    4  C   UNL     1      -5.172   4.887 -33.482  1.00  0.00     0.366 A 
HETATM    5  O   UNL     1      -5.585   3.694 -33.976  1.00  0.00    -0.287 OA
HETATM    6  O   UNL     1      -4.570   5.710 -34.147  1.00  0.00    -0.238 OA
HETATM    7  C   UNL     1      -6.273   2.883 -32.965  1.00  0.00     0.126 A 
HETATM    8  C   UNL     1      -7.679   2.696 -33.571  1.00  0.00     0.082 C 
HETATM    9  C   UNL     1      -6.181   3.806 -31.695  1.00  0.00     0.166 A 
HETATM   10  C   UNL     1      -5.501   1.547 -32.990  1.00  0.00     0.082 C 
HETATM   11  C   UNL     1      -8.501   1.532 -33.014  1.00  0.00     0.122 C 
HETATM   12  N   UNL     1      -7.670   0.274 -33.115  1.00  0.00    -0.059 N 
HETATM   13  C   UNL     1      -9.728   1.306 -33.924  1.00  0.00     0.046 C 
HETATM   14  C   UNL     1      -9.021   1.717 -31.589  1.00  0.00     0.046 C 
HETATM   15  C   UNL     1      -6.245   0.249 -32.614  1.00  0.00     0.122 C 
HETATM   16  H   UNL     1      -7.643   0.021 -34.115  1.00  0.00     0.279 HD
HETATM   17  H   UNL     1      -8.191  -0.505 -32.684  1.00  0.00     0.279 HD
HETATM   18  C   UNL     1      -5.564  -0.932 -33.350  1.00  0.00     0.046 C 
HETATM   19  C   UNL     1      -6.227  -0.108 -31.125  1.00  0.00     0.046 C 
HETATM   20  C   UNL     1      -5.458   3.222 -30.488  1.00  0.00     0.074 C 
BRANCH   9  21
HETATM   21  O   UNL     1      -7.482   4.215 -31.306  1.00  0.00    -0.368 OA
HETATM   22  H   UNL     1      -7.326   5.044 -30.815  1.00  0.00     0.212 HD
ENDBRANCH   9  21
ENDBRANCH   2   3
ENDBRANCH   1   2
BRANCH   1  23
HETATM   23  N   UNL     1      -5.282   8.617 -31.257  1.00  0.00    -0.359 N 
HETATM   24  C   UNL     1      -5.061   9.226 -30.043  1.00  0.00     0.217 C 
HETATM   25  O   UNL     1      -5.461   8.751 -28.986  1.00  0.00    -0.274 OA
HETATM   26  H   UNL     1      -5.089   9.136 -32.103  1.00  0.00     0.162 HD
BRANCH  24  27
HETATM   27  C   UNL     1      -4.257  10.512 -30.106  1.00  0.00     0.107 C 
BRANCH  27  28
HETATM   28  C   UNL     1      -2.770  10.323 -30.417  1.00  0.00     0.048 C 
BRANCH  28  29
HETATM   29  C   UNL     1      -2.077   9.064 -29.933  1.00  0.00    -0.057 A 
HETATM   30  C   UNL     1      -1.745   8.833 -28.595  1.00  0.00     0.018 A 
HETATM   31  C   UNL     1      -1.064   7.676 -28.158  1.00  0.00    -0.016 A 
HETATM   32  C   UNL     1      -0.779   6.711 -29.147  1.00  0.00     0.079 A 
HETATM   33  C   UNL     1      -1.120   6.872 -30.515  1.00  0.00    -0.016 A 
HETATM   34  C   UNL     1      -1.753   8.077 -30.874  1.00  0.00     0.018 A 
BRANCH  31  35
HETATM   35  C   UNL     1      -0.804   7.517 -26.634  1.00  0.00    -0.021 C 
HETATM   36  C   UNL     1      -1.240   8.825 -25.943  1.00  0.00     0.019 C 
HETATM   37  C   UNL     1      -1.541   6.347 -25.945  1.00  0.00     0.019 C 
HETATM   38  C   UNL     1       0.701   7.277 -26.326  1.00  0.00     0.019 C 
ENDBRANCH  31  35
BRANCH  32  39
HETATM   39  O   UNL     1      -0.182   5.535 -28.797  1.00  0.00    -0.360 OA
HETATM   40  H   UNL     1       0.769   5.718 -28.726  1.00  0.00     0.217 HD
ENDBRANCH  32  39
BRANCH  33  41
HETATM   41  C   UNL     1      -0.854   5.767 -31.572  1.00  0.00    -0.021 C 
HETATM   42  C   UNL     1       0.571   5.194 -31.400  1.00  0.00     0.019 C 
HETATM   43  C   UNL     1      -1.819   4.557 -31.462  1.00  0.00     0.019 C 
HETATM   44  C   UNL     1      -1.031   6.320 -33.003  1.00  0.00     0.019 C 
ENDBRANCH  33  41
ENDBRANCH  28  29
ENDBRANCH  27  28
ENDBRANCH  24  27
ENDBRANCH   1  23
TORSDOF 10
ENDMDL
MODEL 4
REMARK VINA RESULT:      -8.7      2.505      9.810
REMARK  10 active torsions:
REMARK  status: ('A' for Active; 'I' for Inactive)
REMARK    1  A    between atoms: N_15  and  C_16 
REMARK    2  A    between atoms: C_16  and  C_17 
REMARK    3  A    between atoms: C_17  and  N_18 
REMARK       I    between atoms: N_18  and  C_19 
REMARK    4  A    between atoms: C_19  and  C_20 
REMARK    5  A    between atoms: C_20  and  C_21 
REMARK    6  A    between atoms: C_21  and  C_22 
REMARK    7  A    between atoms: C_24  and  C_25 
REMARK    8  A    between atoms: C_29  and  O_30 
REMARK    9  A    between atoms: C_31  and  C_32 
REMARK   10  A    between atoms: C_38  and  O_39 
ROOT
HETATM    1  C   UNL     1      -5.995   7.398 -31.332  1.00  0.00     0.142 C 
ENDROOT
BRANCH   1   2
HETATM    2  C   UNL     1      -5.064   6.177 -31.315  1.00  0.00     0.151 C 
BRANCH   2   3
HETATM    3  N   UNL     1      -5.508   5.058 -32.168  1.00  0.00    -0.291 N 
HETATM    4  C   UNL     1      -5.115   4.948 -33.471  1.00  0.00     0.366 A 
HETATM    5  O   UNL     1      -5.515   3.753 -33.973  1.00  0.00    -0.287 OA
HETATM    6  O   UNL     1      -4.507   5.774 -34.126  1.00  0.00    -0.238 OA
HETATM    7  C   UNL     1      -6.216   2.939 -32.973  1.00  0.00     0.126 A 
HETATM    8  C   UNL     1      -7.611   2.746 -33.602  1.00  0.00     0.082 C 
HETATM    9  C   UNL     1      -6.148   3.861 -31.701  1.00  0.00     0.166 A 
HETATM   10  C   UNL     1      -5.438   1.606 -32.987  1.00  0.00     0.082 C 
HETATM   11  C   UNL     1      -8.436   1.578 -33.059  1.00  0.00     0.122 C 
HETATM   12  N   UNL     1      -7.599   0.324 -33.148  1.00  0.00    -0.059 N 
HETATM   13  C   UNL     1      -9.648   1.347 -33.988  1.00  0.00     0.046 C 
HETATM   14  C   UNL     1      -8.980   1.759 -31.642  1.00  0.00     0.046 C 
HETATM   15  C   UNL     1      -6.181   0.304 -32.624  1.00  0.00     0.122 C 
HETATM   16  H   UNL     1      -7.554   0.071 -34.148  1.00  0.00     0.279 HD
HETATM   17  H   UNL     1      -8.123  -0.458 -32.725  1.00  0.00     0.279 HD
HETATM   18  C   UNL     1      -5.484  -0.873 -33.350  1.00  0.00     0.046 C 
HETATM   19  C   UNL     1      -6.186  -0.054 -31.135  1.00  0.00     0.046 C 
HETATM   20  C   UNL     1      -5.442   3.278 -30.483  1.00  0.00     0.074 C 
BRANCH   9  21
HETATM   21  O   UNL     1      -7.457   4.263 -31.333  1.00  0.00    -0.368 OA
HETATM   22  H   UNL     1      -7.964   3.429 -31.335  1.00  0.00     0.212 HD
ENDBRANCH   9  21
ENDBRANCH   2   3
ENDBRANCH   1   2
BRANCH   1  23
HETATM   23  N   UNL     1      -5.299   8.673 -31.241  1.00  0.00    -0.359 N 
HETATM   24  C   UNL     1      -5.079   9.282 -30.028  1.00  0.00     0.217 C 
HETATM   25  O   UNL     1      -5.466   8.799 -28.969  1.00  0.00    -0.274 OA
HETATM   26  H   UNL     1      -5.117   9.197 -32.087  1.00  0.00     0.162 HD
BRANCH  24  27
HETATM   27  C   UNL     1      -4.292  10.579 -30.092  1.00  0.00     0.107 C 
BRANCH  27  28
HETATM   28  C   UNL     1      -2.792  10.406 -30.339  1.00  0.00     0.048 C 
BRANCH  28  29
HETATM   29  C   UNL     1      -2.125   9.112 -29.914  1.00  0.00    -0.057 A 
HETATM   30  C   UNL     1      -1.770   8.098 -30.809  1.00  0.00     0.018 A 
HETATM   31  C   UNL     1      -1.186   6.879 -30.401  1.00  0.00    -0.016 A 
HETATM   32  C   UNL     1      -0.916   6.750 -29.021  1.00  0.00     0.079 A 
HETATM   33  C   UNL     1      -1.221   7.757 -28.069  1.00  0.00    -0.016 A 
HETATM   34  C   UNL     1      -1.848   8.921 -28.554  1.00  0.00     0.018 A 
BRANCH  31  35
HETATM   35  C   UNL     1      -0.788   5.858 -31.502  1.00  0.00    -0.021 C 
HETATM   36  C   UNL     1      -0.907   6.568 -32.866  1.00  0.00     0.019 C 
HETATM   37  C   UNL     1       0.638   5.273 -31.393  1.00  0.00     0.019 C 
HETATM   38  C   UNL     1      -1.728   4.620 -31.510  1.00  0.00     0.019 C 
ENDBRANCH  31  35
BRANCH  32  39
HETATM   39  O   UNL     1      -0.292   5.630 -28.553  1.00  0.00    -0.360 OA
HETATM   40  H   UNL     1      -0.934   4.906 -28.624  1.00  0.00     0.217 HD
ENDBRANCH  32  39
BRANCH  33  41
HETATM   41  C   UNL     1      -0.854   7.617 -26.568  1.00  0.00    -0.021 C 
HETATM   42  C   UNL     1      -1.688   6.491 -25.915  1.00  0.00     0.019 C 
HETATM   43  C   UNL     1       0.633   7.247 -26.323  1.00  0.00     0.019 C 
HETATM   44  C   UNL     1      -1.086   8.948 -25.818  1.00  0.00     0.019 C 
ENDBRANCH  33  41
ENDBRANCH  28  29
ENDBRANCH  27  28
ENDBRANCH  24  27
ENDBRANCH   1  23
TORSDOF 10
ENDMDL
MODEL 5
REMARK VINA RESULT:      -8.7      2.519      5.130
REMARK  10 active torsions:
REMARK  status: ('A' for Active; 'I' for Inactive)
REMARK    1  A    between atoms: N_15  and  C_16 
REMARK    2  A    between atoms: C_16  and  C_17 
REMARK    3  A    between atoms: C_17  and  N_18 
REMARK       I    between atoms: N_18  and  C_19 
REMARK    4  A    between atoms: C_19  and  C_20 
REMARK    5  A    between atoms: C_20  and  C_21 
REMARK    6  A    between atoms: C_21  and  C_22 
REMARK    7  A    between atoms: C_24  and  C_25 
REMARK    8  A    between atoms: C_29  and  O_30 
REMARK    9  A    between atoms: C_31  and  C_32 
REMARK   10  A    between atoms: C_38  and  O_39 
ROOT
HETATM    1  C   UNL     1      -0.405   6.524 -32.239  1.00  0.00     0.142 C 
ENDROOT
BRANCH   1   2
HETATM    2  C   UNL     1      -0.809   6.901 -30.806  1.00  0.00     0.151 C 
BRANCH   2   3
HETATM    3  N   UNL     1      -2.177   7.439 -30.678  1.00  0.00    -0.291 N 
HETATM    4  C   UNL     1      -2.572   8.566 -31.340  1.00  0.00     0.366 A 
HETATM    5  O   UNL     1      -3.908   8.744 -31.191  1.00  0.00    -0.287 OA
HETATM    6  O   UNL     1      -1.866   9.330 -31.971  1.00  0.00    -0.238 OA
HETATM    7  C   UNL     1      -4.524   7.673 -30.398  1.00  0.00     0.126 A 
HETATM    8  C   UNL     1      -5.115   8.434 -29.193  1.00  0.00     0.082 C 
HETATM    9  C   UNL     1      -3.292   6.744 -30.098  1.00  0.00     0.166 A 
HETATM   10  C   UNL     1      -5.659   7.159 -31.310  1.00  0.00     0.082 C 
HETATM   11  C   UNL     1      -6.213   7.707 -28.414  1.00  0.00     0.122 C 
HETATM   12  N   UNL     1      -7.283   7.277 -29.390  1.00  0.00    -0.059 N 
HETATM   13  C   UNL     1      -6.890   8.708 -27.453  1.00  0.00     0.046 C 
HETATM   14  C   UNL     1      -5.745   6.519 -27.574  1.00  0.00     0.046 C 
HETATM   15  C   UNL     1      -6.918   6.548 -30.662  1.00  0.00     0.122 C 
HETATM   16  H   UNL     1      -7.788   8.133 -29.668  1.00  0.00     0.279 HD
HETATM   17  H   UNL     1      -7.996   6.731 -28.883  1.00  0.00     0.279 HD
HETATM   18  C   UNL     1      -8.113   6.763 -31.624  1.00  0.00     0.046 C 
HETATM   19  C   UNL     1      -6.851   5.042 -30.393  1.00  0.00     0.046 C 
HETATM   20  C   UNL     1      -3.391   5.310 -30.601  1.00  0.00     0.074 C 
BRANCH   9  21
HETATM   21  O   UNL     1      -3.032   6.732 -28.704  1.00  0.00    -0.368 OA
HETATM   22  H   UNL     1      -2.369   6.023 -28.598  1.00  0.00     0.212 HD
ENDBRANCH   9  21
ENDBRANCH   2   3
ENDBRANCH   1   2
BRANCH   1  23
HETATM   23  N   UNL     1      -1.340   5.625 -32.899  1.00  0.00    -0.359 N 
HETATM   24  C   UNL     1      -2.088   6.037 -33.978  1.00  0.00     0.217 C 
HETATM   25  O   UNL     1      -2.020   7.176 -34.428  1.00  0.00    -0.274 OA
HETATM   26  H   UNL     1      -1.565   4.740 -32.463  1.00  0.00     0.162 HD
BRANCH  24  27
HETATM   27  C   UNL     1      -2.977   4.970 -34.590  1.00  0.00     0.107 C 
BRANCH  27  28
HETATM   28  C   UNL     1      -4.478   5.206 -34.408  1.00  0.00     0.048 C 
BRANCH  28  29
HETATM   29  C   UNL     1      -5.320   4.109 -33.785  1.00  0.00    -0.057 A 
HETATM   30  C   UNL     1      -4.783   3.048 -33.050  1.00  0.00     0.018 A 
HETATM   31  C   UNL     1      -5.569   2.009 -32.508  1.00  0.00    -0.016 A 
HETATM   32  C   UNL     1      -6.964   2.123 -32.693  1.00  0.00     0.079 A 
HETATM   33  C   UNL     1      -7.572   3.192 -33.399  1.00  0.00    -0.016 A 
HETATM   34  C   UNL     1      -6.711   4.160 -33.952  1.00  0.00     0.018 A 
BRANCH  31  35
HETATM   35  C   UNL     1      -4.852   0.918 -31.664  1.00  0.00    -0.021 C 
HETATM   36  C   UNL     1      -3.366   1.315 -31.548  1.00  0.00     0.019 C 
HETATM   37  C   UNL     1      -5.400   0.705 -30.235  1.00  0.00     0.019 C 
HETATM   38  C   UNL     1      -4.936  -0.481 -32.337  1.00  0.00     0.019 C 
ENDBRANCH  31  35
BRANCH  32  39
HETATM   39  O   UNL     1      -7.800   1.195 -32.143  1.00  0.00    -0.360 OA
HETATM   40  H   UNL     1      -8.172   1.600 -31.342  1.00  0.00     0.217 HD
ENDBRANCH  32  39
BRANCH  33  41
HETATM   41  C   UNL     1      -9.112   3.329 -33.532  1.00  0.00    -0.021 C 
HETATM   42  C   UNL     1      -9.467   4.560 -34.397  1.00  0.00     0.019 C 
HETATM   43  C   UNL     1      -9.787   2.112 -34.220  1.00  0.00     0.019 C 
HETATM   44  C   UNL     1      -9.777   3.450 -32.143  1.00  0.00     0.019 C 
ENDBRANCH  33  41
ENDBRANCH  28  29
ENDBRANCH  27  28
ENDBRANCH  24  27
ENDBRANCH   1  23
TORSDOF 10
ENDMDL
MODEL 6
REMARK VINA RESULT:      -8.6      2.477      4.305
REMARK  10 active torsions:
REMARK  status: ('A' for Active; 'I' for Inactive)
REMARK    1  A    between atoms: N_15  and  C_16 
REMARK    2  A    between atoms: C_16  and  C_17 
REMARK    3  A    between atoms: C_17  and  N_18 
REMARK       I    between atoms: N_18  and  C_19 
REMARK    4  A    between atoms: C_19  and  C_20 
REMARK    5  A    between atoms: C_20  and  C_21 
REMARK    6  A    between atoms: C_21  and  C_22 
REMARK    7  A    between atoms: C_24  and  C_25 
REMARK    8  A    between atoms: C_29  and  O_30 
REMARK    9  A    between atoms: C_31  and  C_32 
REMARK   10  A    between atoms: C_38  and  O_39 
ROOT
HETATM    1  C   UNL     1      -1.009   5.638 -32.601  1.00  0.00     0.142 C 
ENDROOT
BRANCH   1   2
HETATM    2  C   UNL     1      -1.164   6.252 -31.201  1.00  0.00     0.151 C 
BRANCH   2   3
HETATM    3  N   UNL     1      -2.437   6.964 -30.983  1.00  0.00    -0.291 N 
HETATM    4  C   UNL     1      -2.736   8.122 -31.643  1.00  0.00     0.366 A 
HETATM    5  O   UNL     1      -4.023   8.473 -31.396  1.00  0.00    -0.287 OA
HETATM    6  O   UNL     1      -1.991   8.778 -32.346  1.00  0.00    -0.238 OA
HETATM    7  C   UNL     1      -4.705   7.505 -30.530  1.00  0.00     0.126 A 
HETATM    8  C   UNL     1      -5.097   8.355 -29.304  1.00  0.00     0.082 C 
HETATM    9  C   UNL     1      -3.581   6.429 -30.301  1.00  0.00     0.166 A 
HETATM   10  C   UNL     1      -5.965   7.127 -31.339  1.00  0.00     0.082 C 
HETATM   11  C   UNL     1      -6.213   7.790 -28.424  1.00  0.00     0.122 C 
HETATM   12  N   UNL     1      -7.403   7.485 -29.303  1.00  0.00    -0.059 N 
HETATM   13  C   UNL     1      -6.678   8.886 -27.441  1.00  0.00     0.046 C 
HETATM   14  C   UNL     1      -5.835   6.565 -27.591  1.00  0.00     0.046 C 
HETATM   15  C   UNL     1      -7.236   6.694 -30.580  1.00  0.00     0.122 C 
HETATM   16  H   UNL     1      -7.815   8.395 -29.564  1.00  0.00     0.279 HD
HETATM   17  H   UNL     1      -8.138   7.044 -28.729  1.00  0.00     0.279 HD
HETATM   18  C   UNL     1      -8.466   7.045 -31.453  1.00  0.00     0.046 C 
HETATM   19  C   UNL     1      -7.341   5.197 -30.277  1.00  0.00     0.046 C 
HETATM   20  C   UNL     1      -3.902   5.012 -30.756  1.00  0.00     0.074 C 
BRANCH   9  21
HETATM   21  O   UNL     1      -3.215   6.408 -28.931  1.00  0.00    -0.368 OA
HETATM   22  H   UNL     1      -3.164   5.455 -28.721  1.00  0.00     0.212 HD
ENDBRANCH   9  21
ENDBRANCH   2   3
ENDBRANCH   1   2
BRANCH   1  23
HETATM   23  N   UNL     1      -2.273   5.391 -33.279  1.00  0.00    -0.359 N 
HETATM   24  C   UNL     1      -2.325   5.180 -34.637  1.00  0.00     0.217 C 
HETATM   25  O   UNL     1      -1.324   5.204 -35.346  1.00  0.00    -0.274 OA
HETATM   26  H   UNL     1      -3.139   5.536 -32.777  1.00  0.00     0.162 HD
BRANCH  24  27
HETATM   27  C   UNL     1      -3.707   4.882 -35.190  1.00  0.00     0.107 C 
BRANCH  27  28
HETATM   28  C   UNL     1      -4.861   5.205 -34.237  1.00  0.00     0.048 C 
BRANCH  28  29
HETATM   29  C   UNL     1      -5.791   4.086 -33.812  1.00  0.00    -0.057 A 
HETATM   30  C   UNL     1      -7.185   4.197 -33.819  1.00  0.00     0.018 A 
HETATM   31  C   UNL     1      -8.044   3.165 -33.383  1.00  0.00    -0.016 A 
HETATM   32  C   UNL     1      -7.420   1.963 -32.986  1.00  0.00     0.079 A 
HETATM   33  C   UNL     1      -6.014   1.776 -32.989  1.00  0.00    -0.016 A 
HETATM   34  C   UNL     1      -5.228   2.873 -33.390  1.00  0.00     0.018 A 
BRANCH  31  35
HETATM   35  C   UNL     1      -9.577   3.398 -33.495  1.00  0.00    -0.021 C 
HETATM   36  C   UNL     1      -9.797   4.720 -34.258  1.00  0.00     0.019 C 
HETATM   37  C   UNL     1     -10.374   2.292 -34.221  1.00  0.00     0.019 C 
HETATM   38  C   UNL     1     -10.246   3.520 -32.097  1.00  0.00     0.019 C 
ENDBRANCH  31  35
BRANCH  32  39
HETATM   39  O   UNL     1      -8.182   0.893 -32.615  1.00  0.00    -0.360 OA
HETATM   40  H   UNL     1      -8.436   0.438 -33.434  1.00  0.00     0.217 HD
ENDBRANCH  32  39
BRANCH  33  41
HETATM   41  C   UNL     1      -5.356   0.422 -32.611  1.00  0.00    -0.021 C 
HETATM   42  C   UNL     1      -5.851  -0.043 -31.223  1.00  0.00     0.019 C 
HETATM   43  C   UNL     1      -5.692  -0.729 -33.595  1.00  0.00     0.019 C 
HETATM   44  C   UNL     1      -3.816   0.539 -32.609  1.00  0.00     0.019 C 
ENDBRANCH  33  41
ENDBRANCH  28  29
ENDBRANCH  27  28
ENDBRANCH  24  27
ENDBRANCH   1  23
TORSDOF 10
ENDMDL
MODEL 7
REMARK VINA RESULT:      -8.4      2.719      9.644
REMARK  10 active torsions:
REMARK  status: ('A' for Active; 'I' for Inactive)
REMARK    1  A    between atoms: N_15  and  C_16 
REMARK    2  A    between atoms: C_16  and  C_17 
REMARK    3  A    between atoms: C_17  and  N_18 
REMARK       I    between atoms: N_18  and  C_19 
REMARK    4  A    between atoms: C_19  and  C_20 
REMARK    5  A    between atoms: C_20  and  C_21 
REMARK    6  A    between atoms: C_21  and  C_22 
REMARK    7  A    between atoms: C_24  and  C_25 
REMARK    8  A    between atoms: C_29  and  O_30 
REMARK    9  A    between atoms: C_31  and  C_32 
REMARK   10  A    between atoms: C_38  and  O_39 
ROOT
HETATM    1  C   UNL     1      -6.648   5.170 -28.760  1.00  0.00     0.142 C 
ENDROOT
BRANCH   1   2
HETATM    2  C   UNL     1      -7.660   4.602 -29.766  1.00  0.00     0.151 C 
BRANCH   2   3
HETATM    3  N   UNL     1      -7.054   3.950 -30.942  1.00  0.00    -0.291 N 
HETATM    4  C   UNL     1      -6.261   4.637 -31.817  1.00  0.00     0.366 A 
HETATM    5  O   UNL     1      -5.696   3.776 -32.699  1.00  0.00    -0.287 OA
HETATM    6  O   UNL     1      -6.070   5.838 -31.844  1.00  0.00    -0.238 OA
HETATM    7  C   UNL     1      -6.078   2.383 -32.438  1.00  0.00     0.126 A 
HETATM    8  C   UNL     1      -6.790   1.971 -33.742  1.00  0.00     0.082 C 
HETATM    9  C   UNL     1      -6.990   2.533 -31.165  1.00  0.00     0.166 A 
HETATM   10  C   UNL     1      -4.722   1.656 -32.320  1.00  0.00     0.082 C 
HETATM   11  C   UNL     1      -6.906   0.467 -33.997  1.00  0.00     0.122 C 
HETATM   12  N   UNL     1      -5.527  -0.140 -33.891  1.00  0.00    -0.059 N 
HETATM   13  C   UNL     1      -7.360   0.240 -35.456  1.00  0.00     0.046 C 
HETATM   14  C   UNL     1      -7.890  -0.279 -33.096  1.00  0.00     0.046 C 
HETATM   15  C   UNL     1      -4.639   0.164 -32.706  1.00  0.00     0.122 C 
HETATM   16  H   UNL     1      -5.012   0.153 -34.736  1.00  0.00     0.279 HD
HETATM   17  H   UNL     1      -5.604  -1.163 -33.998  1.00  0.00     0.279 HD
HETATM   18  C   UNL     1      -3.195  -0.137 -33.177  1.00  0.00     0.046 C 
HETATM   19  C   UNL     1      -4.934  -0.823 -31.573  1.00  0.00     0.046 C 
HETATM   20  C   UNL     1      -6.536   1.782 -29.920  1.00  0.00     0.074 C 
BRANCH   9  21
HETATM   21  O   UNL     1      -8.318   2.150 -31.482  1.00  0.00    -0.368 OA
HETATM   22  H   UNL     1      -8.799   2.999 -31.523  1.00  0.00     0.212 HD
ENDBRANCH   9  21
ENDBRANCH   2   3
ENDBRANCH   1   2
BRANCH   1  23
HETATM   23  N   UNL     1      -6.468   6.611 -28.853  1.00  0.00    -0.359 N 
HETATM   24  C   UNL     1      -5.799   7.312 -27.877  1.00  0.00     0.217 C 
HETATM   25  O   UNL     1      -5.336   6.770 -26.879  1.00  0.00    -0.274 OA
HETATM   26  H   UNL     1      -6.979   7.127 -29.557  1.00  0.00     0.162 HD
BRANCH  24  27
HETATM   27  C   UNL     1      -5.647   8.799 -28.142  1.00  0.00     0.107 C 
BRANCH  27  28
HETATM   28  C   UNL     1      -4.821   9.147 -29.383  1.00  0.00     0.048 C 
BRANCH  28  29
HETATM   29  C   UNL     1      -3.491   8.449 -29.594  1.00  0.00    -0.057 A 
HETATM   30  C   UNL     1      -2.480   8.407 -28.629  1.00  0.00     0.018 A 
HETATM   31  C   UNL     1      -1.230   7.790 -28.848  1.00  0.00    -0.016 A 
HETATM   32  C   UNL     1      -1.063   7.148 -30.094  1.00  0.00     0.079 A 
HETATM   33  C   UNL     1      -2.063   7.125 -31.099  1.00  0.00    -0.016 A 
HETATM   34  C   UNL     1      -3.262   7.808 -30.819  1.00  0.00     0.018 A 
BRANCH  31  35
HETATM   35  C   UNL     1      -0.214   7.767 -27.672  1.00  0.00    -0.021 C 
HETATM   36  C   UNL     1      -0.777   8.659 -26.547  1.00  0.00     0.019 C 
HETATM   37  C   UNL     1       0.088   6.376 -27.071  1.00  0.00     0.019 C 
HETATM   38  C   UNL     1       1.173   8.327 -28.095  1.00  0.00     0.019 C 
ENDBRANCH  31  35
BRANCH  32  39
HETATM   39  O   UNL     1       0.092   6.470 -30.359  1.00  0.00    -0.360 OA
HETATM   40  H   UNL     1       0.732   7.128 -30.674  1.00  0.00     0.217 HD
ENDBRANCH  32  39
BRANCH  33  41
HETATM   41  C   UNL     1      -1.879   6.356 -32.435  1.00  0.00    -0.021 C 
HETATM   42  C   UNL     1      -0.747   6.996 -33.269  1.00  0.00     0.019 C 
HETATM   43  C   UNL     1      -1.483   4.867 -32.245  1.00  0.00     0.019 C 
HETATM   44  C   UNL     1      -3.192   6.343 -33.249  1.00  0.00     0.019 C 
ENDBRANCH  33  41
ENDBRANCH  28  29
ENDBRANCH  27  28
ENDBRANCH  24  27
ENDBRANCH   1  23
TORSDOF 10
ENDMDL
MODEL 8
REMARK VINA RESULT:      -8.1      3.625      9.748
REMARK  10 active torsions:
REMARK  status: ('A' for Active; 'I' for Inactive)
REMARK    1  A    between atoms: N_15  and  C_16 
REMARK    2  A    between atoms: C_16  and  C_17 
REMARK    3  A    between atoms: C_17  and  N_18 
REMARK       I    between atoms: N_18  and  C_19 
REMARK    4  A    between atoms: C_19  and  C_20 
REMARK    5  A    between atoms: C_20  and  C_21 
REMARK    6  A    between atoms: C_21  and  C_22 
REMARK    7  A    between atoms: C_24  and  C_25 
REMARK    8  A    between atoms: C_29  and  O_30 
REMARK    9  A    between atoms: C_31  and  C_32 
REMARK   10  A    between atoms: C_38  and  O_39 
ROOT
HETATM    1  C   UNL     1      -8.643   5.922 -29.286  1.00  0.00     0.142 C 
ENDROOT
BRANCH   1   2
HETATM    2  C   UNL     1      -9.898   6.093 -30.155  1.00  0.00     0.151 C 
BRANCH   2   3
HETATM    3  N   UNL     1      -9.824   5.430 -31.471  1.00  0.00    -0.291 N 
HETATM    4  C   UNL     1      -9.094   5.953 -32.500  1.00  0.00     0.366 A 
HETATM    5  O   UNL     1      -9.052   5.070 -33.530  1.00  0.00    -0.287 OA
HETATM    6  O   UNL     1      -8.554   7.042 -32.536  1.00  0.00    -0.238 OA
HETATM    7  C   UNL     1      -9.770   3.827 -33.224  1.00  0.00     0.126 A 
HETATM    8  C   UNL     1     -10.867   3.788 -34.307  1.00  0.00     0.082 C 
HETATM    9  C   UNL     1     -10.256   4.090 -31.751  1.00  0.00     0.166 A 
HETATM   10  C   UNL     1      -8.718   2.730 -33.492  1.00  0.00     0.082 C 
HETATM   11  C   UNL     1     -11.499   2.420 -34.573  1.00  0.00     0.122 C 
HETATM   12  N   UNL     1     -10.391   1.433 -34.855  1.00  0.00    -0.059 N 
HETATM   13  C   UNL     1     -12.338   2.500 -35.867  1.00  0.00     0.046 C 
HETATM   14  C   UNL     1     -12.417   1.894 -33.470  1.00  0.00     0.046 C 
HETATM   15  C   UNL     1      -9.195   1.332 -33.937  1.00  0.00     0.122 C 
HETATM   16  H   UNL     1     -10.031   1.657 -35.796  1.00  0.00     0.279 HD
HETATM   17  H   UNL     1     -10.803   0.494 -34.973  1.00  0.00     0.279 HD
HETATM   18  C   UNL     1      -8.073   0.682 -34.783  1.00  0.00     0.046 C 
HETATM   19  C   UNL     1      -9.497   0.351 -32.801  1.00  0.00     0.046 C 
HETATM   20  C   UNL     1      -9.769   3.105 -30.696  1.00  0.00     0.074 C 
BRANCH   9  21
HETATM   21  O   UNL     1     -11.673   4.145 -31.719  1.00  0.00    -0.368 OA
HETATM   22  H   UNL     1     -11.933   3.897 -32.627  1.00  0.00     0.212 HD
ENDBRANCH   9  21
ENDBRANCH   2   3
ENDBRANCH   1   2
BRANCH   1  23
HETATM   23  N   UNL     1      -7.567   6.844 -29.614  1.00  0.00    -0.359 N 
HETATM   24  C   UNL     1      -6.939   7.586 -28.641  1.00  0.00     0.217 C 
HETATM   25  O   UNL     1      -7.258   7.523 -27.458  1.00  0.00    -0.274 OA
HETATM   26  H   UNL     1      -7.386   7.066 -30.585  1.00  0.00     0.162 HD
BRANCH  24  27
HETATM   27  C   UNL     1      -5.801   8.462 -29.132  1.00  0.00     0.107 C 
BRANCH  27  28
HETATM   28  C   UNL     1      -4.416   8.058 -28.622  1.00  0.00     0.048 C 
BRANCH  28  29
HETATM   29  C   UNL     1      -3.572   7.120 -29.464  1.00  0.00    -0.057 A 
HETATM   30  C   UNL     1      -2.174   7.114 -29.446  1.00  0.00     0.018 A 
HETATM   31  C   UNL     1      -1.396   6.265 -30.262  1.00  0.00    -0.016 A 
HETATM   32  C   UNL     1      -2.109   5.358 -31.074  1.00  0.00     0.079 A 
HETATM   33  C   UNL     1      -3.526   5.291 -31.111  1.00  0.00    -0.016 A 
HETATM   34  C   UNL     1      -4.226   6.207 -30.304  1.00  0.00     0.018 A 
BRANCH  31  35
HETATM   35  C   UNL     1       0.149   6.321 -30.105  1.00  0.00    -0.021 C 
HETATM   36  C   UNL     1       0.474   7.371 -29.023  1.00  0.00     0.019 C 
HETATM   37  C   UNL     1       0.832   4.995 -29.701  1.00  0.00     0.019 C 
HETATM   38  C   UNL     1       0.850   6.744 -31.426  1.00  0.00     0.019 C 
ENDBRANCH  31  35
BRANCH  32  39
HETATM   39  O   UNL     1      -1.431   4.457 -31.844  1.00  0.00    -0.360 OA
HETATM   40  H   UNL     1      -0.701   4.943 -32.260  1.00  0.00     0.217 HD
ENDBRANCH  32  39
BRANCH  33  41
HETATM   41  C   UNL     1      -4.285   4.239 -31.963  1.00  0.00    -0.021 C 
HETATM   42  C   UNL     1      -5.803   4.320 -31.686  1.00  0.00     0.019 C 
HETATM   43  C   UNL     1      -4.116   4.439 -33.493  1.00  0.00     0.019 C 
HETATM   44  C   UNL     1      -3.770   2.813 -31.666  1.00  0.00     0.019 C 
ENDBRANCH  33  41
ENDBRANCH  28  29
ENDBRANCH  27  28
ENDBRANCH  24  27
ENDBRANCH   1  23
TORSDOF 10
ENDMDL
MODEL 9
REMARK VINA RESULT:      -8.0      3.753      7.195
REMARK  10 active torsions:
REMARK  status: ('A' for Active; 'I' for Inactive)
REMARK    1  A    between atoms: N_15  and  C_16 
REMARK    2  A    between atoms: C_16  and  C_17 
REMARK    3  A    between atoms: C_17  and  N_18 
REMARK       I    between atoms: N_18  and  C_19 
REMARK    4  A    between atoms: C_19  and  C_20 
REMARK    5  A    between atoms: C_20  and  C_21 
REMARK    6  A    between atoms: C_21  and  C_22 
REMARK    7  A    between atoms: C_24  and  C_25 
REMARK    8  A    between atoms: C_29  and  O_30 
REMARK    9  A    between atoms: C_31  and  C_32 
REMARK   10  A    between atoms: C_38  and  O_39 
ROOT
HETATM    1  C   UNL     1      -5.344  -1.112 -32.432  1.00  0.00     0.142 C 
ENDROOT
BRANCH   1   2
HETATM    2  C   UNL     1      -4.377  -0.116 -31.775  1.00  0.00     0.151 C 
BRANCH   2   3
HETATM    3  N   UNL     1      -5.001   1.152 -31.350  1.00  0.00    -0.291 N 
HETATM    4  C   UNL     1      -5.591   1.288 -30.126  1.00  0.00     0.366 A 
HETATM    5  O   UNL     1      -5.927   2.586 -29.919  1.00  0.00    -0.287 OA
HETATM    6  O   UNL     1      -5.811   0.407 -29.316  1.00  0.00    -0.238 OA
HETATM    7  C   UNL     1      -5.537   3.445 -31.043  1.00  0.00     0.126 A 
HETATM    8  C   UNL     1      -6.886   4.023 -31.518  1.00  0.00     0.082 C 
HETATM    9  C   UNL     1      -4.842   2.417 -32.009  1.00  0.00     0.166 A 
HETATM   10  C   UNL     1      -4.692   4.550 -30.374  1.00  0.00     0.082 C 
HETATM   11  C   UNL     1      -6.811   5.297 -32.361  1.00  0.00     0.122 C 
HETATM   12  N   UNL     1      -5.994   6.319 -31.605  1.00  0.00    -0.059 N 
HETATM   13  C   UNL     1      -8.229   5.896 -32.490  1.00  0.00     0.046 C 
HETATM   14  C   UNL     1      -6.265   5.117 -33.778  1.00  0.00     0.046 C 
HETATM   15  C   UNL     1      -4.651   5.951 -31.018  1.00  0.00     0.122 C 
HETATM   16  H   UNL     1      -6.585   6.647 -30.825  1.00  0.00     0.279 HD
HETATM   17  H   UNL     1      -5.884   7.160 -32.193  1.00  0.00     0.279 HD
HETATM   18  C   UNL     1      -4.384   6.991 -29.903  1.00  0.00     0.046 C 
HETATM   19  C   UNL     1      -3.555   6.158 -32.067  1.00  0.00     0.046 C 
HETATM   20  C   UNL     1      -3.385   2.697 -32.356  1.00  0.00     0.074 C 
BRANCH   9  21
HETATM   21  O   UNL     1      -5.593   2.305 -33.207  1.00  0.00    -0.368 OA
HETATM   22  H   UNL     1      -5.554   1.352 -33.415  1.00  0.00     0.212 HD
ENDBRANCH   9  21
ENDBRANCH   2   3
ENDBRANCH   1   2
BRANCH   1  23
HETATM   23  N   UNL     1      -6.673  -0.571 -32.676  1.00  0.00    -0.359 N 
HETATM   24  C   UNL     1      -7.200  -0.516 -33.946  1.00  0.00     0.217 C 
HETATM   25  O   UNL     1      -6.581  -0.901 -34.932  1.00  0.00    -0.274 OA
HETATM   26  H   UNL     1      -7.151  -0.081 -31.932  1.00  0.00     0.162 HD
BRANCH  24  27
HETATM   27  C   UNL     1      -8.616   0.024 -34.032  1.00  0.00     0.107 C 
BRANCH  27  28
HETATM   28  C   UNL     1      -8.714   1.512 -34.378  1.00  0.00     0.048 C 
BRANCH  28  29
HETATM   29  C   UNL     1     -10.069   2.189 -34.316  1.00  0.00    -0.057 A 
HETATM   30  C   UNL     1     -10.261   3.554 -34.553  1.00  0.00     0.018 A 
HETATM   31  C   UNL     1     -11.520   4.185 -34.454  1.00  0.00    -0.016 A 
HETATM   32  C   UNL     1     -12.614   3.345 -34.156  1.00  0.00     0.079 A 
HETATM   33  C   UNL     1     -12.490   1.948 -33.939  1.00  0.00    -0.016 A 
HETATM   34  C   UNL     1     -11.191   1.408 -34.007  1.00  0.00     0.018 A 
BRANCH  31  35
HETATM   35  C   UNL     1     -11.605   5.698 -34.797  1.00  0.00    -0.021 C 
HETATM   36  C   UNL     1     -10.276   6.102 -35.469  1.00  0.00     0.019 C 
HETATM   37  C   UNL     1     -12.759   6.111 -35.738  1.00  0.00     0.019 C 
HETATM   38  C   UNL     1     -11.796   6.570 -33.524  1.00  0.00     0.019 C 
ENDBRANCH  31  35
BRANCH  32  39
HETATM   39  O   UNL     1     -13.876   3.864 -34.108  1.00  0.00    -0.360 OA
HETATM   40  H   UNL     1     -13.997   4.371 -34.928  1.00  0.00     0.217 HD
ENDBRANCH  32  39
BRANCH  33  41
HETATM   41  C   UNL     1     -13.718   1.037 -33.678  1.00  0.00    -0.021 C 
HETATM   42  C   UNL     1     -13.258  -0.406 -33.369  1.00  0.00     0.019 C 
HETATM   43  C   UNL     1     -14.577   1.483 -32.465  1.00  0.00     0.019 C 
HETATM   44  C   UNL     1     -14.672   1.037 -34.893  1.00  0.00     0.019 C 
ENDBRANCH  33  41
ENDBRANCH  28  29
ENDBRANCH  27  28
ENDBRANCH  24  27
ENDBRANCH   1  23
TORSDOF 10
ENDMDL
MODEL 10
REMARK VINA RESULT:      -7.9      2.781      5.083
REMARK  10 active torsions:
REMARK  status: ('A' for Active; 'I' for Inactive)
REMARK    1  A    between atoms: N_15  and  C_16 
REMARK    2  A    between atoms: C_16  and  C_17 
REMARK    3  A    between atoms: C_17  and  N_18 
REMARK       I    between atoms: N_18  and  C_19 
REMARK    4  A    between atoms: C_19  and  C_20 
REMARK    5  A    between atoms: C_20  and  C_21 
REMARK    6  A    between atoms: C_21  and  C_22 
REMARK    7  A    between atoms: C_24  and  C_25 
REMARK    8  A    between atoms: C_29  and  O_30 
REMARK    9  A    between atoms: C_31  and  C_32 
REMARK   10  A    between atoms: C_38  and  O_39 
ROOT
HETATM    1  C   UNL     1      -7.165   8.511 -29.441  1.00  0.00     0.142 C 
ENDROOT
BRANCH   1   2
HETATM    2  C   UNL     1      -5.703   8.691 -29.008  1.00  0.00     0.151 C 
BRANCH   2   3
HETATM    3  N   UNL     1      -4.711   8.341 -30.043  1.00  0.00    -0.291 N 
HETATM    4  C   UNL     1      -4.326   9.234 -31.002  1.00  0.00     0.366 A 
HETATM    5  O   UNL     1      -3.289   8.726 -31.713  1.00  0.00    -0.287 OA
HETATM    6  O   UNL     1      -4.817  10.324 -31.227  1.00  0.00    -0.238 OA
HETATM    7  C   UNL     1      -2.880   7.403 -31.229  1.00  0.00     0.126 A 
HETATM    8  C   UNL     1      -3.101   6.502 -32.462  1.00  0.00     0.082 C 
HETATM    9  C   UNL     1      -3.863   7.183 -30.022  1.00  0.00     0.166 A 
HETATM   10  C   UNL     1      -1.370   7.571 -30.958  1.00  0.00     0.082 C 
HETATM   11  C   UNL     1      -2.352   5.169 -32.462  1.00  0.00     0.122 C 
HETATM   12  N   UNL     1      -0.887   5.448 -32.222  1.00  0.00    -0.059 N 
HETATM   13  C   UNL     1      -2.442   4.544 -33.872  1.00  0.00     0.046 C 
HETATM   14  C   UNL     1      -2.867   4.125 -31.471  1.00  0.00     0.046 C 
HETATM   15  C   UNL     1      -0.447   6.341 -31.086  1.00  0.00     0.122 C 
HETATM   16  H   UNL     1      -0.522   5.866 -33.093  1.00  0.00     0.279 HD
HETATM   17  H   UNL     1      -0.382   4.550 -32.157  1.00  0.00     0.279 HD
HETATM   18  C   UNL     1       0.971   6.834 -31.465  1.00  0.00     0.046 C 
HETATM   19  C   UNL     1      -0.284   5.510 -29.810  1.00  0.00     0.046 C 
HETATM   20  C   UNL     1      -3.219   6.976 -28.657  1.00  0.00     0.074 C 
BRANCH   9  21
HETATM   21  O   UNL     1      -4.724   6.091 -30.301  1.00  0.00    -0.368 OA
HETATM   22  H   UNL     1      -4.388   5.743 -31.149  1.00  0.00     0.212 HD
ENDBRANCH   9  21
ENDBRANCH   2   3
ENDBRANCH   1   2
BRANCH   1  23
HETATM   23  N   UNL     1      -7.487   7.165 -29.888  1.00  0.00    -0.359 N 
HETATM   24  C   UNL     1      -7.994   6.226 -29.019  1.00  0.00     0.217 C 
HETATM   25  O   UNL     1      -8.186   6.464 -27.831  1.00  0.00    -0.274 OA
HETATM   26  H   UNL     1      -7.184   6.863 -30.805  1.00  0.00     0.162 HD
BRANCH  24  27
HETATM   27  C   UNL     1      -8.330   4.884 -29.646  1.00  0.00     0.107 C 
BRANCH  27  28
HETATM   28  C   UNL     1      -9.473   4.921 -30.663  1.00  0.00     0.048 C 
BRANCH  28  29
HETATM   29  C   UNL     1      -9.575   3.808 -31.687  1.00  0.00    -0.057 A 
HETATM   30  C   UNL     1     -10.767   3.459 -32.331  1.00  0.00     0.018 A 
HETATM   31  C   UNL     1     -10.862   2.395 -33.253  1.00  0.00    -0.016 A 
HETATM   32  C   UNL     1      -9.659   1.720 -33.551  1.00  0.00     0.079 A 
HETATM   33  C   UNL     1      -8.413   2.048 -32.958  1.00  0.00    -0.016 A 
HETATM   34  C   UNL     1      -8.415   3.090 -32.010  1.00  0.00     0.018 A 
BRANCH  31  35
HETATM   35  C   UNL     1     -12.235   2.148 -33.940  1.00  0.00    -0.021 C 
HETATM   36  C   UNL     1     -12.602   0.664 -33.735  1.00  0.00     0.019 C 
HETATM   37  C   UNL     1     -13.411   3.005 -33.421  1.00  0.00     0.019 C 
HETATM   38  C   UNL     1     -12.177   2.433 -35.467  1.00  0.00     0.019 C 
ENDBRANCH  31  35
BRANCH  32  39
HETATM   39  O   UNL     1      -9.653   0.722 -34.483  1.00  0.00    -0.360 OA
HETATM   40  H   UNL     1     -10.507   0.767 -34.941  1.00  0.00     0.217 HD
ENDBRANCH  32  39
BRANCH  33  41
HETATM   41  C   UNL     1      -7.093   1.333 -33.351  1.00  0.00    -0.021 C 
HETATM   42  C   UNL     1      -7.012   1.165 -34.885  1.00  0.00     0.019 C 
HETATM   43  C   UNL     1      -5.817   2.112 -32.936  1.00  0.00     0.019 C 
HETATM   44  C   UNL     1      -6.988  -0.046 -32.664  1.00  0.00     0.019 C 
ENDBRANCH  33  41
ENDBRANCH  28  29
ENDBRANCH  27  28
ENDBRANCH  24  27
ENDBRANCH   1  23
TORSDOF 10
ENDMDL
