MODEL 1
REMARK VINA RESULT:      -8.0      0.000      0.000
REMARK  7 active torsions:
REMARK  status: ('A' for Active; 'I' for Inactive)
REMARK    1  A    between atoms: O_1  and  C_2 
REMARK    2  A    between atoms: C_2  and  C_3 
REMARK    3  A    between atoms: C_3  and  C_4 
REMARK    4  A    between atoms: C_4  and  N_5 
REMARK    5  A    between atoms: C_4  and  C_21 
REMARK       I    between atoms: N_5  and  C_6 
REMARK       I    between atoms: C_6  and  N_8 
REMARK    6  A    between atoms: N_8  and  C_9 
REMARK    7  A    between atoms: C_12  and  C_15 
ROOT
HETATM    1  N   UNL     1      -8.127   0.091 -33.604  1.00  0.00    -0.334 N 
HETATM    2  C   UNL     1      -9.262   0.498 -32.930  1.00  0.00     0.321 C 
HETATM    3  O   UNL     1      -9.357   0.478 -31.711  1.00  0.00    -0.247 OA
HETATM    4  N   UNL     1     -10.195   0.986 -33.821  1.00  0.00    -0.309 N 
HETATM    5  H   UNL     1      -8.303  -0.337 -34.501  1.00  0.00     0.165 HD
HETATM    6  H   UNL     1      -9.820   1.260 -34.716  1.00  0.00     0.170 HD
ENDROOT
BRANCH   1   7
HETATM    7  C   UNL     1      -6.957  -0.387 -32.877  1.00  0.00     0.121 C 
BRANCH   7   8
HETATM    8  C   UNL     1      -5.956   0.757 -32.659  1.00  0.00     0.056 C 
BRANCH   8   9
HETATM    9  C   UNL     1      -5.945   1.233 -31.212  1.00  0.00     0.166 C 
BRANCH   9  10
HETATM   10  O   UNL     1      -6.831   0.416 -30.456  1.00  0.00    -0.401 OA
HETATM   11  H   UNL     1      -7.288   0.999 -29.824  1.00  0.00     0.209 HD
ENDBRANCH   9  10
ENDBRANCH   8   9
ENDBRANCH   7   8
BRANCH   7  12
HETATM   12  C   UNL     1      -6.312  -1.561 -33.595  1.00  0.00    -0.032 A 
HETATM   13  C   UNL     1      -4.914  -1.709 -33.571  1.00  0.00     0.009 A 
HETATM   14  C   UNL     1      -4.290  -2.764 -34.242  1.00  0.00     0.004 A 
HETATM   15  C   UNL     1      -5.058  -3.695 -34.937  1.00  0.00     0.042 A 
HETATM   16  C   UNL     1      -6.440  -3.562 -34.954  1.00  0.00     0.117 A 
HETATM   17  F   UNL     1      -7.182  -4.459 -35.617  1.00  0.00    -0.206 F 
HETATM   18  C   UNL     1      -7.072  -2.510 -34.295  1.00  0.00     0.051 A 
ENDBRANCH   7  12
ENDBRANCH   1   7
BRANCH   4  19
HETATM   19  C   UNL     1     -11.487   1.450 -33.508  1.00  0.00     0.036 A 
HETATM   20  C   UNL     1     -11.609   2.750 -33.009  1.00  0.00     0.030 A 
HETATM   21  C   UNL     1     -12.864   3.262 -32.651  1.00  0.00     0.014 A 
HETATM   22  C   UNL     1     -14.027   2.495 -32.805  1.00  0.00    -0.023 A 
HETATM   23  C   UNL     1     -13.895   1.208 -33.345  1.00  0.00     0.014 A 
HETATM   24  C   UNL     1     -12.639   0.689 -33.689  1.00  0.00     0.030 A 
BRANCH  22  25
HETATM   25  C   UNL     1     -15.322   3.033 -32.409  1.00  0.00     0.010 A 
HETATM   26  C   UNL     1     -15.707   4.344 -32.030  1.00  0.00     0.152 A 
HETATM   27  N   UNL     1     -17.001   4.441 -31.711  1.00  0.00    -0.187 NA
HETATM   28  N   UNL     1     -17.457   3.191 -31.878  1.00  0.00    -0.289 N 
HETATM   29  H   UNL     1     -18.435   3.006 -31.689  1.00  0.00     0.188 HD
HETATM   30  C   UNL     1     -16.496   2.314 -32.293  1.00  0.00     0.123 A 
ENDBRANCH  22  25
ENDBRANCH   4  19
TORSDOF 7
ENDMDL
MODEL 2
REMARK VINA RESULT:      -8.0      5.303      8.410
REMARK  7 active torsions:
REMARK  status: ('A' for Active; 'I' for Inactive)
REMARK    1  A    between atoms: O_1  and  C_2 
REMARK    2  A    between atoms: C_2  and  C_3 
REMARK    3  A    between atoms: C_3  and  C_4 
REMARK    4  A    between atoms: C_4  and  N_5 
REMARK    5  A    between atoms: C_4  and  C_21 
REMARK       I    between atoms: N_5  and  C_6 
REMARK       I    between atoms: C_6  and  N_8 
REMARK    6  A    between atoms: N_8  and  C_9 
REMARK    7  A    between atoms: C_12  and  C_15 
ROOT
HETATM    1  N   UNL     1      -5.406  -0.048 -33.220  1.00  0.00    -0.334 N 
HETATM    2  C   UNL     1      -5.300   1.327 -33.299  1.00  0.00     0.321 C 
HETATM    3  O   UNL     1      -6.021   2.011 -34.013  1.00  0.00    -0.247 OA
HETATM    4  N   UNL     1      -4.344   1.782 -32.416  1.00  0.00    -0.309 N 
HETATM    5  H   UNL     1      -4.532  -0.527 -33.066  1.00  0.00     0.165 HD
HETATM    6  H   UNL     1      -4.118   1.141 -31.671  1.00  0.00     0.170 HD
ENDROOT
BRANCH   1   7
HETATM    7  C   UNL     1      -6.410  -0.766 -33.995  1.00  0.00     0.121 C 
BRANCH   7   8
HETATM    8  C   UNL     1      -7.778  -0.695 -33.300  1.00  0.00     0.056 C 
BRANCH   8   9
HETATM    9  C   UNL     1      -8.739   0.233 -34.033  1.00  0.00     0.166 C 
BRANCH   9  10
HETATM   10  O   UNL     1      -8.284   0.396 -35.371  1.00  0.00    -0.401 OA
HETATM   11  H   UNL     1      -9.065   0.599 -35.915  1.00  0.00     0.209 HD
ENDBRANCH   9  10
ENDBRANCH   8   9
ENDBRANCH   7   8
BRANCH   7  12
HETATM   12  C   UNL     1      -5.984  -2.205 -34.238  1.00  0.00    -0.032 A 
HETATM   13  C   UNL     1      -6.916  -3.132 -34.739  1.00  0.00     0.009 A 
HETATM   14  C   UNL     1      -6.560  -4.467 -34.949  1.00  0.00     0.004 A 
HETATM   15  C   UNL     1      -5.263  -4.892 -34.673  1.00  0.00     0.042 A 
HETATM   16  C   UNL     1      -4.335  -3.978 -34.190  1.00  0.00     0.117 A 
HETATM   17  F   UNL     1      -3.085  -4.383 -33.929  1.00  0.00    -0.206 F 
HETATM   18  C   UNL     1      -4.680  -2.647 -33.970  1.00  0.00     0.051 A 
ENDBRANCH   7  12
ENDBRANCH   1   7
BRANCH   4  19
HETATM   19  C   UNL     1      -3.930   3.117 -32.247  1.00  0.00     0.036 A 
HETATM   20  C   UNL     1      -4.570   3.878 -31.264  1.00  0.00     0.030 A 
HETATM   21  C   UNL     1      -4.225   5.222 -31.066  1.00  0.00     0.014 A 
HETATM   22  C   UNL     1      -3.217   5.829 -31.827  1.00  0.00    -0.023 A 
HETATM   23  C   UNL     1      -2.555   5.043 -32.781  1.00  0.00     0.014 A 
HETATM   24  C   UNL     1      -2.909   3.703 -32.992  1.00  0.00     0.030 A 
BRANCH  22  25
HETATM   25  C   UNL     1      -2.883   7.233 -31.624  1.00  0.00     0.010 A 
HETATM   26  C   UNL     1      -1.978   8.081 -32.311  1.00  0.00     0.152 A 
HETATM   27  N   UNL     1      -1.932   9.318 -31.809  1.00  0.00    -0.187 NA
HETATM   28  N   UNL     1      -2.805   9.274 -30.792  1.00  0.00    -0.289 N 
HETATM   29  H   UNL     1      -2.945  10.113 -30.242  1.00  0.00     0.188 HD
HETATM   30  C   UNL     1      -3.397   8.053 -30.639  1.00  0.00     0.123 A 
ENDBRANCH  22  25
ENDBRANCH   4  19
TORSDOF 7
ENDMDL
MODEL 3
REMARK VINA RESULT:      -7.9      7.298     10.894
REMARK  7 active torsions:
REMARK  status: ('A' for Active; 'I' for Inactive)
REMARK    1  A    between atoms: O_1  and  C_2 
REMARK    2  A    between atoms: C_2  and  C_3 
REMARK    3  A    between atoms: C_3  and  C_4 
REMARK    4  A    between atoms: C_4  and  N_5 
REMARK    5  A    between atoms: C_4  and  C_21 
REMARK       I    between atoms: N_5  and  C_6 
REMARK       I    between atoms: C_6  and  N_8 
REMARK    6  A    between atoms: N_8  and  C_9 
REMARK    7  A    between atoms: C_12  and  C_15 
ROOT
HETATM    1  N   UNL     1      -1.821   5.231 -30.780  1.00  0.00    -0.334 N 
HETATM    2  C   UNL     1      -2.273   4.308 -31.702  1.00  0.00     0.321 C 
HETATM    3  O   UNL     1      -1.964   4.340 -32.885  1.00  0.00    -0.247 OA
HETATM    4  N   UNL     1      -3.030   3.341 -31.074  1.00  0.00    -0.309 N 
HETATM    5  H   UNL     1      -2.476   5.443 -30.043  1.00  0.00     0.165 HD
HETATM    6  H   UNL     1      -2.881   3.268 -30.080  1.00  0.00     0.170 HD
ENDROOT
BRANCH   1   7
HETATM    7  C   UNL     1      -0.925   6.310 -31.180  1.00  0.00     0.121 C 
BRANCH   7   8
HETATM    8  C   UNL     1       0.518   5.993 -30.762  1.00  0.00     0.056 C 
BRANCH   8   9
HETATM    9  C   UNL     1       0.571   5.210 -29.456  1.00  0.00     0.166 C 
BRANCH   9  10
HETATM   10  O   UNL     1       0.826   3.843 -29.754  1.00  0.00    -0.401 OA
HETATM   11  H   UNL     1      -0.006   3.359 -29.608  1.00  0.00     0.209 HD
ENDBRANCH   9  10
ENDBRANCH   8   9
ENDBRANCH   7   8
BRANCH   7  12
HETATM   12  C   UNL     1      -1.389   7.642 -30.612  1.00  0.00    -0.032 A 
HETATM   13  C   UNL     1      -2.131   8.523 -31.419  1.00  0.00     0.009 A 
HETATM   14  C   UNL     1      -2.550   9.764 -30.933  1.00  0.00     0.004 A 
HETATM   15  C   UNL     1      -2.243  10.138 -29.627  1.00  0.00     0.042 A 
HETATM   16  C   UNL     1      -1.521   9.266 -28.821  1.00  0.00     0.117 A 
HETATM   17  F   UNL     1      -1.228   9.621 -27.563  1.00  0.00    -0.206 F 
HETATM   18  C   UNL     1      -1.092   8.030 -29.297  1.00  0.00     0.051 A 
ENDBRANCH   7  12
ENDBRANCH   1   7
BRANCH   4  19
HETATM   19  C   UNL     1      -3.692   2.264 -31.695  1.00  0.00     0.036 A 
HETATM   20  C   UNL     1      -3.200   0.977 -31.462  1.00  0.00     0.030 A 
HETATM   21  C   UNL     1      -3.796  -0.136 -32.073  1.00  0.00     0.014 A 
HETATM   22  C   UNL     1      -4.909   0.011 -32.911  1.00  0.00    -0.023 A 
HETATM   23  C   UNL     1      -5.418   1.303 -33.104  1.00  0.00     0.014 A 
HETATM   24  C   UNL     1      -4.814   2.418 -32.506  1.00  0.00     0.030 A 
BRANCH  22  25
HETATM   25  C   UNL     1      -5.505  -1.152 -33.556  1.00  0.00     0.010 A 
HETATM   26  C   UNL     1      -4.907  -2.286 -34.162  1.00  0.00     0.152 A 
HETATM   27  N   UNL     1      -5.798  -3.142 -34.671  1.00  0.00    -0.187 NA
HETATM   28  N   UNL     1      -6.976  -2.562 -34.400  1.00  0.00    -0.289 N 
HETATM   29  H   UNL     1      -7.824  -3.031 -34.698  1.00  0.00     0.188 HD
HETATM   30  C   UNL     1      -6.856  -1.374 -33.738  1.00  0.00     0.123 A 
ENDBRANCH  22  25
ENDBRANCH   4  19
TORSDOF 7
ENDMDL
MODEL 4
REMARK VINA RESULT:      -7.8      6.895      9.849
REMARK  7 active torsions:
REMARK  status: ('A' for Active; 'I' for Inactive)
REMARK    1  A    between atoms: O_1  and  C_2 
REMARK    2  A    between atoms: C_2  and  C_3 
REMARK    3  A    between atoms: C_3  and  C_4 
REMARK    4  A    between atoms: C_4  and  N_5 
REMARK    5  A    between atoms: C_4  and  C_21 
REMARK       I    between atoms: N_5  and  C_6 
REMARK       I    between atoms: C_6  and  N_8 
REMARK    6  A    between atoms: N_8  and  C_9 
REMARK    7  A    between atoms: C_12  and  C_15 
ROOT
HETATM    1  N   UNL     1      -4.746   4.222 -31.720  1.00  0.00    -0.334 N 
HETATM    2  C   UNL     1      -4.328   2.914 -31.863  1.00  0.00     0.321 C 
HETATM    3  O   UNL     1      -3.320   2.473 -31.329  1.00  0.00    -0.247 OA
HETATM    4  N   UNL     1      -5.244   2.201 -32.609  1.00  0.00    -0.309 N 
HETATM    5  H   UNL     1      -5.208   4.606 -32.531  1.00  0.00     0.165 HD
HETATM    6  H   UNL     1      -6.163   2.614 -32.654  1.00  0.00     0.170 HD
ENDROOT
BRANCH   1   7
HETATM    7  C   UNL     1      -3.991   5.162 -30.900  1.00  0.00     0.121 C 
BRANCH   7   8
HETATM    8  C   UNL     1      -4.933   6.187 -30.252  1.00  0.00     0.056 C 
BRANCH   8   9
HETATM    9  C   UNL     1      -5.452   5.705 -28.903  1.00  0.00     0.166 C 
BRANCH   9  10
HETATM   10  O   UNL     1      -5.241   4.301 -28.807  1.00  0.00    -0.401 OA
HETATM   11  H   UNL     1      -4.946   4.118 -27.898  1.00  0.00     0.209 HD
ENDBRANCH   9  10
ENDBRANCH   8   9
ENDBRANCH   7   8
BRANCH   7  12
HETATM   12  C   UNL     1      -2.904   5.845 -31.715  1.00  0.00    -0.032 A 
HETATM   13  C   UNL     1      -3.167   6.235 -33.040  1.00  0.00     0.009 A 
HETATM   14  C   UNL     1      -2.181   6.842 -33.821  1.00  0.00     0.004 A 
HETATM   15  C   UNL     1      -0.918   7.080 -33.284  1.00  0.00     0.042 A 
HETATM   16  C   UNL     1      -0.656   6.709 -31.972  1.00  0.00     0.117 A 
HETATM   17  F   UNL     1       0.556   6.942 -31.450  1.00  0.00    -0.206 F 
HETATM   18  C   UNL     1      -1.629   6.097 -31.186  1.00  0.00     0.051 A 
ENDBRANCH   7  12
ENDBRANCH   1   7
BRANCH   4  19
HETATM   19  C   UNL     1      -5.137   0.852 -32.997  1.00  0.00     0.036 A 
HETATM   20  C   UNL     1      -6.131   0.334 -33.832  1.00  0.00     0.030 A 
HETATM   21  C   UNL     1      -6.099  -1.009 -34.230  1.00  0.00     0.014 A 
HETATM   22  C   UNL     1      -5.061  -1.859 -33.824  1.00  0.00    -0.023 A 
HETATM   23  C   UNL     1      -4.049  -1.316 -33.019  1.00  0.00     0.014 A 
HETATM   24  C   UNL     1      -4.088   0.023 -32.607  1.00  0.00     0.030 A 
BRANCH  22  25
HETATM   25  C   UNL     1      -5.052  -3.259 -34.229  1.00  0.00     0.010 A 
HETATM   26  C   UNL     1      -5.993  -4.017 -34.971  1.00  0.00     0.152 A 
HETATM   27  N   UNL     1      -5.636  -5.295 -35.122  1.00  0.00    -0.187 NA
HETATM   28  N   UNL     1      -4.465  -5.370 -34.474  1.00  0.00    -0.289 N 
HETATM   29  H   UNL     1      -3.987  -6.263 -34.445  1.00  0.00     0.188 HD
HETATM   30  C   UNL     1      -4.073  -4.184 -33.923  1.00  0.00     0.123 A 
ENDBRANCH  22  25
ENDBRANCH   4  19
TORSDOF 7
ENDMDL
MODEL 5
REMARK VINA RESULT:      -7.7      7.456     10.610
REMARK  7 active torsions:
REMARK  status: ('A' for Active; 'I' for Inactive)
REMARK    1  A    between atoms: O_1  and  C_2 
REMARK    2  A    between atoms: C_2  and  C_3 
REMARK    3  A    between atoms: C_3  and  C_4 
REMARK    4  A    between atoms: C_4  and  N_5 
REMARK    5  A    between atoms: C_4  and  C_21 
REMARK       I    between atoms: N_5  and  C_6 
REMARK       I    between atoms: C_6  and  N_8 
REMARK    6  A    between atoms: N_8  and  C_9 
REMARK    7  A    between atoms: C_12  and  C_15 
ROOT
HETATM    1  N   UNL     1      -2.459   4.391 -31.271  1.00  0.00    -0.334 N 
HETATM    2  C   UNL     1      -3.085   3.540 -32.160  1.00  0.00     0.321 C 
HETATM    3  O   UNL     1      -3.401   3.875 -33.294  1.00  0.00    -0.247 OA
HETATM    4  N   UNL     1      -3.212   2.283 -31.607  1.00  0.00    -0.309 N 
HETATM    5  H   UNL     1      -2.705   4.241 -30.304  1.00  0.00     0.165 HD
HETATM    6  H   UNL     1      -2.589   2.097 -30.836  1.00  0.00     0.170 HD
ENDROOT
BRANCH   1   7
HETATM    7  C   UNL     1      -2.130   5.759 -31.651  1.00  0.00     0.121 C 
BRANCH   7   8
HETATM    8  C   UNL     1      -1.026   5.770 -32.719  1.00  0.00     0.056 C 
BRANCH   8   9
HETATM    9  C   UNL     1      -1.470   6.490 -33.986  1.00  0.00     0.166 C 
BRANCH   9  10
HETATM   10  O   UNL     1      -1.468   7.891 -33.740  1.00  0.00    -0.401 OA
HETATM   11  H   UNL     1      -1.086   8.318 -34.526  1.00  0.00     0.209 HD
ENDBRANCH   9  10
ENDBRANCH   8   9
ENDBRANCH   7   8
BRANCH   7  12
HETATM   12  C   UNL     1      -1.735   6.583 -30.435  1.00  0.00    -0.032 A 
HETATM   13  C   UNL     1      -2.720   6.986 -29.518  1.00  0.00     0.009 A 
HETATM   14  C   UNL     1      -2.391   7.764 -28.404  1.00  0.00     0.004 A 
HETATM   15  C   UNL     1      -1.068   8.140 -28.186  1.00  0.00     0.042 A 
HETATM   16  C   UNL     1      -0.088   7.733 -29.082  1.00  0.00     0.117 A 
HETATM   17  F   UNL     1       1.186   8.088 -28.872  1.00  0.00    -0.206 F 
HETATM   18  C   UNL     1      -0.405   6.964 -30.199  1.00  0.00     0.051 A 
ENDBRANCH   7  12
ENDBRANCH   1   7
BRANCH   4  19
HETATM   19  C   UNL     1      -3.836   1.168 -32.199  1.00  0.00     0.036 A 
HETATM   20  C   UNL     1      -3.098  -0.014 -32.299  1.00  0.00     0.030 A 
HETATM   21  C   UNL     1      -3.651  -1.151 -32.904  1.00  0.00     0.014 A 
HETATM   22  C   UNL     1      -4.961  -1.140 -33.401  1.00  0.00    -0.023 A 
HETATM   23  C   UNL     1      -5.705   0.041 -33.259  1.00  0.00     0.014 A 
HETATM   24  C   UNL     1      -5.147   1.183 -32.667  1.00  0.00     0.030 A 
BRANCH  22  25
HETATM   25  C   UNL     1      -5.515  -2.323 -34.047  1.00  0.00     0.010 A 
HETATM   26  C   UNL     1      -4.896  -3.527 -34.468  1.00  0.00     0.152 A 
HETATM   27  N   UNL     1      -5.746  -4.380 -35.047  1.00  0.00    -0.187 NA
HETATM   28  N   UNL     1      -6.917  -3.729 -35.007  1.00  0.00    -0.289 N 
HETATM   29  H   UNL     1      -7.734  -4.182 -35.401  1.00  0.00     0.188 HD
HETATM   30  C   UNL     1      -6.833  -2.498 -34.422  1.00  0.00     0.123 A 
ENDBRANCH  22  25
ENDBRANCH   4  19
TORSDOF 7
ENDMDL
MODEL 6
REMARK VINA RESULT:      -7.6      4.890      8.238
REMARK  7 active torsions:
REMARK  status: ('A' for Active; 'I' for Inactive)
REMARK    1  A    between atoms: O_1  and  C_2 
REMARK    2  A    between atoms: C_2  and  C_3 
REMARK    3  A    between atoms: C_3  and  C_4 
REMARK    4  A    between atoms: C_4  and  N_5 
REMARK    5  A    between atoms: C_4  and  C_21 
REMARK       I    between atoms: N_5  and  C_6 
REMARK       I    between atoms: C_6  and  N_8 
REMARK    6  A    between atoms: N_8  and  C_9 
REMARK    7  A    between atoms: C_12  and  C_15 
ROOT
HETATM    1  N   UNL     1      -5.937   0.297 -32.844  1.00  0.00    -0.334 N 
HETATM    2  C   UNL     1      -5.624   1.626 -33.050  1.00  0.00     0.321 C 
HETATM    3  O   UNL     1      -5.992   2.254 -34.033  1.00  0.00    -0.247 OA
HETATM    4  N   UNL     1      -4.927   2.123 -31.969  1.00  0.00    -0.309 N 
HETATM    5  H   UNL     1      -5.226  -0.232 -32.362  1.00  0.00     0.165 HD
HETATM    6  H   UNL     1      -5.029   1.589 -31.119  1.00  0.00     0.170 HD
ENDROOT
BRANCH   1   7
HETATM    7  C   UNL     1      -6.748  -0.437 -33.808  1.00  0.00     0.121 C 
BRANCH   7   8
HETATM    8  C   UNL     1      -8.194  -0.568 -33.305  1.00  0.00     0.056 C 
BRANCH   8   9
HETATM    9  C   UNL     1      -9.072   0.574 -33.802  1.00  0.00     0.166 C 
BRANCH   9  10
HETATM   10  O   UNL     1      -8.636   0.953 -35.101  1.00  0.00    -0.401 OA
HETATM   11  H   UNL     1      -8.593   1.925 -35.116  1.00  0.00     0.209 HD
ENDBRANCH   9  10
ENDBRANCH   8   9
ENDBRANCH   7   8
BRANCH   7  12
HETATM   12  C   UNL     1      -6.140  -1.798 -34.108  1.00  0.00    -0.032 A 
HETATM   13  C   UNL     1      -4.801  -2.054 -33.761  1.00  0.00     0.009 A 
HETATM   14  C   UNL     1      -4.207  -3.286 -34.046  1.00  0.00     0.004 A 
HETATM   15  C   UNL     1      -4.947  -4.285 -34.673  1.00  0.00     0.042 A 
HETATM   16  C   UNL     1      -6.273  -4.043 -35.006  1.00  0.00     0.117 A 
HETATM   17  F   UNL     1      -6.990  -5.005 -35.603  1.00  0.00    -0.206 F 
HETATM   18  C   UNL     1      -6.874  -2.817 -34.733  1.00  0.00     0.051 A 
ENDBRANCH   7  12
ENDBRANCH   1   7
BRANCH   4  19
HETATM   19  C   UNL     1      -4.403   3.423 -31.838  1.00  0.00     0.036 A 
HETATM   20  C   UNL     1      -5.247   4.418 -31.336  1.00  0.00     0.030 A 
HETATM   21  C   UNL     1      -4.796   5.739 -31.209  1.00  0.00     0.014 A 
HETATM   22  C   UNL     1      -3.485   6.091 -31.557  1.00  0.00    -0.023 A 
HETATM   23  C   UNL     1      -2.635   5.075 -32.021  1.00  0.00     0.014 A 
HETATM   24  C   UNL     1      -3.090   3.757 -32.163  1.00  0.00     0.030 A 
BRANCH  22  25
HETATM   25  C   UNL     1      -3.035   7.472 -31.439  1.00  0.00     0.010 A 
HETATM   26  C   UNL     1      -2.081   8.205 -32.189  1.00  0.00     0.152 A 
HETATM   27  N   UNL     1      -1.926   9.461 -31.759  1.00  0.00    -0.187 NA
HETATM   28  N   UNL     1      -2.777   9.543 -30.726  1.00  0.00    -0.289 N 
HETATM   29  H   UNL     1      -2.838  10.419 -30.221  1.00  0.00     0.188 HD
HETATM   30  C   UNL     1      -3.461   8.384 -30.494  1.00  0.00     0.123 A 
ENDBRANCH  22  25
ENDBRANCH   4  19
TORSDOF 7
ENDMDL
MODEL 7
REMARK VINA RESULT:      -7.5      1.672      2.525
REMARK  7 active torsions:
REMARK  status: ('A' for Active; 'I' for Inactive)
REMARK    1  A    between atoms: O_1  and  C_2 
REMARK    2  A    between atoms: C_2  and  C_3 
REMARK    3  A    between atoms: C_3  and  C_4 
REMARK    4  A    between atoms: C_4  and  N_5 
REMARK    5  A    between atoms: C_4  and  C_21 
REMARK       I    between atoms: N_5  and  C_6 
REMARK       I    between atoms: C_6  and  N_8 
REMARK    6  A    between atoms: N_8  and  C_9 
REMARK    7  A    between atoms: C_12  and  C_15 
ROOT
HETATM    1  N   UNL     1      -5.903  -0.268 -33.833  1.00  0.00    -0.334 N 
HETATM    2  C   UNL     1      -7.029   0.208 -33.191  1.00  0.00     0.321 C 
HETATM    3  O   UNL     1      -7.267  -0.010 -32.011  1.00  0.00    -0.247 OA
HETATM    4  N   UNL     1      -7.763   1.004 -34.046  1.00  0.00    -0.309 N 
HETATM    5  H   UNL     1      -6.039  -0.492 -34.807  1.00  0.00     0.165 HD
HETATM    6  H   UNL     1      -7.248   1.361 -34.836  1.00  0.00     0.170 HD
ENDROOT
BRANCH   1   7
HETATM    7  C   UNL     1      -4.916  -1.067 -33.117  1.00  0.00     0.121 C 
BRANCH   7   8
HETATM    8  C   UNL     1      -3.529  -0.412 -33.203  1.00  0.00     0.056 C 
BRANCH   8   9
HETATM    9  C   UNL     1      -3.324   0.629 -32.109  1.00  0.00     0.166 C 
BRANCH   9  10
HETATM   10  O   UNL     1      -3.997   1.824 -32.486  1.00  0.00    -0.401 OA
HETATM   11  H   UNL     1      -3.379   2.339 -33.033  1.00  0.00     0.209 HD
ENDBRANCH   9  10
ENDBRANCH   8   9
ENDBRANCH   7   8
BRANCH   7  12
HETATM   12  C   UNL     1      -4.889  -2.495 -33.637  1.00  0.00    -0.032 A 
HETATM   13  C   UNL     1      -3.827  -3.346 -33.283  1.00  0.00     0.009 A 
HETATM   14  C   UNL     1      -3.763  -4.656 -33.765  1.00  0.00     0.004 A 
HETATM   15  C   UNL     1      -4.768  -5.138 -34.600  1.00  0.00     0.042 A 
HETATM   16  C   UNL     1      -5.826  -4.307 -34.943  1.00  0.00     0.117 A 
HETATM   17  F   UNL     1      -6.797  -4.770 -35.741  1.00  0.00    -0.206 F 
HETATM   18  C   UNL     1      -5.897  -2.998 -34.474  1.00  0.00     0.051 A 
ENDBRANCH   7  12
ENDBRANCH   1   7
BRANCH   4  19
HETATM   19  C   UNL     1      -8.992   1.627 -33.759  1.00  0.00     0.036 A 
HETATM   20  C   UNL     1     -10.140   0.830 -33.746  1.00  0.00     0.030 A 
HETATM   21  C   UNL     1     -11.398   1.395 -33.496  1.00  0.00     0.014 A 
HETATM   22  C   UNL     1     -11.535   2.764 -33.231  1.00  0.00    -0.023 A 
HETATM   23  C   UNL     1     -10.371   3.546 -33.207  1.00  0.00     0.014 A 
HETATM   24  C   UNL     1      -9.114   2.985 -33.472  1.00  0.00     0.030 A 
BRANCH  22  25
HETATM   25  C   UNL     1     -12.852   3.341 -32.994  1.00  0.00     0.010 A 
HETATM   26  C   UNL     1     -13.240   4.664 -32.662  1.00  0.00     0.152 A 
HETATM   27  N   UNL     1     -14.559   4.801 -32.502  1.00  0.00    -0.187 NA
HETATM   28  N   UNL     1     -15.029   3.565 -32.725  1.00  0.00    -0.289 N 
HETATM   29  H   UNL     1     -16.029   3.410 -32.656  1.00  0.00     0.188 HD
HETATM   30  C   UNL     1     -14.052   2.658 -33.022  1.00  0.00     0.123 A 
ENDBRANCH  22  25
ENDBRANCH   4  19
TORSDOF 7
ENDMDL
MODEL 8
REMARK VINA RESULT:      -7.3      2.534      3.485
REMARK  7 active torsions:
REMARK  status: ('A' for Active; 'I' for Inactive)
REMARK    1  A    between atoms: O_1  and  C_2 
REMARK    2  A    between atoms: C_2  and  C_3 
REMARK    3  A    between atoms: C_3  and  C_4 
REMARK    4  A    between atoms: C_4  and  N_5 
REMARK    5  A    between atoms: C_4  and  C_21 
REMARK       I    between atoms: N_5  and  C_6 
REMARK       I    between atoms: C_6  and  N_8 
REMARK    6  A    between atoms: N_8  and  C_9 
REMARK    7  A    between atoms: C_12  and  C_15 
ROOT
HETATM    1  N   UNL     1      -7.229  -1.176 -33.670  1.00  0.00    -0.334 N 
HETATM    2  C   UNL     1      -8.000  -0.055 -33.905  1.00  0.00     0.321 C 
HETATM    3  O   UNL     1      -7.660   0.843 -34.663  1.00  0.00    -0.247 OA
HETATM    4  N   UNL     1      -9.201  -0.155 -33.234  1.00  0.00    -0.309 N 
HETATM    5  H   UNL     1      -7.303  -1.548 -32.736  1.00  0.00     0.165 HD
HETATM    6  H   UNL     1      -9.457  -1.093 -32.965  1.00  0.00     0.170 HD
ENDROOT
BRANCH   1   7
HETATM    7  C   UNL     1      -5.944  -1.351 -34.337  1.00  0.00     0.121 C 
BRANCH   7   8
HETATM    8  C   UNL     1      -5.884  -2.717 -35.037  1.00  0.00     0.056 C 
BRANCH   8   9
HETATM    9  C   UNL     1      -6.988  -3.650 -34.555  1.00  0.00     0.166 C 
BRANCH   9  10
HETATM   10  O   UNL     1      -6.867  -4.891 -35.239  1.00  0.00    -0.401 OA
HETATM   11  H   UNL     1      -6.467  -4.702 -36.105  1.00  0.00     0.209 HD
ENDBRANCH   9  10
ENDBRANCH   8   9
ENDBRANCH   7   8
BRANCH   7  12
HETATM   12  C   UNL     1      -4.794  -1.178 -33.357  1.00  0.00    -0.032 A 
HETATM   13  C   UNL     1      -4.407   0.114 -32.959  1.00  0.00     0.009 A 
HETATM   14  C   UNL     1      -3.339   0.305 -32.079  1.00  0.00     0.004 A 
HETATM   15  C   UNL     1      -2.648  -0.794 -31.574  1.00  0.00     0.042 A 
HETATM   16  C   UNL     1      -3.034  -2.073 -31.954  1.00  0.00     0.117 A 
HETATM   17  F   UNL     1      -2.376  -3.133 -31.466  1.00  0.00    -0.206 F 
HETATM   18  C   UNL     1      -4.093  -2.276 -32.836  1.00  0.00     0.051 A 
ENDBRANCH   7  12
ENDBRANCH   1   7
BRANCH   4  19
HETATM   19  C   UNL     1     -10.223   0.813 -33.200  1.00  0.00     0.036 A 
HETATM   20  C   UNL     1      -9.936   2.042 -32.601  1.00  0.00     0.030 A 
HETATM   21  C   UNL     1     -10.919   3.037 -32.508  1.00  0.00     0.014 A 
HETATM   22  C   UNL     1     -12.203   2.835 -33.032  1.00  0.00    -0.023 A 
HETATM   23  C   UNL     1     -12.466   1.613 -33.667  1.00  0.00     0.014 A 
HETATM   24  C   UNL     1     -11.488   0.611 -33.747  1.00  0.00     0.030 A 
BRANCH  22  25
HETATM   25  C   UNL     1     -13.221   3.871 -32.910  1.00  0.00     0.010 A 
HETATM   26  C   UNL     1     -14.245   4.057 -31.947  1.00  0.00     0.152 A 
HETATM   27  N   UNL     1     -15.006   5.128 -32.189  1.00  0.00    -0.187 NA
HETATM   28  N   UNL     1     -14.479   5.637 -33.312  1.00  0.00    -0.289 N 
HETATM   29  H   UNL     1     -14.898   6.472 -33.706  1.00  0.00     0.188 HD
HETATM   30  C   UNL     1     -13.414   4.924 -33.783  1.00  0.00     0.123 A 
ENDBRANCH  22  25
ENDBRANCH   4  19
TORSDOF 7
ENDMDL
MODEL 9
REMARK VINA RESULT:      -7.3      3.817      9.831
REMARK  7 active torsions:
REMARK  status: ('A' for Active; 'I' for Inactive)
REMARK    1  A    between atoms: O_1  and  C_2 
REMARK    2  A    between atoms: C_2  and  C_3 
REMARK    3  A    between atoms: C_3  and  C_4 
REMARK    4  A    between atoms: C_4  and  N_5 
REMARK    5  A    between atoms: C_4  and  C_21 
REMARK       I    between atoms: N_5  and  C_6 
REMARK       I    between atoms: C_6  and  N_8 
REMARK    6  A    between atoms: N_8  and  C_9 
REMARK    7  A    between atoms: C_12  and  C_15 
ROOT
HETATM    1  N   UNL     1     -10.815   2.351 -34.625  1.00  0.00    -0.334 N 
HETATM    2  C   UNL     1     -10.065   1.325 -34.085  1.00  0.00     0.321 C 
HETATM    3  O   UNL     1     -10.522   0.506 -33.299  1.00  0.00    -0.247 OA
HETATM    4  N   UNL     1      -8.794   1.331 -34.621  1.00  0.00    -0.309 N 
HETATM    5  H   UNL     1     -10.299   3.200 -34.799  1.00  0.00     0.165 HD
HETATM    6  H   UNL     1      -8.707   1.829 -35.493  1.00  0.00     0.170 HD
ENDROOT
BRANCH   1   7
HETATM    7  C   UNL     1     -12.223   2.507 -34.283  1.00  0.00     0.121 C 
BRANCH   7   8
HETATM    8  C   UNL     1     -13.088   1.552 -35.119  1.00  0.00     0.056 C 
BRANCH   8   9
HETATM    9  C   UNL     1     -14.131   0.839 -34.267  1.00  0.00     0.166 C 
BRANCH   9  10
HETATM   10  O   UNL     1     -13.540   0.490 -33.021  1.00  0.00    -0.401 OA
HETATM   11  H   UNL     1     -12.576   0.549 -33.136  1.00  0.00     0.209 HD
ENDBRANCH   9  10
ENDBRANCH   8   9
ENDBRANCH   7   8
BRANCH   7  12
HETATM   12  C   UNL     1     -12.668   3.951 -34.452  1.00  0.00    -0.032 A 
HETATM   13  C   UNL     1     -12.601   4.557 -35.719  1.00  0.00     0.009 A 
HETATM   14  C   UNL     1     -12.980   5.890 -35.900  1.00  0.00     0.004 A 
HETATM   15  C   UNL     1     -13.442   6.633 -34.817  1.00  0.00     0.042 A 
HETATM   16  C   UNL     1     -13.523   6.036 -33.566  1.00  0.00     0.117 A 
HETATM   17  F   UNL     1     -13.973   6.748 -32.523  1.00  0.00    -0.206 F 
HETATM   18  C   UNL     1     -13.142   4.711 -33.372  1.00  0.00     0.051 A 
ENDBRANCH   7  12
ENDBRANCH   1   7
BRANCH   4  19
HETATM   19  C   UNL     1      -7.739   0.464 -34.280  1.00  0.00     0.036 A 
HETATM   20  C   UNL     1      -7.566  -0.687 -35.055  1.00  0.00     0.030 A 
HETATM   21  C   UNL     1      -6.552  -1.606 -34.750  1.00  0.00     0.014 A 
HETATM   22  C   UNL     1      -5.674  -1.385 -33.681  1.00  0.00    -0.023 A 
HETATM   23  C   UNL     1      -5.833  -0.207 -32.937  1.00  0.00     0.014 A 
HETATM   24  C   UNL     1      -6.856   0.706 -33.231  1.00  0.00     0.030 A 
BRANCH  22  25
HETATM   25  C   UNL     1      -4.638  -2.359 -33.363  1.00  0.00     0.010 A 
HETATM   26  C   UNL     1      -4.330  -3.612 -33.951  1.00  0.00     0.152 A 
HETATM   27  N   UNL     1      -3.305  -4.233 -33.360  1.00  0.00    -0.187 NA
HETATM   28  N   UNL     1      -2.950  -3.386 -32.383  1.00  0.00    -0.289 N 
HETATM   29  H   UNL     1      -2.179  -3.644 -31.778  1.00  0.00     0.188 HD
HETATM   30  C   UNL     1      -3.714  -2.255 -32.342  1.00  0.00     0.123 A 
ENDBRANCH  22  25
ENDBRANCH   4  19
TORSDOF 7
ENDMDL
MODEL 10
REMARK VINA RESULT:      -7.2      9.015     12.894
REMARK  7 active torsions:
REMARK  status: ('A' for Active; 'I' for Inactive)
REMARK    1  A    between atoms: O_1  and  C_2 
REMARK    2  A    between atoms: C_2  and  C_3 
REMARK    3  A    between atoms: C_3  and  C_4 
REMARK    4  A    between atoms: C_4  and  N_5 
REMARK    5  A    between atoms: C_4  and  C_21 
REMARK       I    between atoms: N_5  and  C_6 
REMARK       I    between atoms: C_6  and  N_8 
REMARK    6  A    between atoms: N_8  and  C_9 
REMARK    7  A    between atoms: C_12  and  C_15 
ROOT
HETATM    1  N   UNL     1      -2.657   5.004 -31.415  1.00  0.00    -0.334 N 
HETATM    2  C   UNL     1      -1.517   5.432 -30.764  1.00  0.00     0.321 C 
HETATM    3  O   UNL     1      -0.397   5.029 -31.046  1.00  0.00    -0.247 OA
HETATM    4  N   UNL     1      -1.835   6.408 -29.842  1.00  0.00    -0.309 N 
HETATM    5  H   UNL     1      -3.481   4.959 -30.833  1.00  0.00     0.165 HD
HETATM    6  H   UNL     1      -2.721   6.862 -29.997  1.00  0.00     0.170 HD
ENDROOT
BRANCH   1   7
HETATM    7  C   UNL     1      -2.578   4.033 -32.500  1.00  0.00     0.121 C 
BRANCH   7   8
HETATM    8  C   UNL     1      -2.817   4.718 -33.853  1.00  0.00     0.056 C 
BRANCH   8   9
HETATM    9  C   UNL     1      -1.532   5.302 -34.427  1.00  0.00     0.166 C 
BRANCH   9  10
HETATM   10  O   UNL     1      -1.697   6.706 -34.582  1.00  0.00    -0.401 OA
HETATM   11  H   UNL     1      -2.608   6.917 -34.312  1.00  0.00     0.209 HD
ENDBRANCH   9  10
ENDBRANCH   8   9
ENDBRANCH   7   8
BRANCH   7  12
HETATM   12  C   UNL     1      -3.552   2.887 -32.278  1.00  0.00    -0.032 A 
HETATM   13  C   UNL     1      -4.808   2.908 -32.911  1.00  0.00     0.009 A 
HETATM   14  C   UNL     1      -5.733   1.881 -32.707  1.00  0.00     0.004 A 
HETATM   15  C   UNL     1      -5.413   0.812 -31.875  1.00  0.00     0.042 A 
HETATM   16  C   UNL     1      -4.169   0.779 -31.257  1.00  0.00     0.117 A 
HETATM   17  F   UNL     1      -3.855  -0.252 -30.461  1.00  0.00    -0.206 F 
HETATM   18  C   UNL     1      -3.241   1.800 -31.447  1.00  0.00     0.051 A 
ENDBRANCH   7  12
ENDBRANCH   1   7
BRANCH   4  19
HETATM   19  C   UNL     1      -0.942   7.049 -28.963  1.00  0.00     0.036 A 
HETATM   20  C   UNL     1      -1.354   7.240 -27.641  1.00  0.00     0.030 A 
HETATM   21  C   UNL     1      -0.524   7.898 -26.723  1.00  0.00     0.014 A 
HETATM   22  C   UNL     1       0.745   8.359 -27.098  1.00  0.00    -0.023 A 
HETATM   23  C   UNL     1       1.164   8.124 -28.416  1.00  0.00     0.014 A 
HETATM   24  C   UNL     1       0.328   7.480 -29.339  1.00  0.00     0.030 A 
BRANCH  22  25
HETATM   25  C   UNL     1       1.589   9.059 -26.138  1.00  0.00     0.010 A 
HETATM   26  C   UNL     1       2.580   8.575 -25.247  1.00  0.00     0.152 A 
HETATM   27  N   UNL     1       3.129   9.537 -24.499  1.00  0.00    -0.187 NA
HETATM   28  N   UNL     1       2.492  10.646 -24.901  1.00  0.00    -0.289 N 
HETATM   29  H   UNL     1       2.738  11.528 -24.466  1.00  0.00     0.188 HD
HETATM   30  C   UNL     1       1.564  10.415 -25.876  1.00  0.00     0.123 A 
ENDBRANCH  22  25
ENDBRANCH   4  19
TORSDOF 7
ENDMDL
