MODEL 1
REMARK VINA RESULT:      -8.5      0.000      0.000
REMARK  5 active torsions:
REMARK  status: ('A' for Active; 'I' for Inactive)
REMARK       I    between atoms: C_2  and  N_3 
REMARK    1  A    between atoms: C_2  and  C_11 
REMARK    2  A    between atoms: N_3  and  C_4 
REMARK    3  A    between atoms: C_4  and  C_5 
REMARK    4  A    between atoms: C_5  and  C_6 
REMARK    5  A    between atoms: C_17  and  C_21 
ROOT
HETATM    1  C   UNL     1      -7.072   2.057 -33.946  1.00  0.00     0.059 A 
HETATM    2  C   UNL     1      -8.325   1.811 -34.488  1.00  0.00     0.106 A 
HETATM    3  N   UNL     1      -8.408   0.483 -34.814  1.00  0.00    -0.364 N 
HETATM    4  H   UNL     1      -9.215   0.031 -35.221  1.00  0.00     0.165 HD
HETATM    5  C   UNL     1      -7.238  -0.161 -34.490  1.00  0.00     0.044 A 
HETATM    6  C   UNL     1      -6.885  -1.511 -34.631  1.00  0.00     0.042 A 
HETATM    7  C   UNL     1      -5.605  -1.915 -34.213  1.00  0.00    -0.021 A 
HETATM    8  C   UNL     1      -4.727  -0.970 -33.672  1.00  0.00     0.013 A 
HETATM    9  C   UNL     1      -5.099   0.376 -33.536  1.00  0.00     0.016 A 
HETATM   10  C   UNL     1      -6.380   0.796 -33.949  1.00  0.00     0.008 A 
ENDROOT
BRANCH   1  11
HETATM   11  C   UNL     1      -6.558   3.335 -33.445  1.00  0.00     0.253 C 
HETATM   12  O   UNL     1      -6.797   3.749 -32.314  1.00  0.00    -0.268 OA
HETATM   13  N   UNL     1      -5.771   4.039 -34.333  1.00  0.00    -0.356 N 
HETATM   14  H   UNL     1      -5.408   3.539 -35.133  1.00  0.00     0.162 HD
BRANCH  13  15
HETATM   15  C   UNL     1      -5.083   5.250 -33.930  1.00  0.00     0.128 C 
BRANCH  15  16
HETATM   16  C   UNL     1      -3.760   5.453 -34.670  1.00  0.00     0.066 C 
BRANCH  16  17
HETATM   17  C   UNL     1      -2.600   5.634 -33.729  1.00  0.00    -0.016 A 
HETATM   18  C   UNL     1      -1.987   4.680 -32.941  1.00  0.00     0.015 A 
HETATM   19  C   UNL     1      -0.911   5.218 -32.178  1.00  0.00     0.008 A 
HETATM   20  C   UNL     1      -0.741   6.565 -32.405  1.00  0.00     0.050 A 
HETATM   21  S   UNL     1      -1.874   7.174 -33.531  1.00  0.00    -0.107 SA
ENDBRANCH  16  17
ENDBRANCH  15  16
ENDBRANCH  13  15
ENDBRANCH   1  11
BRANCH   7  22
HETATM   22  C   UNL     1      -5.219  -3.311 -34.333  1.00  0.00     0.010 A 
HETATM   23  C   UNL     1      -5.875  -4.402 -34.951  1.00  0.00     0.152 A 
HETATM   24  N   UNL     1      -5.184  -5.542 -34.862  1.00  0.00    -0.187 NA
HETATM   25  N   UNL     1      -4.081  -5.185 -34.182  1.00  0.00    -0.289 N 
HETATM   26  H   UNL     1      -3.386  -5.897 -33.985  1.00  0.00     0.188 HD
HETATM   27  C   UNL     1      -4.052  -3.863 -33.846  1.00  0.00     0.123 A 
ENDBRANCH   7  22
TORSDOF 5
ENDMDL
MODEL 2
REMARK VINA RESULT:      -8.4      3.641      6.050
REMARK  5 active torsions:
REMARK  status: ('A' for Active; 'I' for Inactive)
REMARK       I    between atoms: C_2  and  N_3 
REMARK    1  A    between atoms: C_2  and  C_11 
REMARK    2  A    between atoms: N_3  and  C_4 
REMARK    3  A    between atoms: C_4  and  C_5 
REMARK    4  A    between atoms: C_5  and  C_6 
REMARK    5  A    between atoms: C_17  and  C_21 
ROOT
HETATM    1  C   UNL     1      -6.884   2.648 -33.257  1.00  0.00     0.059 A 
HETATM    2  C   UNL     1      -5.955   2.712 -32.228  1.00  0.00     0.106 A 
HETATM    3  N   UNL     1      -5.374   1.480 -32.084  1.00  0.00    -0.364 N 
HETATM    4  H   UNL     1      -4.658   1.248 -31.410  1.00  0.00     0.165 HD
HETATM    5  C   UNL     1      -5.890   0.600 -33.004  1.00  0.00     0.044 A 
HETATM    6  C   UNL     1      -5.582  -0.750 -33.228  1.00  0.00     0.042 A 
HETATM    7  C   UNL     1      -6.267  -1.431 -34.250  1.00  0.00    -0.021 A 
HETATM    8  C   UNL     1      -7.228  -0.752 -35.007  1.00  0.00     0.013 A 
HETATM    9  C   UNL     1      -7.520   0.599 -34.769  1.00  0.00     0.016 A 
HETATM   10  C   UNL     1      -6.840   1.297 -33.750  1.00  0.00     0.008 A 
ENDROOT
BRANCH   1  11
HETATM   11  C   UNL     1      -7.723   3.736 -33.763  1.00  0.00     0.253 C 
HETATM   12  O   UNL     1      -7.258   4.756 -34.264  1.00  0.00    -0.268 OA
HETATM   13  N   UNL     1      -9.083   3.529 -33.650  1.00  0.00    -0.356 N 
HETATM   14  H   UNL     1      -9.399   2.586 -33.472  1.00  0.00     0.162 HD
BRANCH  13  15
HETATM   15  C   UNL     1     -10.035   4.456 -34.231  1.00  0.00     0.128 C 
BRANCH  15  16
HETATM   16  C   UNL     1     -10.874   3.823 -35.343  1.00  0.00     0.066 C 
BRANCH  16  17
HETATM   17  C   UNL     1     -11.927   2.893 -34.805  1.00  0.00    -0.016 A 
HETATM   18  C   UNL     1     -12.303   1.658 -35.296  1.00  0.00     0.015 A 
HETATM   19  C   UNL     1     -13.337   1.059 -34.519  1.00  0.00     0.008 A 
HETATM   20  C   UNL     1     -13.717   1.856 -33.464  1.00  0.00     0.050 A 
HETATM   21  S   UNL     1     -12.833   3.319 -33.413  1.00  0.00    -0.107 SA
ENDBRANCH  16  17
ENDBRANCH  15  16
ENDBRANCH  13  15
ENDBRANCH   1  11
BRANCH   7  22
HETATM   22  C   UNL     1      -5.956  -2.826 -34.515  1.00  0.00     0.010 A 
HETATM   23  C   UNL     1      -6.772  -3.881 -34.988  1.00  0.00     0.152 A 
HETATM   24  N   UNL     1      -6.107  -5.033 -35.118  1.00  0.00    -0.187 NA
HETATM   25  N   UNL     1      -4.861  -4.719 -34.725  1.00  0.00    -0.289 N 
HETATM   26  H   UNL     1      -4.156  -5.449 -34.735  1.00  0.00     0.188 HD
HETATM   27  C   UNL     1      -4.718  -3.413 -34.358  1.00  0.00     0.123 A 
ENDBRANCH   7  22
TORSDOF 5
ENDMDL
MODEL 3
REMARK VINA RESULT:      -8.2     15.375     16.945
REMARK  5 active torsions:
REMARK  status: ('A' for Active; 'I' for Inactive)
REMARK       I    between atoms: C_2  and  N_3 
REMARK    1  A    between atoms: C_2  and  C_11 
REMARK    2  A    between atoms: N_3  and  C_4 
REMARK    3  A    between atoms: C_4  and  C_5 
REMARK    4  A    between atoms: C_5  and  C_6 
REMARK    5  A    between atoms: C_17  and  C_21 
ROOT
HETATM    1  C   UNL     1      -4.130 -12.804 -37.725  1.00  0.00     0.059 A 
HETATM    2  C   UNL     1      -4.517 -13.088 -36.423  1.00  0.00     0.106 A 
HETATM    3  N   UNL     1      -5.883 -13.182 -36.383  1.00  0.00    -0.364 N 
HETATM    4  H   UNL     1      -6.430 -13.388 -35.558  1.00  0.00     0.165 HD
HETATM    5  C   UNL     1      -6.412 -12.977 -37.634  1.00  0.00     0.044 A 
HETATM    6  C   UNL     1      -7.749 -12.994 -38.060  1.00  0.00     0.042 A 
HETATM    7  C   UNL     1      -8.021 -12.749 -39.417  1.00  0.00    -0.021 A 
HETATM    8  C   UNL     1      -6.963 -12.496 -40.298  1.00  0.00     0.013 A 
HETATM    9  C   UNL     1      -5.633 -12.486 -39.853  1.00  0.00     0.016 A 
HETATM   10  C   UNL     1      -5.344 -12.733 -38.496  1.00  0.00     0.008 A 
ENDROOT
BRANCH   1  11
HETATM   11  C   UNL     1      -2.765 -12.635 -38.228  1.00  0.00     0.253 C 
HETATM   12  O   UNL     1      -2.226 -11.536 -38.331  1.00  0.00    -0.268 OA
HETATM   13  N   UNL     1      -2.116 -13.805 -38.566  1.00  0.00    -0.356 N 
HETATM   14  H   UNL     1      -2.507 -14.672 -38.225  1.00  0.00     0.162 HD
BRANCH  13  15
HETATM   15  C   UNL     1      -0.717 -13.804 -38.948  1.00  0.00     0.128 C 
BRANCH  15  16
HETATM   16  C   UNL     1      -0.517 -13.858 -40.464  1.00  0.00     0.066 C 
BRANCH  16  17
HETATM   17  C   UNL     1      -1.530 -14.738 -41.143  1.00  0.00    -0.016 A 
HETATM   18  C   UNL     1      -2.695 -14.360 -41.781  1.00  0.00     0.015 A 
HETATM   19  C   UNL     1      -3.405 -15.473 -42.316  1.00  0.00     0.008 A 
HETATM   20  C   UNL     1      -2.762 -16.664 -42.065  1.00  0.00     0.050 A 
HETATM   21  S   UNL     1      -1.311 -16.438 -41.189  1.00  0.00    -0.107 SA
ENDBRANCH  16  17
ENDBRANCH  15  16
ENDBRANCH  13  15
ENDBRANCH   1  11
BRANCH   7  22
HETATM   22  C   UNL     1      -9.395 -12.777 -39.889  1.00  0.00     0.010 A 
HETATM   23  C   UNL     1     -10.319 -13.844 -39.982  1.00  0.00     0.152 A 
HETATM   24  N   UNL     1     -11.508 -13.462 -40.459  1.00  0.00    -0.187 NA
HETATM   25  N   UNL     1     -11.347 -12.146 -40.677  1.00  0.00    -0.289 N 
HETATM   26  H   UNL     1     -12.132 -11.621 -41.049  1.00  0.00     0.188 HD
HETATM   27  C   UNL     1     -10.105 -11.687 -40.350  1.00  0.00     0.123 A 
ENDBRANCH   7  22
TORSDOF 5
ENDMDL
MODEL 4
REMARK VINA RESULT:      -8.0     15.261     16.705
REMARK  5 active torsions:
REMARK  status: ('A' for Active; 'I' for Inactive)
REMARK       I    between atoms: C_2  and  N_3 
REMARK    1  A    between atoms: C_2  and  C_11 
REMARK    2  A    between atoms: N_3  and  C_4 
REMARK    3  A    between atoms: C_4  and  C_5 
REMARK    4  A    between atoms: C_5  and  C_6 
REMARK    5  A    between atoms: C_17  and  C_21 
ROOT
HETATM    1  C   UNL     1      -4.095 -12.634 -38.081  1.00  0.00     0.059 A 
HETATM    2  C   UNL     1      -4.408 -12.963 -36.769  1.00  0.00     0.106 A 
HETATM    3  N   UNL     1      -5.767 -13.103 -36.665  1.00  0.00    -0.364 N 
HETATM    4  H   UNL     1      -6.265 -13.346 -35.821  1.00  0.00     0.165 HD
HETATM    5  C   UNL     1      -6.363 -12.883 -37.884  1.00  0.00     0.044 A 
HETATM    6  C   UNL     1      -7.718 -12.934 -38.244  1.00  0.00     0.042 A 
HETATM    7  C   UNL     1      -8.064 -12.664 -39.580  1.00  0.00    -0.021 A 
HETATM    8  C   UNL     1      -7.060 -12.356 -40.504  1.00  0.00     0.013 A 
HETATM    9  C   UNL     1      -5.710 -12.313 -40.124  1.00  0.00     0.016 A 
HETATM   10  C   UNL     1      -5.347 -12.584 -38.789  1.00  0.00     0.008 A 
ENDROOT
BRANCH   1  11
HETATM   11  C   UNL     1      -2.762 -12.409 -38.644  1.00  0.00     0.253 C 
HETATM   12  O   UNL     1      -2.028 -11.499 -38.269  1.00  0.00    -0.268 OA
HETATM   13  N   UNL     1      -2.380 -13.303 -39.623  1.00  0.00    -0.356 N 
HETATM   14  H   UNL     1      -2.908 -14.161 -39.704  1.00  0.00     0.162 HD
BRANCH  13  15
HETATM   15  C   UNL     1      -1.039 -13.287 -40.173  1.00  0.00     0.128 C 
BRANCH  15  16
HETATM   16  C   UNL     1      -0.478 -14.691 -40.405  1.00  0.00     0.066 C 
BRANCH  16  17
HETATM   17  C   UNL     1       0.270 -15.213 -39.208  1.00  0.00    -0.016 A 
HETATM   18  C   UNL     1       1.601 -15.029 -38.890  1.00  0.00     0.015 A 
HETATM   19  C   UNL     1       1.958 -15.670 -37.668  1.00  0.00     0.008 A 
HETATM   20  C   UNL     1       0.890 -16.324 -37.097  1.00  0.00     0.050 A 
HETATM   21  S   UNL     1      -0.533 -16.166 -38.032  1.00  0.00    -0.107 SA
ENDBRANCH  16  17
ENDBRANCH  15  16
ENDBRANCH  13  15
ENDBRANCH   1  11
BRANCH   7  22
HETATM   22  C   UNL     1      -9.459 -12.725 -39.985  1.00  0.00     0.010 A 
HETATM   23  C   UNL     1     -10.348 -13.821 -40.076  1.00  0.00     0.152 A 
HETATM   24  N   UNL     1     -11.571 -13.466 -40.480  1.00  0.00    -0.187 NA
HETATM   25  N   UNL     1     -11.469 -12.138 -40.651  1.00  0.00    -0.289 N 
HETATM   26  H   UNL     1     -12.290 -11.628 -40.962  1.00  0.00     0.188 HD
HETATM   27  C   UNL     1     -10.229 -11.645 -40.366  1.00  0.00     0.123 A 
ENDBRANCH   7  22
TORSDOF 5
ENDMDL
MODEL 5
REMARK VINA RESULT:      -7.9      1.816      2.461
REMARK  5 active torsions:
REMARK  status: ('A' for Active; 'I' for Inactive)
REMARK       I    between atoms: C_2  and  N_3 
REMARK    1  A    between atoms: C_2  and  C_11 
REMARK    2  A    between atoms: N_3  and  C_4 
REMARK    3  A    between atoms: C_4  and  C_5 
REMARK    4  A    between atoms: C_5  and  C_6 
REMARK    5  A    between atoms: C_17  and  C_21 
ROOT
HETATM    1  C   UNL     1      -4.664   2.014 -32.291  1.00  0.00     0.059 A 
HETATM    2  C   UNL     1      -3.579   1.790 -31.456  1.00  0.00     0.106 A 
HETATM    3  N   UNL     1      -3.231   0.468 -31.533  1.00  0.00    -0.364 N 
HETATM    4  H   UNL     1      -2.469   0.035 -31.031  1.00  0.00     0.165 HD
HETATM    5  C   UNL     1      -4.056  -0.191 -32.412  1.00  0.00     0.044 A 
HETATM    6  C   UNL     1      -4.057  -1.537 -32.809  1.00  0.00     0.042 A 
HETATM    7  C   UNL     1      -5.024  -1.959 -33.738  1.00  0.00    -0.021 A 
HETATM    8  C   UNL     1      -5.950  -1.036 -34.236  1.00  0.00     0.013 A 
HETATM    9  C   UNL     1      -5.932   0.306 -33.829  1.00  0.00     0.016 A 
HETATM   10  C   UNL     1      -4.966   0.745 -32.901  1.00  0.00     0.008 A 
ENDROOT
BRANCH   1  11
HETATM   11  C   UNL     1      -5.352   3.284 -32.532  1.00  0.00     0.253 C 
HETATM   12  O   UNL     1      -6.524   3.474 -32.219  1.00  0.00    -0.268 OA
HETATM   13  N   UNL     1      -4.583   4.265 -33.125  1.00  0.00    -0.356 N 
HETATM   14  H   UNL     1      -3.580   4.137 -33.122  1.00  0.00     0.162 HD
BRANCH  13  15
HETATM   15  C   UNL     1      -5.087   5.613 -33.298  1.00  0.00     0.128 C 
BRANCH  15  16
HETATM   16  C   UNL     1      -4.520   6.593 -32.270  1.00  0.00     0.066 C 
BRANCH  16  17
HETATM   17  C   UNL     1      -3.029   6.752 -32.393  1.00  0.00    -0.016 A 
HETATM   18  C   UNL     1      -2.293   7.017 -33.531  1.00  0.00     0.015 A 
HETATM   19  C   UNL     1      -0.896   7.106 -33.263  1.00  0.00     0.008 A 
HETATM   20  C   UNL     1      -0.613   6.901 -31.931  1.00  0.00     0.050 A 
HETATM   21  S   UNL     1      -2.023   6.603 -31.013  1.00  0.00    -0.107 SA
ENDBRANCH  16  17
ENDBRANCH  15  16
ENDBRANCH  13  15
ENDBRANCH   1  11
BRANCH   7  22
HETATM   22  C   UNL     1      -5.038  -3.344 -34.179  1.00  0.00     0.010 A 
HETATM   23  C   UNL     1      -5.993  -4.064 -34.934  1.00  0.00     0.152 A 
HETATM   24  N   UNL     1      -5.634  -5.333 -35.150  1.00  0.00    -0.187 NA
HETATM   25  N   UNL     1      -4.446  -5.431 -34.531  1.00  0.00    -0.289 N 
HETATM   26  H   UNL     1      -3.963  -6.322 -34.556  1.00  0.00     0.188 HD
HETATM   27  C   UNL     1      -4.043  -4.270 -33.938  1.00  0.00     0.123 A 
ENDBRANCH   7  22
TORSDOF 5
ENDMDL
MODEL 6
REMARK VINA RESULT:      -7.9      1.741      2.186
REMARK  5 active torsions:
REMARK  status: ('A' for Active; 'I' for Inactive)
REMARK       I    between atoms: C_2  and  N_3 
REMARK    1  A    between atoms: C_2  and  C_11 
REMARK    2  A    between atoms: N_3  and  C_4 
REMARK    3  A    between atoms: C_4  and  C_5 
REMARK    4  A    between atoms: C_5  and  C_6 
REMARK    5  A    between atoms: C_17  and  C_21 
ROOT
HETATM    1  C   UNL     1      -5.401   2.105 -32.593  1.00  0.00     0.059 A 
HETATM    2  C   UNL     1      -6.721   2.319 -32.964  1.00  0.00     0.106 A 
HETATM    3  N   UNL     1      -7.210   1.168 -33.523  1.00  0.00    -0.364 N 
HETATM    4  H   UNL     1      -8.150   1.045 -33.875  1.00  0.00     0.165 HD
HETATM    5  C   UNL     1      -6.246   0.190 -33.522  1.00  0.00     0.044 A 
HETATM    6  C   UNL     1      -6.308  -1.135 -33.978  1.00  0.00     0.042 A 
HETATM    7  C   UNL     1      -5.160  -1.938 -33.856  1.00  0.00    -0.021 A 
HETATM    8  C   UNL     1      -3.999  -1.400 -33.292  1.00  0.00     0.013 A 
HETATM    9  C   UNL     1      -3.957  -0.073 -32.840  1.00  0.00     0.016 A 
HETATM   10  C   UNL     1      -5.101   0.744 -32.952  1.00  0.00     0.008 A 
ENDROOT
BRANCH   1  11
HETATM   11  C   UNL     1      -4.497   3.057 -31.943  1.00  0.00     0.253 C 
HETATM   12  O   UNL     1      -4.720   3.533 -30.834  1.00  0.00    -0.268 OA
HETATM   13  N   UNL     1      -3.363   3.374 -32.663  1.00  0.00    -0.356 N 
HETATM   14  H   UNL     1      -3.114   2.769 -33.434  1.00  0.00     0.162 HD
BRANCH  13  15
HETATM   15  C   UNL     1      -2.314   4.194 -32.090  1.00  0.00     0.128 C 
BRANCH  15  16
HETATM   16  C   UNL     1      -1.962   5.400 -32.963  1.00  0.00     0.066 C 
BRANCH  16  17
HETATM   17  C   UNL     1      -2.342   6.704 -32.317  1.00  0.00    -0.016 A 
HETATM   18  C   UNL     1      -1.539   7.803 -32.080  1.00  0.00     0.015 A 
HETATM   19  C   UNL     1      -2.248   8.866 -31.450  1.00  0.00     0.008 A 
HETATM   20  C   UNL     1      -3.567   8.543 -31.223  1.00  0.00     0.050 A 
HETATM   21  S   UNL     1      -3.944   6.966 -31.766  1.00  0.00    -0.107 SA
ENDBRANCH  16  17
ENDBRANCH  15  16
ENDBRANCH  13  15
ENDBRANCH   1  11
BRANCH   7  22
HETATM   22  C   UNL     1      -5.202  -3.320 -34.306  1.00  0.00     0.010 A 
HETATM   23  C   UNL     1      -6.160  -4.011 -35.085  1.00  0.00     0.152 A 
HETATM   24  N   UNL     1      -5.830  -5.287 -35.301  1.00  0.00    -0.187 NA
HETATM   25  N   UNL     1      -4.659  -5.420 -34.657  1.00  0.00    -0.289 N 
HETATM   26  H   UNL     1      -4.199  -6.325 -34.677  1.00  0.00     0.188 HD
HETATM   27  C   UNL     1      -4.238  -4.274 -34.049  1.00  0.00     0.123 A 
ENDBRANCH   7  22
TORSDOF 5
ENDMDL
MODEL 7
REMARK VINA RESULT:      -7.8      3.019      4.865
REMARK  5 active torsions:
REMARK  status: ('A' for Active; 'I' for Inactive)
REMARK       I    between atoms: C_2  and  N_3 
REMARK    1  A    between atoms: C_2  and  C_11 
REMARK    2  A    between atoms: N_3  and  C_4 
REMARK    3  A    between atoms: C_4  and  C_5 
REMARK    4  A    between atoms: C_5  and  C_6 
REMARK    5  A    between atoms: C_17  and  C_21 
ROOT
HETATM    1  C   UNL     1      -4.575   2.011 -32.186  1.00  0.00     0.059 A 
HETATM    2  C   UNL     1      -3.412   1.634 -31.531  1.00  0.00     0.106 A 
HETATM    3  N   UNL     1      -3.198   0.299 -31.751  1.00  0.00    -0.364 N 
HETATM    4  H   UNL     1      -2.417  -0.234 -31.394  1.00  0.00     0.165 HD
HETATM    5  C   UNL     1      -4.191  -0.217 -32.548  1.00  0.00     0.044 A 
HETATM    6  C   UNL     1      -4.367  -1.521 -33.035  1.00  0.00     0.042 A 
HETATM    7  C   UNL     1      -5.485  -1.786 -33.845  1.00  0.00    -0.021 A 
HETATM    8  C   UNL     1      -6.384  -0.755 -34.140  1.00  0.00     0.013 A 
HETATM    9  C   UNL     1      -6.188   0.543 -33.645  1.00  0.00     0.016 A 
HETATM   10  C   UNL     1      -5.070   0.826 -32.834  1.00  0.00     0.008 A 
ENDROOT
BRANCH   1  11
HETATM   11  C   UNL     1      -5.171   3.348 -32.235  1.00  0.00     0.253 C 
HETATM   12  O   UNL     1      -4.712   4.255 -32.924  1.00  0.00    -0.268 OA
HETATM   13  N   UNL     1      -6.300   3.516 -31.459  1.00  0.00    -0.356 N 
HETATM   14  H   UNL     1      -6.766   2.683 -31.126  1.00  0.00     0.162 HD
BRANCH  13  15
HETATM   15  C   UNL     1      -7.074   4.741 -31.513  1.00  0.00     0.128 C 
BRANCH  15  16
HETATM   16  C   UNL     1      -8.580   4.494 -31.406  1.00  0.00     0.066 C 
BRANCH  16  17
HETATM   17  C   UNL     1      -9.023   3.303 -32.211  1.00  0.00    -0.016 A 
HETATM   18  C   UNL     1      -9.369   2.047 -31.752  1.00  0.00     0.015 A 
HETATM   19  C   UNL     1      -9.745   1.170 -32.810  1.00  0.00     0.008 A 
HETATM   20  C   UNL     1      -9.669   1.783 -34.040  1.00  0.00     0.050 A 
HETATM   21  S   UNL     1      -9.147   3.406 -33.917  1.00  0.00    -0.107 SA
ENDBRANCH  16  17
ENDBRANCH  15  16
ENDBRANCH  13  15
ENDBRANCH   1  11
BRANCH   7  22
HETATM   22  C   UNL     1      -5.684  -3.125 -34.376  1.00  0.00     0.010 A 
HETATM   23  C   UNL     1      -4.819  -4.243 -34.410  1.00  0.00     0.152 A 
HETATM   24  N   UNL     1      -5.379  -5.316 -34.978  1.00  0.00    -0.187 NA
HETATM   25  N   UNL     1      -6.606  -4.885 -35.313  1.00  0.00    -0.289 N 
HETATM   26  H   UNL     1      -7.236  -5.537 -35.770  1.00  0.00     0.188 HD
HETATM   27  C   UNL     1      -6.840  -3.585 -34.973  1.00  0.00     0.123 A 
ENDBRANCH   7  22
TORSDOF 5
ENDMDL
MODEL 8
REMARK VINA RESULT:      -7.7      2.311      3.831
REMARK  5 active torsions:
REMARK  status: ('A' for Active; 'I' for Inactive)
REMARK       I    between atoms: C_2  and  N_3 
REMARK    1  A    between atoms: C_2  and  C_11 
REMARK    2  A    between atoms: N_3  and  C_4 
REMARK    3  A    between atoms: C_4  and  C_5 
REMARK    4  A    between atoms: C_5  and  C_6 
REMARK    5  A    between atoms: C_17  and  C_21 
ROOT
HETATM    1  C   UNL     1      -3.569   1.379 -31.685  1.00  0.00     0.059 A 
HETATM    2  C   UNL     1      -2.646   0.679 -30.921  1.00  0.00     0.106 A 
HETATM    3  N   UNL     1      -2.755  -0.654 -31.215  1.00  0.00    -0.364 N 
HETATM    4  H   UNL     1      -2.196  -1.390 -30.806  1.00  0.00     0.165 HD
HETATM    5  C   UNL     1      -3.725  -0.854 -32.168  1.00  0.00     0.044 A 
HETATM    6  C   UNL     1      -4.161  -2.042 -32.772  1.00  0.00     0.042 A 
HETATM    7  C   UNL     1      -5.185  -1.967 -33.732  1.00  0.00    -0.021 A 
HETATM    8  C   UNL     1      -5.736  -0.722 -34.056  1.00  0.00     0.013 A 
HETATM    9  C   UNL     1      -5.285   0.456 -33.443  1.00  0.00     0.016 A 
HETATM   10  C   UNL     1      -4.257   0.397 -32.479  1.00  0.00     0.008 A 
ENDROOT
BRANCH   1  11
HETATM   11  C   UNL     1      -3.787   2.828 -31.704  1.00  0.00     0.253 C 
HETATM   12  O   UNL     1      -4.497   3.403 -30.884  1.00  0.00    -0.268 OA
HETATM   13  N   UNL     1      -3.125   3.507 -32.706  1.00  0.00    -0.356 N 
HETATM   14  H   UNL     1      -2.371   3.026 -33.178  1.00  0.00     0.162 HD
BRANCH  13  15
HETATM   15  C   UNL     1      -3.137   4.956 -32.766  1.00  0.00     0.128 C 
BRANCH  15  16
HETATM   16  C   UNL     1      -4.035   5.494 -33.882  1.00  0.00     0.066 C 
BRANCH  16  17
HETATM   17  C   UNL     1      -5.497   5.332 -33.567  1.00  0.00    -0.016 A 
HETATM   18  C   UNL     1      -6.366   4.366 -34.035  1.00  0.00     0.015 A 
HETATM   19  C   UNL     1      -7.683   4.525 -33.513  1.00  0.00     0.008 A 
HETATM   20  C   UNL     1      -7.776   5.608 -32.668  1.00  0.00     0.050 A 
HETATM   21  S   UNL     1      -6.284   6.427 -32.508  1.00  0.00    -0.107 SA
ENDBRANCH  16  17
ENDBRANCH  15  16
ENDBRANCH  13  15
ENDBRANCH   1  11
BRANCH   7  22
HETATM   22  C   UNL     1      -5.645  -3.181 -34.386  1.00  0.00     0.010 A 
HETATM   23  C   UNL     1      -4.997  -4.420 -34.597  1.00  0.00     0.152 A 
HETATM   24  N   UNL     1      -5.766  -5.307 -35.234  1.00  0.00    -0.187 NA
HETATM   25  N   UNL     1      -6.912  -4.637 -35.436  1.00  0.00    -0.289 N 
HETATM   26  H   UNL     1      -7.670  -5.113 -35.915  1.00  0.00     0.188 HD
HETATM   27  C   UNL     1      -6.893  -3.363 -34.946  1.00  0.00     0.123 A 
ENDBRANCH   7  22
TORSDOF 5
ENDMDL
MODEL 9
REMARK VINA RESULT:      -7.7      3.563      5.495
REMARK  5 active torsions:
REMARK  status: ('A' for Active; 'I' for Inactive)
REMARK       I    between atoms: C_2  and  N_3 
REMARK    1  A    between atoms: C_2  and  C_11 
REMARK    2  A    between atoms: N_3  and  C_4 
REMARK    3  A    between atoms: C_4  and  C_5 
REMARK    4  A    between atoms: C_5  and  C_6 
REMARK    5  A    between atoms: C_17  and  C_21 
ROOT
HETATM    1  C   UNL     1      -5.933   2.404 -33.270  1.00  0.00     0.059 A 
HETATM    2  C   UNL     1      -4.809   2.445 -32.457  1.00  0.00     0.106 A 
HETATM    3  N   UNL     1      -4.268   1.188 -32.392  1.00  0.00    -0.364 N 
HETATM    4  H   UNL     1      -3.439   0.936 -31.872  1.00  0.00     0.165 HD
HETATM    5  C   UNL     1      -5.003   0.314 -33.155  1.00  0.00     0.044 A 
HETATM    6  C   UNL     1      -4.811  -1.055 -33.391  1.00  0.00     0.042 A 
HETATM    7  C   UNL     1      -5.723  -1.725 -34.225  1.00  0.00    -0.021 A 
HETATM    8  C   UNL     1      -6.787  -1.015 -34.792  1.00  0.00     0.013 A 
HETATM    9  C   UNL     1      -6.961   0.355 -34.547  1.00  0.00     0.016 A 
HETATM   10  C   UNL     1      -6.053   1.040 -33.714  1.00  0.00     0.008 A 
ENDROOT
BRANCH   1  11
HETATM   11  C   UNL     1      -6.808   3.522 -33.631  1.00  0.00     0.253 C 
HETATM   12  O   UNL     1      -6.443   4.445 -34.353  1.00  0.00    -0.268 OA
HETATM   13  N   UNL     1      -8.085   3.458 -33.111  1.00  0.00    -0.356 N 
HETATM   14  H   UNL     1      -8.397   2.569 -32.747  1.00  0.00     0.162 HD
BRANCH  13  15
HETATM   15  C   UNL     1      -9.100   4.420 -33.492  1.00  0.00     0.128 C 
BRANCH  15  16
HETATM   16  C   UNL     1     -10.001   3.914 -34.620  1.00  0.00     0.066 C 
BRANCH  16  17
HETATM   17  C   UNL     1     -11.008   4.944 -35.054  1.00  0.00    -0.016 A 
HETATM   18  C   UNL     1     -10.800   6.287 -35.298  1.00  0.00     0.015 A 
HETATM   19  C   UNL     1     -11.993   6.955 -35.700  1.00  0.00     0.008 A 
HETATM   20  C   UNL     1     -13.072   6.101 -35.745  1.00  0.00     0.050 A 
HETATM   21  S   UNL     1     -12.646   4.506 -35.304  1.00  0.00    -0.107 SA
ENDBRANCH  16  17
ENDBRANCH  15  16
ENDBRANCH  13  15
ENDBRANCH   1  11
BRANCH   7  22
HETATM   22  C   UNL     1      -5.538  -3.140 -34.500  1.00  0.00     0.010 A 
HETATM   23  C   UNL     1      -6.372  -4.070 -35.163  1.00  0.00     0.152 A 
HETATM   24  N   UNL     1      -5.838  -5.293 -35.229  1.00  0.00    -0.187 NA
HETATM   25  N   UNL     1      -4.658  -5.151 -34.604  1.00  0.00    -0.289 N 
HETATM   26  H   UNL     1      -4.055  -5.963 -34.525  1.00  0.00     0.188 HD
HETATM   27  C   UNL     1      -4.428  -3.884 -34.153  1.00  0.00     0.123 A 
ENDBRANCH   7  22
TORSDOF 5
ENDMDL
MODEL 10
REMARK VINA RESULT:      -7.1      3.093      3.860
REMARK  5 active torsions:
REMARK  status: ('A' for Active; 'I' for Inactive)
REMARK       I    between atoms: C_2  and  N_3 
REMARK    1  A    between atoms: C_2  and  C_11 
REMARK    2  A    between atoms: N_3  and  C_4 
REMARK    3  A    between atoms: C_4  and  C_5 
REMARK    4  A    between atoms: C_5  and  C_6 
REMARK    5  A    between atoms: C_17  and  C_21 
ROOT
HETATM    1  C   UNL     1      -4.498   1.930 -32.163  1.00  0.00     0.059 A 
HETATM    2  C   UNL     1      -3.438   1.660 -31.309  1.00  0.00     0.106 A 
HETATM    3  N   UNL     1      -3.127   0.329 -31.404  1.00  0.00    -0.364 N 
HETATM    4  H   UNL     1      -2.388  -0.134 -30.894  1.00  0.00     0.165 HD
HETATM    5  C   UNL     1      -3.952  -0.289 -32.312  1.00  0.00     0.044 A 
HETATM    6  C   UNL     1      -3.984  -1.627 -32.733  1.00  0.00     0.042 A 
HETATM    7  C   UNL     1      -4.943  -2.004 -33.689  1.00  0.00    -0.021 A 
HETATM    8  C   UNL     1      -5.832  -1.046 -34.189  1.00  0.00     0.013 A 
HETATM    9  C   UNL     1      -5.782   0.288 -33.757  1.00  0.00     0.016 A 
HETATM   10  C   UNL     1      -4.824   0.682 -32.801  1.00  0.00     0.008 A 
ENDROOT
BRANCH   1  11
HETATM   11  C   UNL     1      -5.144   3.225 -32.394  1.00  0.00     0.253 C 
HETATM   12  O   UNL     1      -4.564   4.171 -32.918  1.00  0.00    -0.268 OA
HETATM   13  N   UNL     1      -6.461   3.303 -31.990  1.00  0.00    -0.356 N 
HETATM   14  H   UNL     1      -6.946   2.436 -31.807  1.00  0.00     0.162 HD
BRANCH  13  15
HETATM   15  C   UNL     1      -7.266   4.474 -32.278  1.00  0.00     0.128 C 
BRANCH  15  16
HETATM   16  C   UNL     1      -7.927   5.060 -31.028  1.00  0.00     0.066 C 
BRANCH  16  17
HETATM   17  C   UNL     1      -6.924   5.656 -30.078  1.00  0.00    -0.016 A 
HETATM   18  C   UNL     1      -5.820   6.428 -30.381  1.00  0.00     0.015 A 
HETATM   19  C   UNL     1      -5.100   6.822 -29.216  1.00  0.00     0.008 A 
HETATM   20  C   UNL     1      -5.676   6.335 -28.064  1.00  0.00     0.050 A 
HETATM   21  S   UNL     1      -7.074   5.407 -28.389  1.00  0.00    -0.107 SA
ENDBRANCH  16  17
ENDBRANCH  15  16
ENDBRANCH  13  15
ENDBRANCH   1  11
BRANCH   7  22
HETATM   22  C   UNL     1      -4.988  -3.380 -34.155  1.00  0.00     0.010 A 
HETATM   23  C   UNL     1      -5.959  -4.065 -34.922  1.00  0.00     0.152 A 
HETATM   24  N   UNL     1      -5.629  -5.337 -35.162  1.00  0.00    -0.187 NA
HETATM   25  N   UNL     1      -4.443  -5.472 -34.546  1.00  0.00    -0.289 N 
HETATM   26  H   UNL     1      -3.980  -6.374 -34.588  1.00  0.00     0.188 HD
HETATM   27  C   UNL     1      -4.014  -4.332 -33.932  1.00  0.00     0.123 A 
ENDBRANCH   7  22
TORSDOF 5
ENDMDL
