MODEL 1
REMARK VINA RESULT:     -10.8      0.000      0.000
REMARK  6 active torsions:
REMARK  status: ('A' for Active; 'I' for Inactive)
REMARK    1  A    between atoms: C_7  and  C_8 
REMARK    2  A    between atoms: C_8  and  C_9 
REMARK    3  A    between atoms: C_9  and  N_10 
REMARK    4  A    between atoms: C_12  and  C_13 
REMARK    5  A    between atoms: C_13  and  N_14 
REMARK    6  A    between atoms: C_36  and  O_37 
ROOT
HETATM    1  N   UNL     1      -7.844   1.057 -32.290  1.00  0.00    -0.054 N 
HETATM    2  H   UNL     1      -8.425   1.204 -31.431  1.00  0.00     0.281 HD
HETATM    3  C   UNL     1      -7.916   2.408 -33.032  1.00  0.00     0.240 C 
HETATM    4  C   UNL     1      -9.260   2.665 -33.718  1.00  0.00    -0.020 A 
HETATM    5  C   UNL     1     -10.230   1.648 -33.834  1.00  0.00    -0.048 A 
HETATM    6  C   UNL     1     -10.002   0.279 -33.254  1.00  0.00     0.067 C 
HETATM    7  C   UNL     1      -8.525  -0.033 -33.076  1.00  0.00     0.241 C 
HETATM    8  C   UNL     1      -9.546   3.916 -34.299  1.00  0.00     0.010 A 
HETATM    9  C   UNL     1     -10.773   4.164 -34.918  1.00  0.00     0.001 A 
HETATM   10  C   UNL     1     -11.735   3.166 -34.986  1.00  0.00     0.001 A 
HETATM   11  C   UNL     1     -11.465   1.912 -34.449  1.00  0.00     0.008 A 
ENDROOT
BRANCH   1  12
HETATM   12  C   UNL     1      -6.440   0.610 -31.812  1.00  0.00     0.319 C 
BRANCH  12  13
HETATM   13  C   UNL     1      -5.546   0.076 -32.928  1.00  0.00     0.188 C 
HETATM   14  O   UNL     1      -5.680   0.544 -34.062  1.00  0.00    -0.290 OA
BRANCH  13  15
HETATM   15  C   UNL     1      -4.559  -0.970 -32.660  1.00  0.00     0.046 A 
HETATM   16  C   UNL     1      -3.499  -0.800 -31.772  1.00  0.00     0.020 A 
HETATM   17  C   UNL     1      -3.071   0.378 -30.965  1.00  0.00     0.069 C 
HETATM   18  N   UNL     1      -2.810  -1.982 -31.699  1.00  0.00    -0.358 N 
HETATM   19  H   UNL     1      -2.003  -2.154 -31.113  1.00  0.00     0.166 HD
HETATM   20  C   UNL     1      -3.383  -2.919 -32.522  1.00  0.00     0.043 A 
HETATM   21  C   UNL     1      -4.465  -2.314 -33.164  1.00  0.00     0.009 A 
HETATM   22  C   UNL     1      -3.017  -4.254 -32.728  1.00  0.00     0.033 A 
HETATM   23  C   UNL     1      -5.200  -3.111 -34.072  1.00  0.00     0.051 A 
HETATM   24  C   UNL     1      -4.851  -4.452 -34.298  1.00  0.00     0.069 A 
HETATM   25  C   UNL     1      -3.772  -5.013 -33.625  1.00  0.00     0.039 A 
BRANCH  24  26
HETATM   26  O   UNL     1      -5.660  -5.092 -35.199  1.00  0.00    -0.356 OA
HETATM   27  C   UNL     1      -6.920  -4.486 -35.473  1.00  0.00     0.210 C 
ENDBRANCH  24  26
ENDBRANCH  13  15
ENDBRANCH  12  13
ENDBRANCH   1  12
BRANCH   3  28
HETATM   28  C   UNL     1      -7.448   3.586 -32.125  1.00  0.00     0.173 C 
BRANCH  28  29
HETATM   29  N   UNL     1      -6.082   4.078 -32.248  1.00  0.00    -0.278 N 
HETATM   30  C   UNL     1      -5.032   3.839 -31.403  1.00  0.00     0.261 A 
HETATM   31  O   UNL     1      -5.051   3.251 -30.335  1.00  0.00    -0.267 OA
HETATM   32  C   UNL     1      -3.821   4.305 -32.074  1.00  0.00     0.048 A 
HETATM   33  C   UNL     1      -4.187   4.731 -33.337  1.00  0.00     0.048 A 
HETATM   34  C   UNL     1      -2.504   4.287 -31.660  1.00  0.00     0.018 A 
HETATM   35  C   UNL     1      -5.631   4.550 -33.457  1.00  0.00     0.261 A 
HETATM   36  C   UNL     1      -3.258   5.164 -34.262  1.00  0.00     0.018 A 
HETATM   37  O   UNL     1      -6.274   4.730 -34.472  1.00  0.00    -0.267 OA
HETATM   38  C   UNL     1      -1.917   5.162 -33.867  1.00  0.00     0.001 A 
HETATM   39  C   UNL     1      -1.543   4.729 -32.577  1.00  0.00     0.001 A 
ENDBRANCH  28  29
ENDBRANCH   3  28
TORSDOF 6
ENDMDL
MODEL 2
REMARK VINA RESULT:     -10.7      2.571      6.102
REMARK  6 active torsions:
REMARK  status: ('A' for Active; 'I' for Inactive)
REMARK    1  A    between atoms: C_7  and  C_8 
REMARK    2  A    between atoms: C_8  and  C_9 
REMARK    3  A    between atoms: C_9  and  N_10 
REMARK    4  A    between atoms: C_12  and  C_13 
REMARK    5  A    between atoms: C_13  and  N_14 
REMARK    6  A    between atoms: C_36  and  O_37 
ROOT
HETATM    1  N   UNL     1     -10.432   3.429 -34.566  1.00  0.00    -0.054 N 
HETATM    2  H   UNL     1     -10.533   3.256 -35.593  1.00  0.00     0.281 HD
HETATM    3  C   UNL     1     -10.503   2.022 -33.935  1.00  0.00     0.240 C 
HETATM    4  C   UNL     1     -11.912   1.423 -33.918  1.00  0.00    -0.020 A 
HETATM    5  C   UNL     1     -13.042   2.202 -34.243  1.00  0.00    -0.048 A 
HETATM    6  C   UNL     1     -12.909   3.641 -34.658  1.00  0.00     0.067 C 
HETATM    7  C   UNL     1     -11.616   4.267 -34.161  1.00  0.00     0.241 C 
HETATM    8  C   UNL     1     -12.123   0.087 -33.527  1.00  0.00     0.010 A 
HETATM    9  C   UNL     1     -13.403  -0.472 -33.518  1.00  0.00     0.001 A 
HETATM   10  C   UNL     1     -14.501   0.295 -33.882  1.00  0.00     0.001 A 
HETATM   11  C   UNL     1     -14.324   1.627 -34.241  1.00  0.00     0.008 A 
ENDROOT
BRANCH   1  12
HETATM   12  C   UNL     1      -9.104   4.202 -34.369  1.00  0.00     0.319 C 
BRANCH  12  13
HETATM   13  C   UNL     1      -8.975   4.876 -33.005  1.00  0.00     0.188 C 
HETATM   14  O   UNL     1      -9.441   6.008 -32.863  1.00  0.00    -0.290 OA
BRANCH  13  15
HETATM   15  C   UNL     1      -8.307   4.195 -31.896  1.00  0.00     0.046 A 
HETATM   16  C   UNL     1      -8.997   3.676 -30.802  1.00  0.00     0.020 A 
HETATM   17  C   UNL     1     -10.445   3.703 -30.449  1.00  0.00     0.069 C 
HETATM   18  N   UNL     1      -8.092   3.048 -29.986  1.00  0.00    -0.358 N 
HETATM   19  H   UNL     1      -8.317   2.562 -29.127  1.00  0.00     0.166 HD
HETATM   20  C   UNL     1      -6.828   3.150 -30.509  1.00  0.00     0.043 A 
HETATM   21  C   UNL     1      -6.917   3.887 -31.692  1.00  0.00     0.009 A 
HETATM   22  C   UNL     1      -5.625   2.631 -30.017  1.00  0.00     0.033 A 
HETATM   23  C   UNL     1      -5.713   4.117 -32.397  1.00  0.00     0.051 A 
HETATM   24  C   UNL     1      -4.493   3.609 -31.922  1.00  0.00     0.069 A 
HETATM   25  C   UNL     1      -4.457   2.870 -30.746  1.00  0.00     0.039 A 
BRANCH  24  26
HETATM   26  O   UNL     1      -3.419   3.910 -32.717  1.00  0.00    -0.356 OA
HETATM   27  C   UNL     1      -2.246   4.379 -32.058  1.00  0.00     0.210 C 
ENDBRANCH  24  26
ENDBRANCH  13  15
ENDBRANCH  12  13
ENDBRANCH   1  12
BRANCH   3  28
HETATM   28  C   UNL     1      -9.432   1.067 -34.543  1.00  0.00     0.173 C 
BRANCH  28  29
HETATM   29  N   UNL     1      -8.208   0.805 -33.796  1.00  0.00    -0.278 N 
HETATM   30  C   UNL     1      -8.098   0.420 -32.487  1.00  0.00     0.261 A 
HETATM   31  O   UNL     1      -8.989   0.315 -31.661  1.00  0.00    -0.267 OA
HETATM   32  C   UNL     1      -6.711   0.018 -32.267  1.00  0.00     0.048 A 
HETATM   33  C   UNL     1      -6.061   0.100 -33.486  1.00  0.00     0.048 A 
HETATM   34  C   UNL     1      -6.083  -0.455 -31.133  1.00  0.00     0.018 A 
HETATM   35  C   UNL     1      -7.033   0.570 -34.468  1.00  0.00     0.261 A 
HETATM   36  C   UNL     1      -4.745  -0.288 -33.642  1.00  0.00     0.018 A 
HETATM   37  O   UNL     1      -6.829   0.662 -35.663  1.00  0.00    -0.267 OA
HETATM   38  C   UNL     1      -4.083  -0.765 -32.506  1.00  0.00     0.001 A 
HETATM   39  C   UNL     1      -4.746  -0.847 -31.263  1.00  0.00     0.001 A 
ENDBRANCH  28  29
ENDBRANCH   3  28
TORSDOF 6
ENDMDL
MODEL 3
REMARK VINA RESULT:     -10.6      2.985      7.212
REMARK  6 active torsions:
REMARK  status: ('A' for Active; 'I' for Inactive)
REMARK    1  A    between atoms: C_7  and  C_8 
REMARK    2  A    between atoms: C_8  and  C_9 
REMARK    3  A    between atoms: C_9  and  N_10 
REMARK    4  A    between atoms: C_12  and  C_13 
REMARK    5  A    between atoms: C_13  and  N_14 
REMARK    6  A    between atoms: C_36  and  O_37 
ROOT
HETATM    1  N   UNL     1      -7.136   3.827 -33.744  1.00  0.00    -0.054 N 
HETATM    2  H   UNL     1      -7.094   3.757 -34.787  1.00  0.00     0.281 HD
HETATM    3  C   UNL     1      -5.964   2.949 -33.257  1.00  0.00     0.240 C 
HETATM    4  C   UNL     1      -6.223   1.445 -33.387  1.00  0.00    -0.020 A 
HETATM    5  C   UNL     1      -7.503   0.948 -33.706  1.00  0.00    -0.048 A 
HETATM    6  C   UNL     1      -8.659   1.872 -33.972  1.00  0.00     0.067 C 
HETATM    7  C   UNL     1      -8.462   3.238 -33.336  1.00  0.00     0.241 C 
HETATM    8  C   UNL     1      -5.197   0.513 -33.140  1.00  0.00     0.010 A 
HETATM    9  C   UNL     1      -5.420  -0.860 -33.266  1.00  0.00     0.001 A 
HETATM   10  C   UNL     1      -6.675  -1.333 -33.624  1.00  0.00     0.001 A 
HETATM   11  C   UNL     1      -7.714  -0.435 -33.841  1.00  0.00     0.008 A 
ENDROOT
BRANCH   1  12
HETATM   12  C   UNL     1      -7.058   5.333 -33.389  1.00  0.00     0.319 C 
BRANCH  12  13
HETATM   13  C   UNL     1      -7.368   5.643 -31.928  1.00  0.00     0.188 C 
HETATM   14  O   UNL     1      -8.543   5.830 -31.604  1.00  0.00    -0.290 OA
BRANCH  13  15
HETATM   15  C   UNL     1      -6.295   5.723 -30.936  1.00  0.00     0.046 A 
HETATM   16  C   UNL     1      -5.977   4.673 -30.078  1.00  0.00     0.020 A 
HETATM   17  C   UNL     1      -6.597   3.329 -29.897  1.00  0.00     0.069 C 
HETATM   18  N   UNL     1      -4.890   5.045 -29.332  1.00  0.00    -0.358 N 
HETATM   19  H   UNL     1      -4.430   4.468 -28.640  1.00  0.00     0.166 HD
HETATM   20  C   UNL     1      -4.493   6.315 -29.669  1.00  0.00     0.043 A 
HETATM   21  C   UNL     1      -5.367   6.785 -30.651  1.00  0.00     0.009 A 
HETATM   22  C   UNL     1      -3.419   7.063 -29.175  1.00  0.00     0.033 A 
HETATM   23  C   UNL     1      -5.138   8.091 -31.141  1.00  0.00     0.051 A 
HETATM   24  C   UNL     1      -4.068   8.863 -30.661  1.00  0.00     0.069 A 
HETATM   25  C   UNL     1      -3.218   8.346 -29.691  1.00  0.00     0.039 A 
BRANCH  24  26
HETATM   26  O   UNL     1      -3.975  10.103 -31.236  1.00  0.00    -0.356 OA
HETATM   27  C   UNL     1      -4.938  11.071 -30.830  1.00  0.00     0.210 C 
ENDBRANCH  24  26
ENDBRANCH  13  15
ENDBRANCH  12  13
ENDBRANCH   1  12
BRANCH   3  28
HETATM   28  C   UNL     1      -4.611   3.400 -33.885  1.00  0.00     0.173 C 
BRANCH  28  29
HETATM   29  N   UNL     1      -3.693   4.206 -33.090  1.00  0.00    -0.278 N 
HETATM   30  C   UNL     1      -2.876   3.782 -32.077  1.00  0.00     0.261 A 
HETATM   31  O   UNL     1      -2.823   2.672 -31.575  1.00  0.00    -0.267 OA
HETATM   32  C   UNL     1      -1.956   4.875 -31.774  1.00  0.00     0.048 A 
HETATM   33  C   UNL     1      -2.207   5.888 -32.682  1.00  0.00     0.048 A 
HETATM   34  C   UNL     1      -0.936   4.959 -30.848  1.00  0.00     0.018 A 
HETATM   35  C   UNL     1      -3.296   5.440 -33.545  1.00  0.00     0.261 A 
HETATM   36  C   UNL     1      -1.453   7.044 -32.718  1.00  0.00     0.018 A 
HETATM   37  O   UNL     1      -3.708   6.042 -34.517  1.00  0.00    -0.267 OA
HETATM   38  C   UNL     1      -0.416   7.156 -31.786  1.00  0.00     0.001 A 
HETATM   39  C   UNL     1      -0.161   6.124 -30.859  1.00  0.00     0.001 A 
ENDBRANCH  28  29
ENDBRANCH   3  28
TORSDOF 6
ENDMDL
MODEL 4
REMARK VINA RESULT:     -10.6      2.443      6.520
REMARK  6 active torsions:
REMARK  status: ('A' for Active; 'I' for Inactive)
REMARK    1  A    between atoms: C_7  and  C_8 
REMARK    2  A    between atoms: C_8  and  C_9 
REMARK    3  A    between atoms: C_9  and  N_10 
REMARK    4  A    between atoms: C_12  and  C_13 
REMARK    5  A    between atoms: C_13  and  N_14 
REMARK    6  A    between atoms: C_36  and  O_37 
ROOT
HETATM    1  N   UNL     1      -8.139   1.633 -31.622  1.00  0.00    -0.054 N 
HETATM    2  H   UNL     1      -7.892   2.313 -32.377  1.00  0.00     0.281 HD
HETATM    3  C   UNL     1      -6.825   0.870 -31.352  1.00  0.00     0.240 C 
HETATM    4  C   UNL     1      -6.461  -0.139 -32.444  1.00  0.00    -0.020 A 
HETATM    5  C   UNL     1      -7.376  -0.478 -33.463  1.00  0.00    -0.048 A 
HETATM    6  C   UNL     1      -8.732   0.167 -33.544  1.00  0.00     0.067 C 
HETATM    7  C   UNL     1      -9.188   0.720 -32.203  1.00  0.00     0.241 C 
HETATM    8  C   UNL     1      -5.217  -0.798 -32.431  1.00  0.00     0.010 A 
HETATM    9  C   UNL     1      -4.871  -1.712 -33.429  1.00  0.00     0.001 A 
HETATM   10  C   UNL     1      -5.765  -2.003 -34.450  1.00  0.00     0.001 A 
HETATM   11  C   UNL     1      -7.014  -1.391 -34.467  1.00  0.00     0.008 A 
ENDROOT
BRANCH   1  12
HETATM   12  C   UNL     1      -8.708   2.459 -30.441  1.00  0.00     0.319 C 
BRANCH  12  13
HETATM   13  C   UNL     1      -9.891   3.346 -30.817  1.00  0.00     0.188 C 
HETATM   14  O   UNL     1     -10.872   3.364 -30.070  1.00  0.00    -0.290 OA
BRANCH  13  15
HETATM   15  C   UNL     1      -9.865   4.149 -32.040  1.00  0.00     0.046 A 
HETATM   16  C   UNL     1      -9.070   5.284 -32.182  1.00  0.00     0.020 A 
HETATM   17  C   UNL     1      -8.156   5.971 -31.225  1.00  0.00     0.069 C 
HETATM   18  N   UNL     1      -9.225   5.757 -33.459  1.00  0.00    -0.358 N 
HETATM   19  H   UNL     1      -8.750   6.562 -33.847  1.00  0.00     0.166 HD
HETATM   20  C   UNL     1     -10.108   4.969 -34.154  1.00  0.00     0.043 A 
HETATM   21  C   UNL     1     -10.553   3.967 -33.290  1.00  0.00     0.009 A 
HETATM   22  C   UNL     1     -10.528   5.078 -35.485  1.00  0.00     0.033 A 
HETATM   23  C   UNL     1     -11.485   3.039 -33.809  1.00  0.00     0.051 A 
HETATM   24  C   UNL     1     -11.923   3.128 -35.141  1.00  0.00     0.069 A 
HETATM   25  C   UNL     1     -11.441   4.137 -35.966  1.00  0.00     0.039 A 
BRANCH  24  26
HETATM   26  O   UNL     1     -12.819   2.155 -35.496  1.00  0.00    -0.356 OA
HETATM   27  C   UNL     1     -13.149   1.192 -34.499  1.00  0.00     0.210 C 
ENDBRANCH  24  26
ENDBRANCH  13  15
ENDBRANCH  12  13
ENDBRANCH   1  12
BRANCH   3  28
HETATM   28  C   UNL     1      -5.661   1.843 -30.996  1.00  0.00     0.173 C 
BRANCH  28  29
HETATM   29  N   UNL     1      -4.976   2.554 -32.068  1.00  0.00    -0.278 N 
HETATM   30  C   UNL     1      -5.539   3.324 -33.049  1.00  0.00     0.261 A 
HETATM   31  O   UNL     1      -6.725   3.489 -33.281  1.00  0.00    -0.267 OA
HETATM   32  C   UNL     1      -4.454   4.042 -33.714  1.00  0.00     0.048 A 
HETATM   33  C   UNL     1      -3.285   3.733 -33.044  1.00  0.00     0.048 A 
HETATM   34  C   UNL     1      -4.484   4.945 -34.757  1.00  0.00     0.018 A 
HETATM   35  C   UNL     1      -3.629   2.809 -31.968  1.00  0.00     0.261 A 
HETATM   36  C   UNL     1      -2.076   4.312 -33.375  1.00  0.00     0.018 A 
HETATM   37  O   UNL     1      -2.858   2.409 -31.118  1.00  0.00    -0.267 OA
HETATM   38  C   UNL     1      -2.077   5.227 -34.433  1.00  0.00     0.001 A 
HETATM   39  C   UNL     1      -3.270   5.540 -35.118  1.00  0.00     0.001 A 
ENDBRANCH  28  29
ENDBRANCH   3  28
TORSDOF 6
ENDMDL
MODEL 5
REMARK VINA RESULT:     -10.4      2.195      7.918
REMARK  6 active torsions:
REMARK  status: ('A' for Active; 'I' for Inactive)
REMARK    1  A    between atoms: C_7  and  C_8 
REMARK    2  A    between atoms: C_8  and  C_9 
REMARK    3  A    between atoms: C_9  and  N_10 
REMARK    4  A    between atoms: C_12  and  C_13 
REMARK    5  A    between atoms: C_13  and  N_14 
REMARK    6  A    between atoms: C_36  and  O_37 
ROOT
HETATM    1  N   UNL     1      -5.132   1.531 -31.859  1.00  0.00    -0.054 N 
HETATM    2  H   UNL     1      -5.295   0.968 -30.992  1.00  0.00     0.281 HD
HETATM    3  C   UNL     1      -6.197   1.016 -32.850  1.00  0.00     0.240 C 
HETATM    4  C   UNL     1      -5.887  -0.368 -33.427  1.00  0.00    -0.020 A 
HETATM    5  C   UNL     1      -4.632  -0.980 -33.227  1.00  0.00    -0.048 A 
HETATM    6  C   UNL     1      -3.560  -0.318 -32.407  1.00  0.00     0.067 C 
HETATM    7  C   UNL     1      -3.742   1.189 -32.328  1.00  0.00     0.241 C 
HETATM    8  C   UNL     1      -6.833  -1.048 -34.218  1.00  0.00     0.010 A 
HETATM    9  C   UNL     1      -6.564  -2.315 -34.739  1.00  0.00     0.001 A 
HETATM   10  C   UNL     1      -5.340  -2.924 -34.498  1.00  0.00     0.001 A 
HETATM   11  C   UNL     1      -4.377  -2.259 -33.747  1.00  0.00     0.008 A 
ENDROOT
BRANCH   1  12
HETATM   12  C   UNL     1      -5.236   3.022 -31.454  1.00  0.00     0.319 C 
BRANCH  12  13
HETATM   13  C   UNL     1      -4.755   3.992 -32.529  1.00  0.00     0.188 C 
HETATM   14  O   UNL     1      -4.854   3.655 -33.711  1.00  0.00    -0.290 OA
BRANCH  13  15
HETATM   15  C   UNL     1      -4.185   5.290 -32.165  1.00  0.00     0.046 A 
HETATM   16  C   UNL     1      -4.936   6.462 -32.124  1.00  0.00     0.020 A 
HETATM   17  C   UNL     1      -6.367   6.726 -32.452  1.00  0.00     0.069 C 
HETATM   18  N   UNL     1      -4.125   7.474 -31.682  1.00  0.00    -0.358 N 
HETATM   19  H   UNL     1      -4.412   8.434 -31.536  1.00  0.00     0.166 HD
HETATM   20  C   UNL     1      -2.859   7.000 -31.443  1.00  0.00     0.043 A 
HETATM   21  C   UNL     1      -2.849   5.641 -31.761  1.00  0.00     0.009 A 
HETATM   22  C   UNL     1      -1.738   7.684 -30.961  1.00  0.00     0.033 A 
HETATM   23  C   UNL     1      -1.627   4.951 -31.591  1.00  0.00     0.051 A 
HETATM   24  C   UNL     1      -0.487   5.615 -31.111  1.00  0.00     0.069 A 
HETATM   25  C   UNL     1      -0.550   6.967 -30.796  1.00  0.00     0.039 A 
BRANCH  24  26
HETATM   26  O   UNL     1       0.617   4.812 -30.995  1.00  0.00    -0.356 OA
HETATM   27  C   UNL     1       1.092   4.562 -29.676  1.00  0.00     0.210 C 
ENDBRANCH  24  26
ENDBRANCH  13  15
ENDBRANCH  12  13
ENDBRANCH   1  12
BRANCH   3  28
HETATM   28  C   UNL     1      -7.634   1.133 -32.260  1.00  0.00     0.173 C 
BRANCH  28  29
HETATM   29  N   UNL     1      -8.750   1.411 -33.155  1.00  0.00    -0.278 N 
HETATM   30  C   UNL     1      -9.919   0.709 -33.272  1.00  0.00     0.261 A 
HETATM   31  O   UNL     1     -10.219  -0.339 -32.724  1.00  0.00    -0.267 OA
HETATM   32  C   UNL     1     -10.829   1.512 -34.085  1.00  0.00     0.048 A 
HETATM   33  C   UNL     1     -10.192   2.710 -34.355  1.00  0.00     0.048 A 
HETATM   34  C   UNL     1     -12.125   1.265 -34.489  1.00  0.00     0.018 A 
HETATM   35  C   UNL     1      -8.876   2.654 -33.727  1.00  0.00     0.261 A 
HETATM   36  C   UNL     1     -10.815   3.731 -35.043  1.00  0.00     0.018 A 
HETATM   37  O   UNL     1      -8.086   3.578 -33.680  1.00  0.00    -0.267 OA
HETATM   38  C   UNL     1     -12.127   3.504 -35.470  1.00  0.00     0.001 A 
HETATM   39  C   UNL     1     -12.776   2.282 -35.196  1.00  0.00     0.001 A 
ENDBRANCH  28  29
ENDBRANCH   3  28
TORSDOF 6
ENDMDL
MODEL 6
REMARK VINA RESULT:     -10.4      2.572      7.475
REMARK  6 active torsions:
REMARK  status: ('A' for Active; 'I' for Inactive)
REMARK    1  A    between atoms: C_7  and  C_8 
REMARK    2  A    between atoms: C_8  and  C_9 
REMARK    3  A    between atoms: C_9  and  N_10 
REMARK    4  A    between atoms: C_12  and  C_13 
REMARK    5  A    between atoms: C_13  and  N_14 
REMARK    6  A    between atoms: C_36  and  O_37 
ROOT
HETATM    1  N   UNL     1      -4.454   4.938 -30.102  1.00  0.00    -0.054 N 
HETATM    2  H   UNL     1      -3.648   4.588 -29.533  1.00  0.00     0.281 HD
HETATM    3  C   UNL     1      -4.114   4.510 -31.545  1.00  0.00     0.240 C 
HETATM    4  C   UNL     1      -3.009   5.347 -32.194  1.00  0.00    -0.020 A 
HETATM    5  C   UNL     1      -2.534   6.528 -31.588  1.00  0.00    -0.048 A 
HETATM    6  C   UNL     1      -3.063   6.995 -30.261  1.00  0.00     0.067 C 
HETATM    7  C   UNL     1      -4.446   6.438 -29.963  1.00  0.00     0.241 C 
HETATM    8  C   UNL     1      -2.470   4.985 -33.444  1.00  0.00     0.010 A 
HETATM    9  C   UNL     1      -1.454   5.736 -34.039  1.00  0.00     0.001 A 
HETATM   10  C   UNL     1      -0.966   6.873 -33.410  1.00  0.00     0.001 A 
HETATM   11  C   UNL     1      -1.504   7.270 -32.191  1.00  0.00     0.008 A 
ENDROOT
BRANCH   1  12
HETATM   12  C   UNL     1      -5.737   4.324 -29.488  1.00  0.00     0.319 C 
BRANCH  12  13
HETATM   13  C   UNL     1      -6.999   5.145 -29.742  1.00  0.00     0.188 C 
HETATM   14  O   UNL     1      -7.436   5.847 -28.828  1.00  0.00    -0.290 OA
BRANCH  13  15
HETATM   15  C   UNL     1      -7.676   5.093 -31.038  1.00  0.00     0.046 A 
HETATM   16  C   UNL     1      -7.736   6.181 -31.905  1.00  0.00     0.020 A 
HETATM   17  C   UNL     1      -7.232   7.577 -31.767  1.00  0.00     0.069 C 
HETATM   18  N   UNL     1      -8.375   5.781 -33.049  1.00  0.00    -0.358 N 
HETATM   19  H   UNL     1      -8.541   6.362 -33.861  1.00  0.00     0.166 HD
HETATM   20  C   UNL     1      -8.746   4.463 -32.952  1.00  0.00     0.043 A 
HETATM   21  C   UNL     1      -8.351   4.004 -31.694  1.00  0.00     0.009 A 
HETATM   22  C   UNL     1      -9.392   3.657 -33.895  1.00  0.00     0.033 A 
HETATM   23  C   UNL     1      -8.646   2.657 -31.381  1.00  0.00     0.051 A 
HETATM   24  C   UNL     1      -9.295   1.828 -32.310  1.00  0.00     0.069 A 
HETATM   25  C   UNL     1      -9.658   2.328 -33.555  1.00  0.00     0.039 A 
BRANCH  24  26
HETATM   26  O   UNL     1      -9.506   0.551 -31.862  1.00  0.00    -0.356 OA
HETATM   27  C   UNL     1     -10.242  -0.316 -32.721  1.00  0.00     0.210 C 
ENDBRANCH  24  26
ENDBRANCH  13  15
ENDBRANCH  12  13
ENDBRANCH   1  12
BRANCH   3  28
HETATM   28  C   UNL     1      -3.867   2.975 -31.644  1.00  0.00     0.173 C 
BRANCH  28  29
HETATM   29  N   UNL     1      -4.855   2.137 -32.314  1.00  0.00    -0.278 N 
HETATM   30  C   UNL     1      -5.541   2.417 -33.465  1.00  0.00     0.261 A 
HETATM   31  O   UNL     1      -5.536   3.456 -34.104  1.00  0.00    -0.267 OA
HETATM   32  C   UNL     1      -6.201   1.184 -33.888  1.00  0.00     0.048 A 
HETATM   33  C   UNL     1      -5.813   0.188 -33.011  1.00  0.00     0.048 A 
HETATM   34  C   UNL     1      -7.003   0.926 -34.981  1.00  0.00     0.018 A 
HETATM   35  C   UNL     1      -4.923   0.796 -32.026  1.00  0.00     0.261 A 
HETATM   36  C   UNL     1      -6.202  -1.126 -33.176  1.00  0.00     0.018 A 
HETATM   37  O   UNL     1      -4.317   0.188 -31.165  1.00  0.00    -0.267 OA
HETATM   38  C   UNL     1      -7.020  -1.414 -34.274  1.00  0.00     0.001 A 
HETATM   39  C   UNL     1      -7.418  -0.397 -35.167  1.00  0.00     0.001 A 
ENDBRANCH  28  29
ENDBRANCH   3  28
TORSDOF 6
ENDMDL
MODEL 7
REMARK VINA RESULT:     -10.4      3.040      7.324
REMARK  6 active torsions:
REMARK  status: ('A' for Active; 'I' for Inactive)
REMARK    1  A    between atoms: C_7  and  C_8 
REMARK    2  A    between atoms: C_8  and  C_9 
REMARK    3  A    between atoms: C_9  and  N_10 
REMARK    4  A    between atoms: C_12  and  C_13 
REMARK    5  A    between atoms: C_13  and  N_14 
REMARK    6  A    between atoms: C_36  and  O_37 
ROOT
HETATM    1  N   UNL     1      -8.914   2.246 -32.668  1.00  0.00    -0.054 N 
HETATM    2  H   UNL     1      -8.452   2.847 -33.389  1.00  0.00     0.281 HD
HETATM    3  C   UNL     1      -7.744   1.523 -31.968  1.00  0.00     0.240 C 
HETATM    4  C   UNL     1      -7.116   0.408 -32.809  1.00  0.00    -0.020 A 
HETATM    5  C   UNL     1      -7.720  -0.037 -34.003  1.00  0.00    -0.048 A 
HETATM    6  C   UNL     1      -8.985   0.588 -34.522  1.00  0.00     0.067 C 
HETATM    7  C   UNL     1      -9.782   1.273 -33.423  1.00  0.00     0.241 C 
HETATM    8  C   UNL     1      -5.939  -0.238 -32.385  1.00  0.00     0.010 A 
HETATM    9  C   UNL     1      -5.352  -1.248 -33.150  1.00  0.00     0.001 A 
HETATM   10  C   UNL     1      -5.935  -1.647 -34.345  1.00  0.00     0.001 A 
HETATM   11  C   UNL     1      -7.115  -1.047 -34.770  1.00  0.00     0.008 A 
ENDROOT
BRANCH   1  12
HETATM   12  C   UNL     1      -9.768   3.187 -31.780  1.00  0.00     0.319 C 
BRANCH  12  13
HETATM   13  C   UNL     1     -10.707   4.097 -32.566  1.00  0.00     0.188 C 
HETATM   14  O   UNL     1     -10.249   4.735 -33.516  1.00  0.00    -0.290 OA
BRANCH  13  15
HETATM   15  C   UNL     1     -12.118   4.215 -32.195  1.00  0.00     0.046 A 
HETATM   16  C   UNL     1     -12.639   5.331 -31.545  1.00  0.00     0.020 A 
HETATM   17  C   UNL     1     -11.983   6.572 -31.043  1.00  0.00     0.069 C 
HETATM   18  N   UNL     1     -13.991   5.153 -31.409  1.00  0.00    -0.358 N 
HETATM   19  H   UNL     1     -14.630   5.818 -30.990  1.00  0.00     0.166 HD
HETATM   20  C   UNL     1     -14.369   3.947 -31.942  1.00  0.00     0.043 A 
HETATM   21  C   UNL     1     -13.219   3.315 -32.419  1.00  0.00     0.009 A 
HETATM   22  C   UNL     1     -15.648   3.386 -32.037  1.00  0.00     0.033 A 
HETATM   23  C   UNL     1     -13.384   2.042 -33.009  1.00  0.00     0.051 A 
HETATM   24  C   UNL     1     -14.656   1.457 -33.115  1.00  0.00     0.069 A 
HETATM   25  C   UNL     1     -15.773   2.130 -32.636  1.00  0.00     0.039 A 
BRANCH  24  26
HETATM   26  O   UNL     1     -14.654   0.225 -33.715  1.00  0.00    -0.356 OA
HETATM   27  C   UNL     1     -13.428  -0.501 -33.682  1.00  0.00     0.210 C 
ENDBRANCH  24  26
ENDBRANCH  13  15
ENDBRANCH  12  13
ENDBRANCH   1  12
BRANCH   3  28
HETATM   28  C   UNL     1      -6.702   2.533 -31.402  1.00  0.00     0.173 C 
BRANCH  28  29
HETATM   29  N   UNL     1      -5.666   3.055 -32.284  1.00  0.00    -0.278 N 
HETATM   30  C   UNL     1      -5.832   3.858 -33.379  1.00  0.00     0.261 A 
HETATM   31  O   UNL     1      -6.879   4.217 -33.891  1.00  0.00    -0.267 OA
HETATM   32  C   UNL     1      -4.508   4.338 -33.770  1.00  0.00     0.048 A 
HETATM   33  C   UNL     1      -3.606   3.865 -32.835  1.00  0.00     0.048 A 
HETATM   34  C   UNL     1      -4.126   5.176 -34.798  1.00  0.00     0.018 A 
HETATM   35  C   UNL     1      -4.357   3.074 -31.865  1.00  0.00     0.261 A 
HETATM   36  C   UNL     1      -2.268   4.204 -32.871  1.00  0.00     0.018 A 
HETATM   37  O   UNL     1      -3.894   2.590 -30.851  1.00  0.00    -0.267 OA
HETATM   38  C   UNL     1      -1.853   5.048 -33.906  1.00  0.00     0.001 A 
HETATM   39  C   UNL     1      -2.773   5.528 -34.862  1.00  0.00     0.001 A 
ENDBRANCH  28  29
ENDBRANCH   3  28
TORSDOF 6
ENDMDL
MODEL 8
REMARK VINA RESULT:     -10.3      2.987      7.956
REMARK  6 active torsions:
REMARK  status: ('A' for Active; 'I' for Inactive)
REMARK    1  A    between atoms: C_7  and  C_8 
REMARK    2  A    between atoms: C_8  and  C_9 
REMARK    3  A    between atoms: C_9  and  N_10 
REMARK    4  A    between atoms: C_12  and  C_13 
REMARK    5  A    between atoms: C_13  and  N_14 
REMARK    6  A    between atoms: C_36  and  O_37 
ROOT
HETATM    1  N   UNL     1      -8.386   1.694 -33.287  1.00  0.00    -0.054 N 
HETATM    2  H   UNL     1      -7.842   2.281 -33.961  1.00  0.00     0.281 HD
HETATM    3  C   UNL     1      -7.315   1.111 -32.341  1.00  0.00     0.240 C 
HETATM    4  C   UNL     1      -6.474  -0.002 -32.971  1.00  0.00    -0.020 A 
HETATM    5  C   UNL     1      -6.823  -0.570 -34.214  1.00  0.00    -0.048 A 
HETATM    6  C   UNL     1      -8.013  -0.080 -34.992  1.00  0.00     0.067 C 
HETATM    7  C   UNL     1      -9.037   0.610 -34.105  1.00  0.00     0.241 C 
HETATM    8  C   UNL     1      -5.352  -0.526 -32.300  1.00  0.00     0.010 A 
HETATM    9  C   UNL     1      -4.572  -1.534 -32.871  1.00  0.00     0.001 A 
HETATM   10  C   UNL     1      -4.903  -2.053 -34.115  1.00  0.00     0.001 A 
HETATM   11  C   UNL     1      -6.025  -1.575 -34.783  1.00  0.00     0.008 A 
ENDROOT
BRANCH   1  12
HETATM   12  C   UNL     1      -9.445   2.619 -32.637  1.00  0.00     0.319 C 
BRANCH  12  13
HETATM   13  C   UNL     1     -10.341   3.338 -33.642  1.00  0.00     0.188 C 
HETATM   14  O   UNL     1      -9.813   3.882 -34.615  1.00  0.00    -0.290 OA
BRANCH  13  15
HETATM   15  C   UNL     1     -11.791   3.385 -33.451  1.00  0.00     0.046 A 
HETATM   16  C   UNL     1     -12.676   2.590 -34.176  1.00  0.00     0.020 A 
HETATM   17  C   UNL     1     -12.443   1.607 -35.272  1.00  0.00     0.069 C 
HETATM   18  N   UNL     1     -13.942   2.826 -33.708  1.00  0.00    -0.358 N 
HETATM   19  H   UNL     1     -14.783   2.369 -34.039  1.00  0.00     0.166 HD
HETATM   20  C   UNL     1     -13.913   3.762 -32.705  1.00  0.00     0.043 A 
HETATM   21  C   UNL     1     -12.586   4.158 -32.534  1.00  0.00     0.009 A 
HETATM   22  C   UNL     1     -14.970   4.269 -31.941  1.00  0.00     0.033 A 
HETATM   23  C   UNL     1     -12.330   5.132 -31.542  1.00  0.00     0.051 A 
HETATM   24  C   UNL     1     -13.373   5.658 -30.763  1.00  0.00     0.069 A 
HETATM   25  C   UNL     1     -14.678   5.222 -30.963  1.00  0.00     0.039 A 
BRANCH  24  26
HETATM   26  O   UNL     1     -12.966   6.586 -29.842  1.00  0.00    -0.356 OA
HETATM   27  C   UNL     1     -13.986   7.212 -29.068  1.00  0.00     0.210 C 
ENDBRANCH  24  26
ENDBRANCH  13  15
ENDBRANCH  12  13
ENDBRANCH   1  12
BRANCH   3  28
HETATM   28  C   UNL     1      -6.461   2.235 -31.681  1.00  0.00     0.173 C 
BRANCH  28  29
HETATM   29  N   UNL     1      -5.416   2.885 -32.462  1.00  0.00    -0.278 N 
HETATM   30  C   UNL     1      -5.577   3.754 -33.508  1.00  0.00     0.261 A 
HETATM   31  O   UNL     1      -6.617   4.080 -34.055  1.00  0.00    -0.267 OA
HETATM   32  C   UNL     1      -4.271   4.345 -33.786  1.00  0.00     0.048 A 
HETATM   33  C   UNL     1      -3.390   3.865 -32.834  1.00  0.00     0.048 A 
HETATM   34  C   UNL     1      -3.892   5.279 -34.729  1.00  0.00     0.018 A 
HETATM   35  C   UNL     1      -4.137   2.959 -31.967  1.00  0.00     0.261 A 
HETATM   36  C   UNL     1      -2.079   4.291 -32.768  1.00  0.00     0.018 A 
HETATM   37  O   UNL     1      -3.697   2.434 -30.962  1.00  0.00    -0.267 OA
HETATM   38  C   UNL     1      -1.667   5.234 -33.716  1.00  0.00     0.001 A 
HETATM   39  C   UNL     1      -2.565   5.722 -34.688  1.00  0.00     0.001 A 
ENDBRANCH  28  29
ENDBRANCH   3  28
TORSDOF 6
ENDMDL
MODEL 9
REMARK VINA RESULT:     -10.1      2.074      7.478
REMARK  6 active torsions:
REMARK  status: ('A' for Active; 'I' for Inactive)
REMARK    1  A    between atoms: C_7  and  C_8 
REMARK    2  A    between atoms: C_8  and  C_9 
REMARK    3  A    between atoms: C_9  and  N_10 
REMARK    4  A    between atoms: C_12  and  C_13 
REMARK    5  A    between atoms: C_13  and  N_14 
REMARK    6  A    between atoms: C_36  and  O_37 
ROOT
HETATM    1  N   UNL     1      -5.051   0.564 -32.187  1.00  0.00    -0.054 N 
HETATM    2  H   UNL     1      -5.068  -0.000 -31.307  1.00  0.00     0.281 HD
HETATM    3  C   UNL     1      -6.233   0.016 -33.013  1.00  0.00     0.240 C 
HETATM    4  C   UNL     1      -5.970  -1.360 -33.631  1.00  0.00    -0.020 A 
HETATM    5  C   UNL     1      -4.682  -1.934 -33.618  1.00  0.00    -0.048 A 
HETATM    6  C   UNL     1      -3.521  -1.239 -32.962  1.00  0.00     0.067 C 
HETATM    7  C   UNL     1      -3.735   0.262 -32.855  1.00  0.00     0.241 C 
HETATM    8  C   UNL     1      -7.001  -2.070 -34.276  1.00  0.00     0.010 A 
HETATM    9  C   UNL     1      -6.774  -3.331 -34.833  1.00  0.00     0.001 A 
HETATM   10  C   UNL     1      -5.510  -3.902 -34.774  1.00  0.00     0.001 A 
HETATM   11  C   UNL     1      -4.467  -3.207 -34.171  1.00  0.00     0.008 A 
ENDROOT
BRANCH   1  12
HETATM   12  C   UNL     1      -5.139   2.053 -31.769  1.00  0.00     0.319 C 
BRANCH  12  13
HETATM   13  C   UNL     1      -3.800   2.785 -31.795  1.00  0.00     0.188 C 
HETATM   14  O   UNL     1      -2.883   2.357 -31.091  1.00  0.00    -0.290 OA
BRANCH  13  15
HETATM   15  C   UNL     1      -3.613   3.971 -32.632  1.00  0.00     0.046 A 
HETATM   16  C   UNL     1      -4.516   4.348 -33.623  1.00  0.00     0.020 A 
HETATM   17  C   UNL     1      -5.770   3.704 -34.108  1.00  0.00     0.069 C 
HETATM   18  N   UNL     1      -4.085   5.530 -34.166  1.00  0.00    -0.358 N 
HETATM   19  H   UNL     1      -4.560   6.047 -34.895  1.00  0.00     0.166 HD
HETATM   20  C   UNL     1      -2.918   5.932 -33.567  1.00  0.00     0.043 A 
HETATM   21  C   UNL     1      -2.574   4.967 -32.619  1.00  0.00     0.009 A 
HETATM   22  C   UNL     1      -2.159   7.085 -33.798  1.00  0.00     0.033 A 
HETATM   23  C   UNL     1      -1.387   5.185 -31.882  1.00  0.00     0.051 A 
HETATM   24  C   UNL     1      -0.608   6.333 -32.096  1.00  0.00     0.069 A 
HETATM   25  C   UNL     1      -0.999   7.272 -33.043  1.00  0.00     0.039 A 
BRANCH  24  26
HETATM   26  O   UNL     1       0.506   6.404 -31.303  1.00  0.00    -0.356 OA
HETATM   27  C   UNL     1       0.966   5.182 -30.732  1.00  0.00     0.210 C 
ENDBRANCH  24  26
ENDBRANCH  13  15
ENDBRANCH  12  13
ENDBRANCH   1  12
BRANCH   3  28
HETATM   28  C   UNL     1      -7.571   0.092 -32.218  1.00  0.00     0.173 C 
BRANCH  28  29
HETATM   29  N   UNL     1      -8.486   1.198 -32.470  1.00  0.00    -0.278 N 
HETATM   30  C   UNL     1      -8.689   2.305 -31.691  1.00  0.00     0.261 A 
HETATM   31  O   UNL     1      -8.221   2.539 -30.589  1.00  0.00    -0.267 OA
HETATM   32  C   UNL     1      -9.480   3.250 -32.475  1.00  0.00     0.048 A 
HETATM   33  C   UNL     1      -9.650   2.700 -33.733  1.00  0.00     0.048 A 
HETATM   34  C   UNL     1      -9.945   4.510 -32.158  1.00  0.00     0.018 A 
HETATM   35  C   UNL     1      -8.981   1.403 -33.736  1.00  0.00     0.261 A 
HETATM   36  C   UNL     1     -10.293   3.379 -34.748  1.00  0.00     0.018 A 
HETATM   37  O   UNL     1      -8.847   0.689 -34.711  1.00  0.00    -0.267 OA
HETATM   38  C   UNL     1     -10.780   4.656 -34.451  1.00  0.00     0.001 A 
HETATM   39  C   UNL     1     -10.608   5.216 -33.167  1.00  0.00     0.001 A 
ENDBRANCH  28  29
ENDBRANCH   3  28
TORSDOF 6
ENDMDL
MODEL 10
REMARK VINA RESULT:     -10.0      2.282      7.722
REMARK  6 active torsions:
REMARK  status: ('A' for Active; 'I' for Inactive)
REMARK    1  A    between atoms: C_7  and  C_8 
REMARK    2  A    between atoms: C_8  and  C_9 
REMARK    3  A    between atoms: C_9  and  N_10 
REMARK    4  A    between atoms: C_12  and  C_13 
REMARK    5  A    between atoms: C_13  and  N_14 
REMARK    6  A    between atoms: C_36  and  O_37 
ROOT
HETATM    1  N   UNL     1      -5.951   2.933 -31.495  1.00  0.00    -0.054 N 
HETATM    2  H   UNL     1      -5.877   3.544 -32.342  1.00  0.00     0.281 HD
HETATM    3  C   UNL     1      -6.522   1.604 -32.035  1.00  0.00     0.240 C 
HETATM    4  C   UNL     1      -8.010   1.670 -32.390  1.00  0.00    -0.020 A 
HETATM    5  C   UNL     1      -8.800   2.780 -32.029  1.00  0.00    -0.048 A 
HETATM    6  C   UNL     1      -8.209   3.964 -31.316  1.00  0.00     0.067 C 
HETATM    7  C   UNL     1      -6.931   3.610 -30.573  1.00  0.00     0.241 C 
HETATM    8  C   UNL     1      -8.643   0.596 -33.044  1.00  0.00     0.010 A 
HETATM    9  C   UNL     1      -9.997   0.650 -33.382  1.00  0.00     0.001 A 
HETATM   10  C   UNL     1     -10.752   1.768 -33.059  1.00  0.00     0.001 A 
HETATM   11  C   UNL     1     -10.159   2.828 -32.383  1.00  0.00     0.008 A 
ENDROOT
BRANCH   1  12
HETATM   12  C   UNL     1      -4.539   2.866 -30.862  1.00  0.00     0.319 C 
BRANCH  12  13
HETATM   13  C   UNL     1      -3.426   3.377 -31.773  1.00  0.00     0.188 C 
HETATM   14  O   UNL     1      -2.631   2.560 -32.243  1.00  0.00    -0.290 OA
BRANCH  13  15
HETATM   15  C   UNL     1      -3.302   4.803 -32.074  1.00  0.00     0.046 A 
HETATM   16  C   UNL     1      -3.934   5.405 -33.161  1.00  0.00     0.020 A 
HETATM   17  C   UNL     1      -4.782   4.833 -34.245  1.00  0.00     0.069 C 
HETATM   18  N   UNL     1      -3.672   6.749 -33.116  1.00  0.00    -0.358 N 
HETATM   19  H   UNL     1      -4.022   7.436 -33.772  1.00  0.00     0.166 HD
HETATM   20  C   UNL     1      -2.877   7.044 -32.037  1.00  0.00     0.043 A 
HETATM   21  C   UNL     1      -2.600   5.846 -31.375  1.00  0.00     0.009 A 
HETATM   22  C   UNL     1      -2.400   8.287 -31.607  1.00  0.00     0.033 A 
HETATM   23  C   UNL     1      -1.782   5.923 -30.225  1.00  0.00     0.051 A 
HETATM   24  C   UNL     1      -1.289   7.159 -29.773  1.00  0.00     0.069 A 
HETATM   25  C   UNL     1      -1.603   8.325 -30.460  1.00  0.00     0.039 A 
BRANCH  24  26
HETATM   26  O   UNL     1      -0.517   7.070 -28.646  1.00  0.00    -0.356 OA
HETATM   27  C   UNL     1       0.421   5.999 -28.593  1.00  0.00     0.210 C 
ENDBRANCH  24  26
ENDBRANCH  13  15
ENDBRANCH  12  13
ENDBRANCH   1  12
BRANCH   3  28
HETATM   28  C   UNL     1      -5.637   1.024 -33.179  1.00  0.00     0.173 C 
BRANCH  28  29
HETATM   29  N   UNL     1      -5.383  -0.411 -33.223  1.00  0.00    -0.278 N 
HETATM   30  C   UNL     1      -5.762  -1.294 -34.197  1.00  0.00     0.261 A 
HETATM   31  O   UNL     1      -6.467  -1.079 -35.168  1.00  0.00    -0.267 OA
HETATM   32  C   UNL     1      -5.055  -2.547 -33.945  1.00  0.00     0.048 A 
HETATM   33  C   UNL     1      -4.210  -2.335 -32.871  1.00  0.00     0.048 A 
HETATM   34  C   UNL     1      -5.077  -3.743 -34.634  1.00  0.00     0.018 A 
HETATM   35  C   UNL     1      -4.398  -0.955 -32.435  1.00  0.00     0.261 A 
HETATM   36  C   UNL     1      -3.337  -3.306 -32.422  1.00  0.00     0.018 A 
HETATM   37  O   UNL     1      -3.742  -0.400 -31.574  1.00  0.00    -0.267 OA
HETATM   38  C   UNL     1      -3.344  -4.530 -33.099  1.00  0.00     0.001 A 
HETATM   39  C   UNL     1      -4.207  -4.747 -34.194  1.00  0.00     0.001 A 
ENDBRANCH  28  29
ENDBRANCH   3  28
TORSDOF 6
ENDMDL
