MODEL 1
REMARK VINA RESULT:      -8.6      0.000      0.000
REMARK  10 active torsions:
REMARK  status: ('A' for Active; 'I' for Inactive)
REMARK    1  A    between atoms: C_2  and  C_3 
REMARK    2  A    between atoms: C_3  and  C_4 
REMARK    3  A    between atoms: C_4  and  O_5 
REMARK    4  A    between atoms: O_5  and  C_6 
REMARK    5  A    between atoms: C_9  and  C_10 
REMARK       I    between atoms: C_10  and  N_11 
REMARK    6  A    between atoms: N_11  and  C_12 
REMARK    7  A    between atoms: C_12  and  N_13 
REMARK    8  A    between atoms: N_13  and  C_14 
REMARK    9  A    between atoms: C_16  and  C_17 
REMARK   10  A    between atoms: C_26  and  O_27 
ROOT
HETATM    1  N   UNL     1      -8.128   2.789 -29.851  1.00  0.00    -0.337 N 
HETATM    2  H   UNL     1      -8.225   2.964 -28.856  1.00  0.00     0.168 HD
ENDROOT
BRANCH   1   3
HETATM    3  C   UNL     1      -9.263   3.052 -30.592  1.00  0.00     0.157 C 
HETATM    4  S   UNL     1     -10.024   4.524 -30.397  1.00  0.00    -0.047 SA
BRANCH   3   5
HETATM    5  N   UNL     1      -9.705   1.990 -31.363  1.00  0.00    -0.201 NA
HETATM    6  C   UNL     1      -9.716   1.895 -32.743  1.00  0.00     0.237 C 
HETATM    7  O   UNL     1     -10.730   2.113 -33.395  1.00  0.00    -0.274 OA
HETATM    8  H   UNL     1     -10.649   1.797 -31.044  1.00  0.00     0.139 HD
BRANCH   6   9
HETATM    9  C   UNL     1      -8.564   1.167 -33.334  1.00  0.00     0.026 A 
HETATM   10  C   UNL     1      -7.482   1.818 -33.937  1.00  0.00     0.019 A 
HETATM   11  C   UNL     1      -6.380   1.076 -34.368  1.00  0.00     0.038 A 
HETATM   12  C   UNL     1      -6.348  -0.302 -34.159  1.00  0.00     0.068 A 
HETATM   13  C   UNL     1      -7.434  -0.965 -33.593  1.00  0.00     0.038 A 
HETATM   14  C   UNL     1      -8.545  -0.229 -33.183  1.00  0.00     0.019 A 
BRANCH  12  15
HETATM   15  O   UNL     1      -5.236  -0.994 -34.549  1.00  0.00    -0.351 OA
BRANCH  15  16
HETATM   16  C   UNL     1      -4.777  -1.861 -33.501  1.00  0.00     0.175 C 
BRANCH  16  17
HETATM   17  C   UNL     1      -4.509  -3.237 -34.103  1.00  0.00     0.026 C 
BRANCH  17  18
HETATM   18  C   UNL     1      -5.442  -3.534 -35.273  1.00  0.00    -0.002 C 
HETATM   19  C   UNL     1      -6.633  -4.370 -34.835  1.00  0.00     0.005 C 
ENDBRANCH  17  18
ENDBRANCH  16  17
ENDBRANCH  15  16
ENDBRANCH  12  15
ENDBRANCH   6   9
ENDBRANCH   3   5
ENDBRANCH   1   3
BRANCH   1  20
HETATM   20  C   UNL     1      -6.866   2.338 -30.304  1.00  0.00     0.035 A 
HETATM   21  C   UNL     1      -6.002   3.267 -30.898  1.00  0.00     0.048 A 
HETATM   22  C   UNL     1      -4.714   2.887 -31.319  1.00  0.00     0.052 A 
HETATM   23  C   UNL     1      -4.335   1.541 -31.174  1.00  0.00     0.080 A 
HETATM   24  C   UNL     1      -5.208   0.603 -30.639  1.00  0.00     0.040 A 
HETATM   25  C   UNL     1      -6.470   1.001 -30.206  1.00  0.00     0.032 A 
BRANCH  22  26
HETATM   26  C   UNL     1      -3.764   3.851 -31.867  1.00  0.00     0.183 A 
HETATM   27  O   UNL     1      -3.331   3.665 -33.154  1.00  0.00    -0.289 OA
HETATM   28  C   UNL     1      -2.486   4.718 -33.366  1.00  0.00     0.106 A 
HETATM   29  C   UNL     1      -2.456   5.480 -32.210  1.00  0.00     0.093 A 
HETATM   30  C   UNL     1      -1.770   5.011 -34.521  1.00  0.00     0.040 A 
HETATM   31  N   UNL     1      -3.265   4.915 -31.259  1.00  0.00    -0.221 NA
HETATM   32  C   UNL     1      -1.664   6.634 -32.171  1.00  0.00     0.034 A 
HETATM   33  C   UNL     1      -0.927   6.965 -33.318  1.00  0.00     0.002 A 
HETATM   34  C   UNL     1      -0.979   6.167 -34.468  1.00  0.00     0.003 A 
ENDBRANCH  22  26
BRANCH  23  35
HETATM   35  O   UNL     1      -3.104   1.062 -31.545  1.00  0.00    -0.360 OA
HETATM   36  H   UNL     1      -2.454   1.796 -31.495  1.00  0.00     0.217 HD
ENDBRANCH  23  35
ENDBRANCH   1  20
TORSDOF 10
ENDMDL
MODEL 2
REMARK VINA RESULT:      -8.4      1.760      2.610
REMARK  10 active torsions:
REMARK  status: ('A' for Active; 'I' for Inactive)
REMARK    1  A    between atoms: C_2  and  C_3 
REMARK    2  A    between atoms: C_3  and  C_4 
REMARK    3  A    between atoms: C_4  and  O_5 
REMARK    4  A    between atoms: O_5  and  C_6 
REMARK    5  A    between atoms: C_9  and  C_10 
REMARK       I    between atoms: C_10  and  N_11 
REMARK    6  A    between atoms: N_11  and  C_12 
REMARK    7  A    between atoms: C_12  and  N_13 
REMARK    8  A    between atoms: N_13  and  C_14 
REMARK    9  A    between atoms: C_16  and  C_17 
REMARK   10  A    between atoms: C_26  and  O_27 
ROOT
HETATM    1  N   UNL     1      -7.897   3.240 -30.681  1.00  0.00    -0.337 N 
HETATM    2  H   UNL     1      -7.578   3.295 -29.719  1.00  0.00     0.168 HD
ENDROOT
BRANCH   1   3
HETATM    3  C   UNL     1      -9.164   2.714 -30.834  1.00  0.00     0.157 C 
HETATM    4  S   UNL     1     -10.477   3.735 -30.695  1.00  0.00    -0.047 SA
BRANCH   3   5
HETATM    5  N   UNL     1      -9.202   1.340 -30.994  1.00  0.00    -0.201 NA
HETATM    6  C   UNL     1      -9.152   0.625 -32.177  1.00  0.00     0.237 C 
HETATM    7  O   UNL     1     -10.167   0.190 -32.709  1.00  0.00    -0.274 OA
HETATM    8  H   UNL     1     -10.028   1.030 -30.493  1.00  0.00     0.139 HD
BRANCH   6   9
HETATM    9  C   UNL     1      -7.809   0.109 -32.547  1.00  0.00     0.026 A 
HETATM   10  C   UNL     1      -6.762  -0.011 -31.628  1.00  0.00     0.019 A 
HETATM   11  C   UNL     1      -5.563  -0.613 -32.018  1.00  0.00     0.038 A 
HETATM   12  C   UNL     1      -5.432  -1.124 -33.308  1.00  0.00     0.068 A 
HETATM   13  C   UNL     1      -6.454  -0.977 -34.242  1.00  0.00     0.038 A 
HETATM   14  C   UNL     1      -7.644  -0.356 -33.861  1.00  0.00     0.019 A 
BRANCH  12  15
HETATM   15  O   UNL     1      -4.265  -1.749 -33.646  1.00  0.00    -0.351 OA
BRANCH  15  16
HETATM   16  C   UNL     1      -4.482  -2.717 -34.683  1.00  0.00     0.175 C 
BRANCH  16  17
HETATM   17  C   UNL     1      -4.157  -4.098 -34.122  1.00  0.00     0.026 C 
BRANCH  17  18
HETATM   18  C   UNL     1      -5.201  -5.134 -34.526  1.00  0.00    -0.002 C 
HETATM   19  C   UNL     1      -6.377  -4.489 -35.241  1.00  0.00     0.005 C 
ENDBRANCH  17  18
ENDBRANCH  16  17
ENDBRANCH  15  16
ENDBRANCH  12  15
ENDBRANCH   6   9
ENDBRANCH   3   5
ENDBRANCH   1   3
BRANCH   1  20
HETATM   20  C   UNL     1      -7.017   3.722 -31.678  1.00  0.00     0.035 A 
HETATM   21  C   UNL     1      -5.769   4.219 -31.279  1.00  0.00     0.048 A 
HETATM   22  C   UNL     1      -4.833   4.663 -32.231  1.00  0.00     0.052 A 
HETATM   23  C   UNL     1      -5.200   4.643 -33.588  1.00  0.00     0.080 A 
HETATM   24  C   UNL     1      -6.457   4.207 -33.985  1.00  0.00     0.040 A 
HETATM   25  C   UNL     1      -7.363   3.749 -33.033  1.00  0.00     0.032 A 
BRANCH  22  26
HETATM   26  C   UNL     1      -3.495   5.109 -31.851  1.00  0.00     0.183 A 
HETATM   27  O   UNL     1      -3.393   6.146 -30.959  1.00  0.00    -0.289 OA
HETATM   28  C   UNL     1      -2.046   6.306 -30.803  1.00  0.00     0.106 A 
HETATM   29  C   UNL     1      -1.409   5.364 -31.595  1.00  0.00     0.093 A 
HETATM   30  C   UNL     1      -1.390   7.230 -29.998  1.00  0.00     0.040 A 
HETATM   31  N   UNL     1      -2.340   4.614 -32.265  1.00  0.00    -0.221 NA
HETATM   32  C   UNL     1      -0.010   5.311 -31.604  1.00  0.00     0.034 A 
HETATM   33  C   UNL     1       0.689   6.227 -30.804  1.00  0.00     0.002 A 
HETATM   34  C   UNL     1       0.010   7.168 -30.019  1.00  0.00     0.003 A 
ENDBRANCH  22  26
BRANCH  23  35
HETATM   35  O   UNL     1      -4.365   5.047 -34.599  1.00  0.00    -0.360 OA
HETATM   36  H   UNL     1      -4.885   5.574 -35.244  1.00  0.00     0.217 HD
ENDBRANCH  23  35
ENDBRANCH   1  20
TORSDOF 10
ENDMDL
MODEL 3
REMARK VINA RESULT:      -8.2      1.734      6.927
REMARK  10 active torsions:
REMARK  status: ('A' for Active; 'I' for Inactive)
REMARK    1  A    between atoms: C_2  and  C_3 
REMARK    2  A    between atoms: C_3  and  C_4 
REMARK    3  A    between atoms: C_4  and  O_5 
REMARK    4  A    between atoms: O_5  and  C_6 
REMARK    5  A    between atoms: C_9  and  C_10 
REMARK       I    between atoms: C_10  and  N_11 
REMARK    6  A    between atoms: N_11  and  C_12 
REMARK    7  A    between atoms: C_12  and  N_13 
REMARK    8  A    between atoms: N_13  and  C_14 
REMARK    9  A    between atoms: C_16  and  C_17 
REMARK   10  A    between atoms: C_26  and  O_27 
ROOT
HETATM    1  N   UNL     1      -9.079   2.046 -30.672  1.00  0.00    -0.337 N 
HETATM    2  H   UNL     1      -9.693   1.501 -30.075  1.00  0.00     0.168 HD
ENDROOT
BRANCH   1   3
HETATM    3  C   UNL     1      -8.546   3.168 -30.070  1.00  0.00     0.157 C 
HETATM    4  S   UNL     1      -9.318   4.633 -30.281  1.00  0.00    -0.047 SA
BRANCH   3   5
HETATM    5  N   UNL     1      -7.341   2.957 -29.422  1.00  0.00    -0.201 NA
HETATM    6  C   UNL     1      -6.325   2.094 -29.788  1.00  0.00     0.237 C 
HETATM    7  O   UNL     1      -6.200   0.991 -29.269  1.00  0.00    -0.274 OA
HETATM    8  H   UNL     1      -7.584   2.741 -28.461  1.00  0.00     0.139 HD
BRANCH   6   9
HETATM    9  C   UNL     1      -5.210   2.716 -30.548  1.00  0.00     0.026 A 
HETATM   10  C   UNL     1      -4.955   4.091 -30.532  1.00  0.00     0.019 A 
HETATM   11  C   UNL     1      -3.821   4.593 -31.175  1.00  0.00     0.038 A 
HETATM   12  C   UNL     1      -2.933   3.717 -31.795  1.00  0.00     0.068 A 
HETATM   13  C   UNL     1      -3.196   2.350 -31.850  1.00  0.00     0.038 A 
HETATM   14  C   UNL     1      -4.339   1.850 -31.227  1.00  0.00     0.019 A 
BRANCH  12  15
HETATM   15  O   UNL     1      -1.808   4.233 -32.376  1.00  0.00    -0.351 OA
BRANCH  15  16
HETATM   16  C   UNL     1      -1.885   5.664 -32.463  1.00  0.00     0.175 C 
BRANCH  16  17
HETATM   17  C   UNL     1      -1.489   6.077 -33.877  1.00  0.00     0.026 C 
BRANCH  17  18
HETATM   18  C   UNL     1      -2.017   5.099 -34.922  1.00  0.00    -0.002 C 
HETATM   19  C   UNL     1      -3.505   5.291 -35.162  1.00  0.00     0.005 C 
ENDBRANCH  17  18
ENDBRANCH  16  17
ENDBRANCH  15  16
ENDBRANCH  12  15
ENDBRANCH   6   9
ENDBRANCH   3   5
ENDBRANCH   1   3
BRANCH   1  20
HETATM   20  C   UNL     1      -8.860   1.561 -31.982  1.00  0.00     0.035 A 
HETATM   21  C   UNL     1      -7.937   0.521 -32.160  1.00  0.00     0.048 A 
HETATM   22  C   UNL     1      -7.716  -0.036 -33.433  1.00  0.00     0.052 A 
HETATM   23  C   UNL     1      -8.408   0.509 -34.530  1.00  0.00     0.080 A 
HETATM   24  C   UNL     1      -9.281   1.577 -34.368  1.00  0.00     0.040 A 
HETATM   25  C   UNL     1      -9.505   2.102 -33.099  1.00  0.00     0.032 A 
BRANCH  22  26
HETATM   26  C   UNL     1      -6.822  -1.173 -33.635  1.00  0.00     0.183 A 
HETATM   27  O   UNL     1      -7.323  -2.280 -34.268  1.00  0.00    -0.289 OA
HETATM   28  C   UNL     1      -6.260  -3.136 -34.314  1.00  0.00     0.106 A 
HETATM   29  C   UNL     1      -5.179  -2.506 -33.718  1.00  0.00     0.093 A 
HETATM   30  C   UNL     1      -6.223  -4.414 -34.858  1.00  0.00     0.040 A 
HETATM   31  N   UNL     1      -5.550  -1.261 -33.280  1.00  0.00    -0.221 NA
HETATM   32  C   UNL     1      -3.952  -3.175 -33.646  1.00  0.00     0.034 A 
HETATM   33  C   UNL     1      -3.873  -4.467 -34.186  1.00  0.00     0.002 A 
HETATM   34  C   UNL     1      -4.989  -5.073 -34.778  1.00  0.00     0.003 A 
ENDBRANCH  22  26
BRANCH  23  35
HETATM   35  O   UNL     1      -8.275   0.039 -35.811  1.00  0.00    -0.360 OA
HETATM   36  H   UNL     1      -9.011   0.395 -36.354  1.00  0.00     0.217 HD
ENDBRANCH  23  35
ENDBRANCH   1  20
TORSDOF 10
ENDMDL
MODEL 4
REMARK VINA RESULT:      -8.1      2.874      4.752
REMARK  10 active torsions:
REMARK  status: ('A' for Active; 'I' for Inactive)
REMARK    1  A    between atoms: C_2  and  C_3 
REMARK    2  A    between atoms: C_3  and  C_4 
REMARK    3  A    between atoms: C_4  and  O_5 
REMARK    4  A    between atoms: O_5  and  C_6 
REMARK    5  A    between atoms: C_9  and  C_10 
REMARK       I    between atoms: C_10  and  N_11 
REMARK    6  A    between atoms: N_11  and  C_12 
REMARK    7  A    between atoms: C_12  and  N_13 
REMARK    8  A    between atoms: N_13  and  C_14 
REMARK    9  A    between atoms: C_16  and  C_17 
REMARK   10  A    between atoms: C_26  and  O_27 
ROOT
HETATM    1  N   UNL     1      -3.258  -1.101 -31.290  1.00  0.00    -0.337 N 
HETATM    2  H   UNL     1      -2.496  -1.322 -30.655  1.00  0.00     0.168 HD
ENDROOT
BRANCH   1   3
HETATM    3  C   UNL     1      -3.492  -2.058 -32.257  1.00  0.00     0.157 C 
HETATM    4  S   UNL     1      -3.107  -3.647 -31.922  1.00  0.00    -0.047 SA
BRANCH   3   5
HETATM    5  N   UNL     1      -3.943  -1.556 -33.466  1.00  0.00    -0.201 NA
HETATM    6  C   UNL     1      -5.155  -1.805 -34.084  1.00  0.00     0.237 C 
HETATM    7  O   UNL     1      -5.261  -2.631 -34.983  1.00  0.00    -0.274 OA
HETATM    8  H   UNL     1      -3.216  -1.772 -34.139  1.00  0.00     0.139 HD
BRANCH   6   9
HETATM    9  C   UNL     1      -6.202  -0.775 -33.860  1.00  0.00     0.026 A 
HETATM   10  C   UNL     1      -5.994   0.586 -34.107  1.00  0.00     0.019 A 
HETATM   11  C   UNL     1      -7.058   1.483 -33.985  1.00  0.00     0.038 A 
HETATM   12  C   UNL     1      -8.326   1.011 -33.656  1.00  0.00     0.068 A 
HETATM   13  C   UNL     1      -8.538  -0.336 -33.371  1.00  0.00     0.038 A 
HETATM   14  C   UNL     1      -7.472  -1.229 -33.470  1.00  0.00     0.019 A 
BRANCH  12  15
HETATM   15  O   UNL     1      -9.357   1.906 -33.589  1.00  0.00    -0.351 OA
BRANCH  15  16
HETATM   16  C   UNL     1     -10.565   1.338 -34.118  1.00  0.00     0.175 C 
BRANCH  16  17
HETATM   17  C   UNL     1     -11.716   2.288 -33.801  1.00  0.00     0.026 C 
BRANCH  17  18
HETATM   18  C   UNL     1     -13.066   1.695 -34.197  1.00  0.00    -0.002 C 
HETATM   19  C   UNL     1     -13.197   0.254 -33.732  1.00  0.00     0.005 C 
ENDBRANCH  17  18
ENDBRANCH  16  17
ENDBRANCH  15  16
ENDBRANCH  12  15
ENDBRANCH   6   9
ENDBRANCH   3   5
ENDBRANCH   1   3
BRANCH   1  20
HETATM   20  C   UNL     1      -3.949   0.111 -31.065  1.00  0.00     0.035 A 
HETATM   21  C   UNL     1      -3.317   1.312 -31.417  1.00  0.00     0.048 A 
HETATM   22  C   UNL     1      -3.977   2.545 -31.265  1.00  0.00     0.052 A 
HETATM   23  C   UNL     1      -5.267   2.548 -30.705  1.00  0.00     0.080 A 
HETATM   24  C   UNL     1      -5.876   1.366 -30.301  1.00  0.00     0.040 A 
HETATM   25  C   UNL     1      -5.218   0.153 -30.480  1.00  0.00     0.032 A 
BRANCH  22  26
HETATM   26  C   UNL     1      -3.374   3.803 -31.698  1.00  0.00     0.183 A 
HETATM   27  O   UNL     1      -2.566   3.780 -32.804  1.00  0.00    -0.289 OA
HETATM   28  C   UNL     1      -2.183   5.083 -32.952  1.00  0.00     0.106 A 
HETATM   29  C   UNL     1      -2.778   5.820 -31.941  1.00  0.00     0.093 A 
HETATM   30  C   UNL     1      -1.353   5.617 -33.931  1.00  0.00     0.040 A 
HETATM   31  N   UNL     1      -3.527   4.995 -31.143  1.00  0.00    -0.221 NA
HETATM   32  C   UNL     1      -2.552   7.200 -31.875  1.00  0.00     0.034 A 
HETATM   33  C   UNL     1      -1.720   7.778 -32.847  1.00  0.00     0.002 A 
HETATM   34  C   UNL     1      -1.132   6.999 -33.852  1.00  0.00     0.003 A 
ENDBRANCH  22  26
BRANCH  23  35
HETATM   35  O   UNL     1      -6.003   3.690 -30.518  1.00  0.00    -0.360 OA
HETATM   36  H   UNL     1      -5.867   4.003 -29.597  1.00  0.00     0.217 HD
ENDBRANCH  23  35
ENDBRANCH   1  20
TORSDOF 10
ENDMDL
MODEL 5
REMARK VINA RESULT:      -8.1      3.036      4.940
REMARK  10 active torsions:
REMARK  status: ('A' for Active; 'I' for Inactive)
REMARK    1  A    between atoms: C_2  and  C_3 
REMARK    2  A    between atoms: C_3  and  C_4 
REMARK    3  A    between atoms: C_4  and  O_5 
REMARK    4  A    between atoms: O_5  and  C_6 
REMARK    5  A    between atoms: C_9  and  C_10 
REMARK       I    between atoms: C_10  and  N_11 
REMARK    6  A    between atoms: N_11  and  C_12 
REMARK    7  A    between atoms: C_12  and  N_13 
REMARK    8  A    between atoms: N_13  and  C_14 
REMARK    9  A    between atoms: C_16  and  C_17 
REMARK   10  A    between atoms: C_26  and  O_27 
ROOT
HETATM    1  N   UNL     1      -3.441  -1.637 -33.328  1.00  0.00    -0.337 N 
HETATM    2  H   UNL     1      -2.480  -1.617 -33.655  1.00  0.00     0.168 HD
ENDROOT
BRANCH   1   3
HETATM    3  C   UNL     1      -4.126  -2.795 -33.637  1.00  0.00     0.157 C 
HETATM    4  S   UNL     1      -3.676  -4.217 -32.888  1.00  0.00    -0.047 SA
BRANCH   3   5
HETATM    5  N   UNL     1      -5.074  -2.653 -34.637  1.00  0.00    -0.201 NA
HETATM    6  C   UNL     1      -6.450  -2.720 -34.512  1.00  0.00     0.237 C 
HETATM    7  O   UNL     1      -7.072  -3.739 -34.788  1.00  0.00    -0.274 OA
HETATM    8  H   UNL     1      -4.808  -3.314 -35.359  1.00  0.00     0.139 HD
BRANCH   6   9
HETATM    9  C   UNL     1      -7.137  -1.409 -34.393  1.00  0.00     0.026 A 
HETATM   10  C   UNL     1      -8.147  -1.162 -33.458  1.00  0.00     0.019 A 
HETATM   11  C   UNL     1      -8.668   0.127 -33.324  1.00  0.00     0.038 A 
HETATM   12  C   UNL     1      -8.152   1.166 -34.096  1.00  0.00     0.068 A 
HETATM   13  C   UNL     1      -7.173   0.925 -35.057  1.00  0.00     0.038 A 
HETATM   14  C   UNL     1      -6.668  -0.366 -35.208  1.00  0.00     0.019 A 
BRANCH  12  15
HETATM   15  O   UNL     1      -8.650   2.425 -33.910  1.00  0.00    -0.351 OA
BRANCH  15  16
HETATM   16  C   UNL     1      -7.881   3.142 -32.932  1.00  0.00     0.175 C 
BRANCH  16  17
HETATM   17  C   UNL     1      -7.558   4.521 -33.498  1.00  0.00     0.026 C 
BRANCH  17  18
HETATM   18  C   UNL     1      -6.071   4.673 -33.807  1.00  0.00    -0.002 C 
HETATM   19  C   UNL     1      -5.474   5.871 -33.087  1.00  0.00     0.005 C 
ENDBRANCH  17  18
ENDBRANCH  16  17
ENDBRANCH  15  16
ENDBRANCH  12  15
ENDBRANCH   6   9
ENDBRANCH   3   5
ENDBRANCH   1   3
BRANCH   1  20
HETATM   20  C   UNL     1      -3.898  -0.509 -32.608  1.00  0.00     0.035 A 
HETATM   21  C   UNL     1      -3.168   0.683 -32.707  1.00  0.00     0.048 A 
HETATM   22  C   UNL     1      -3.604   1.851 -32.055  1.00  0.00     0.052 A 
HETATM   23  C   UNL     1      -4.762   1.780 -31.260  1.00  0.00     0.080 A 
HETATM   24  C   UNL     1      -5.457   0.586 -31.111  1.00  0.00     0.040 A 
HETATM   25  C   UNL     1      -5.025  -0.554 -31.782  1.00  0.00     0.032 A 
BRANCH  22  26
HETATM   26  C   UNL     1      -2.909   3.127 -32.206  1.00  0.00     0.183 A 
HETATM   27  O   UNL     1      -2.749   3.624 -33.473  1.00  0.00    -0.289 OA
HETATM   28  C   UNL     1      -2.093   4.806 -33.276  1.00  0.00     0.106 A 
HETATM   29  C   UNL     1      -1.897   4.963 -31.914  1.00  0.00     0.093 A 
HETATM   30  C   UNL     1      -1.683   5.719 -34.241  1.00  0.00     0.040 A 
HETATM   31  N   UNL     1      -2.412   3.885 -31.242  1.00  0.00    -0.221 NA
HETATM   32  C   UNL     1      -1.249   6.112 -31.444  1.00  0.00     0.034 A 
HETATM   33  C   UNL     1      -0.821   7.059 -32.387  1.00  0.00     0.002 A 
HETATM   34  C   UNL     1      -1.033   6.863 -33.757  1.00  0.00     0.003 A 
ENDBRANCH  22  26
BRANCH  23  35
HETATM   35  O   UNL     1      -5.279   2.856 -30.586  1.00  0.00    -0.360 OA
HETATM   36  H   UNL     1      -6.174   3.050 -30.942  1.00  0.00     0.217 HD
ENDBRANCH  23  35
ENDBRANCH   1  20
TORSDOF 10
ENDMDL
MODEL 6
REMARK VINA RESULT:      -8.0      3.695      9.690
REMARK  10 active torsions:
REMARK  status: ('A' for Active; 'I' for Inactive)
REMARK    1  A    between atoms: C_2  and  C_3 
REMARK    2  A    between atoms: C_3  and  C_4 
REMARK    3  A    between atoms: C_4  and  O_5 
REMARK    4  A    between atoms: O_5  and  C_6 
REMARK    5  A    between atoms: C_9  and  C_10 
REMARK       I    between atoms: C_10  and  N_11 
REMARK    6  A    between atoms: N_11  and  C_12 
REMARK    7  A    between atoms: C_12  and  N_13 
REMARK    8  A    between atoms: N_13  and  C_14 
REMARK    9  A    between atoms: C_16  and  C_17 
REMARK   10  A    between atoms: C_26  and  O_27 
ROOT
HETATM    1  N   UNL     1      -2.598   3.692 -32.543  1.00  0.00    -0.337 N 
HETATM    2  H   UNL     1      -1.636   3.467 -32.307  1.00  0.00     0.168 HD
ENDROOT
BRANCH   1   3
HETATM    3  C   UNL     1      -2.746   4.824 -33.320  1.00  0.00     0.157 C 
HETATM    4  S   UNL     1      -4.150   5.011 -34.203  1.00  0.00    -0.047 SA
BRANCH   3   5
HETATM    5  N   UNL     1      -1.636   5.651 -33.351  1.00  0.00    -0.201 NA
HETATM    6  C   UNL     1      -1.593   7.015 -33.127  1.00  0.00     0.237 C 
HETATM    7  O   UNL     1      -1.567   7.818 -34.052  1.00  0.00    -0.274 OA
HETATM    8  H   UNL     1      -1.196   5.482 -34.249  1.00  0.00     0.139 HD
BRANCH   6   9
HETATM    9  C   UNL     1      -1.207   7.417 -31.750  1.00  0.00     0.026 A 
HETATM   10  C   UNL     1      -1.995   8.253 -30.953  1.00  0.00     0.019 A 
HETATM   11  C   UNL     1      -1.627   8.496 -29.628  1.00  0.00     0.038 A 
HETATM   12  C   UNL     1      -0.500   7.872 -29.097  1.00  0.00     0.068 A 
HETATM   13  C   UNL     1       0.313   7.067 -29.890  1.00  0.00     0.038 A 
HETATM   14  C   UNL     1      -0.040   6.842 -31.221  1.00  0.00     0.019 A 
BRANCH  12  15
HETATM   15  O   UNL     1      -0.192   8.092 -27.783  1.00  0.00    -0.351 OA
BRANCH  15  16
HETATM   16  C   UNL     1       1.101   7.558 -27.463  1.00  0.00     0.175 C 
BRANCH  16  17
HETATM   17  C   UNL     1       1.898   8.639 -26.739  1.00  0.00     0.026 C 
BRANCH  17  18
HETATM   18  C   UNL     1       1.128   9.955 -26.664  1.00  0.00    -0.002 C 
HETATM   19  C   UNL     1       0.646  10.237 -25.251  1.00  0.00     0.005 C 
ENDBRANCH  17  18
ENDBRANCH  16  17
ENDBRANCH  15  16
ENDBRANCH  12  15
ENDBRANCH   6   9
ENDBRANCH   3   5
ENDBRANCH   1   3
BRANCH   1  20
HETATM   20  C   UNL     1      -3.598   2.814 -32.066  1.00  0.00     0.035 A 
HETATM   21  C   UNL     1      -3.788   1.597 -32.734  1.00  0.00     0.048 A 
HETATM   22  C   UNL     1      -4.733   0.661 -32.273  1.00  0.00     0.052 A 
HETATM   23  C   UNL     1      -5.516   0.999 -31.155  1.00  0.00     0.080 A 
HETATM   24  C   UNL     1      -5.374   2.229 -30.524  1.00  0.00     0.040 A 
HETATM   25  C   UNL     1      -4.418   3.133 -30.979  1.00  0.00     0.032 A 
BRANCH  22  26
HETATM   26  C   UNL     1      -4.894  -0.648 -32.900  1.00  0.00     0.183 A 
HETATM   27  O   UNL     1      -6.116  -0.956 -33.437  1.00  0.00    -0.289 OA
HETATM   28  C   UNL     1      -5.938  -2.211 -33.947  1.00  0.00     0.106 A 
HETATM   29  C   UNL     1      -4.629  -2.590 -33.699  1.00  0.00     0.093 A 
HETATM   30  C   UNL     1      -6.874  -2.997 -34.609  1.00  0.00     0.040 A 
HETATM   31  N   UNL     1      -3.976  -1.593 -33.024  1.00  0.00    -0.221 NA
HETATM   32  C   UNL     1      -4.186  -3.844 -34.136  1.00  0.00     0.034 A 
HETATM   33  C   UNL     1      -5.100  -4.668 -34.810  1.00  0.00     0.002 A 
HETATM   34  C   UNL     1      -6.418  -4.251 -35.039  1.00  0.00     0.003 A 
ENDBRANCH  22  26
BRANCH  23  35
HETATM   35  O   UNL     1      -6.461   0.162 -30.618  1.00  0.00    -0.360 OA
HETATM   36  H   UNL     1      -6.433  -0.693 -31.101  1.00  0.00     0.217 HD
ENDBRANCH  23  35
ENDBRANCH   1  20
TORSDOF 10
ENDMDL
MODEL 7
REMARK VINA RESULT:      -7.9      2.728      6.365
REMARK  10 active torsions:
REMARK  status: ('A' for Active; 'I' for Inactive)
REMARK    1  A    between atoms: C_2  and  C_3 
REMARK    2  A    between atoms: C_3  and  C_4 
REMARK    3  A    between atoms: C_4  and  O_5 
REMARK    4  A    between atoms: O_5  and  C_6 
REMARK    5  A    between atoms: C_9  and  C_10 
REMARK       I    between atoms: C_10  and  N_11 
REMARK    6  A    between atoms: N_11  and  C_12 
REMARK    7  A    between atoms: C_12  and  N_13 
REMARK    8  A    between atoms: N_13  and  C_14 
REMARK    9  A    between atoms: C_16  and  C_17 
REMARK   10  A    between atoms: C_26  and  O_27 
ROOT
HETATM    1  N   UNL     1      -3.389   4.576 -30.850  1.00  0.00    -0.337 N 
HETATM    2  H   UNL     1      -2.966   4.846 -29.967  1.00  0.00     0.168 HD
ENDROOT
BRANCH   1   3
HETATM    3  C   UNL     1      -2.804   5.146 -31.963  1.00  0.00     0.157 C 
HETATM    4  S   UNL     1      -1.156   4.981 -32.175  1.00  0.00    -0.047 SA
BRANCH   3   5
HETATM    5  N   UNL     1      -3.665   5.894 -32.747  1.00  0.00    -0.201 NA
HETATM    6  C   UNL     1      -4.371   5.477 -33.860  1.00  0.00     0.237 C 
HETATM    7  O   UNL     1      -3.974   5.706 -34.997  1.00  0.00    -0.274 OA
HETATM    8  H   UNL     1      -3.139   6.718 -33.019  1.00  0.00     0.139 HD
BRANCH   6   9
HETATM    9  C   UNL     1      -5.781   5.084 -33.603  1.00  0.00     0.026 A 
HETATM   10  C   UNL     1      -6.679   5.894 -32.902  1.00  0.00     0.019 A 
HETATM   11  C   UNL     1      -8.020   5.513 -32.798  1.00  0.00     0.038 A 
HETATM   12  C   UNL     1      -8.460   4.350 -33.427  1.00  0.00     0.068 A 
HETATM   13  C   UNL     1      -7.567   3.517 -34.096  1.00  0.00     0.038 A 
HETATM   14  C   UNL     1      -6.224   3.883 -34.181  1.00  0.00     0.019 A 
BRANCH  12  15
HETATM   15  O   UNL     1      -9.786   4.029 -33.347  1.00  0.00    -0.351 OA
BRANCH  15  16
HETATM   16  C   UNL     1     -10.146   3.080 -34.363  1.00  0.00     0.175 C 
BRANCH  16  17
HETATM   17  C   UNL     1     -10.799   1.880 -33.684  1.00  0.00     0.026 C 
BRANCH  17  18
HETATM   18  C   UNL     1      -9.766   0.844 -33.249  1.00  0.00    -0.002 C 
HETATM   19  C   UNL     1     -10.430  -0.444 -32.791  1.00  0.00     0.005 C 
ENDBRANCH  17  18
ENDBRANCH  16  17
ENDBRANCH  15  16
ENDBRANCH  12  15
ENDBRANCH   6   9
ENDBRANCH   3   5
ENDBRANCH   1   3
BRANCH   1  20
HETATM   20  C   UNL     1      -4.467   3.663 -30.793  1.00  0.00     0.035 A 
HETATM   21  C   UNL     1      -4.402   2.506 -31.581  1.00  0.00     0.048 A 
HETATM   22  C   UNL     1      -5.421   1.537 -31.526  1.00  0.00     0.052 A 
HETATM   23  C   UNL     1      -6.530   1.781 -30.697  1.00  0.00     0.080 A 
HETATM   24  C   UNL     1      -6.628   2.953 -29.956  1.00  0.00     0.040 A 
HETATM   25  C   UNL     1      -5.600   3.890 -30.005  1.00  0.00     0.032 A 
BRANCH  22  26
HETATM   26  C   UNL     1      -5.339   0.286 -32.274  1.00  0.00     0.183 A 
HETATM   27  O   UNL     1      -6.420  -0.080 -33.033  1.00  0.00    -0.289 OA
HETATM   28  C   UNL     1      -6.030  -1.257 -33.606  1.00  0.00     0.106 A 
HETATM   29  C   UNL     1      -4.744  -1.537 -33.172  1.00  0.00     0.093 A 
HETATM   30  C   UNL     1      -6.759  -2.059 -34.477  1.00  0.00     0.040 A 
HETATM   31  N   UNL     1      -4.317  -0.554 -32.318  1.00  0.00    -0.221 NA
HETATM   32  C   UNL     1      -4.106  -2.696 -33.628  1.00  0.00     0.034 A 
HETATM   33  C   UNL     1      -4.807  -3.531 -34.511  1.00  0.00     0.002 A 
HETATM   34  C   UNL     1      -6.109  -3.217 -34.924  1.00  0.00     0.003 A 
ENDBRANCH  22  26
BRANCH  23  35
HETATM   35  O   UNL     1      -7.575   0.904 -30.561  1.00  0.00    -0.360 OA
HETATM   36  H   UNL     1      -7.249   0.094 -30.113  1.00  0.00     0.217 HD
ENDBRANCH  23  35
ENDBRANCH   1  20
TORSDOF 10
ENDMDL
MODEL 8
REMARK VINA RESULT:      -7.8      1.745      2.293
REMARK  10 active torsions:
REMARK  status: ('A' for Active; 'I' for Inactive)
REMARK    1  A    between atoms: C_2  and  C_3 
REMARK    2  A    between atoms: C_3  and  C_4 
REMARK    3  A    between atoms: C_4  and  O_5 
REMARK    4  A    between atoms: O_5  and  C_6 
REMARK    5  A    between atoms: C_9  and  C_10 
REMARK       I    between atoms: C_10  and  N_11 
REMARK    6  A    between atoms: N_11  and  C_12 
REMARK    7  A    between atoms: C_12  and  N_13 
REMARK    8  A    between atoms: N_13  and  C_14 
REMARK    9  A    between atoms: C_16  and  C_17 
REMARK   10  A    between atoms: C_26  and  O_27 
ROOT
HETATM    1  N   UNL     1     -10.046   4.574 -31.900  1.00  0.00    -0.337 N 
HETATM    2  H   UNL     1     -10.356   5.528 -31.744  1.00  0.00     0.168 HD
ENDROOT
BRANCH   1   3
HETATM    3  C   UNL     1     -10.924   3.801 -32.633  1.00  0.00     0.157 C 
HETATM    4  S   UNL     1     -12.078   4.565 -33.566  1.00  0.00    -0.047 SA
BRANCH   3   5
HETATM    5  N   UNL     1     -10.802   2.437 -32.426  1.00  0.00    -0.201 NA
HETATM    6  C   UNL     1     -10.344   1.485 -33.318  1.00  0.00     0.237 C 
HETATM    7  O   UNL     1     -11.115   0.789 -33.968  1.00  0.00    -0.274 OA
HETATM    8  H   UNL     1     -11.713   2.129 -32.103  1.00  0.00     0.139 HD
BRANCH   6   9
HETATM    9  C   UNL     1      -8.915   1.110 -33.162  1.00  0.00     0.026 A 
HETATM   10  C   UNL     1      -7.931   1.462 -34.092  1.00  0.00     0.019 A 
HETATM   11  C   UNL     1      -6.590   1.176 -33.824  1.00  0.00     0.038 A 
HETATM   12  C   UNL     1      -6.238   0.578 -32.616  1.00  0.00     0.068 A 
HETATM   13  C   UNL     1      -7.212   0.189 -31.699  1.00  0.00     0.038 A 
HETATM   14  C   UNL     1      -8.553   0.453 -31.975  1.00  0.00     0.019 A 
BRANCH  12  15
HETATM   15  O   UNL     1      -4.914   0.353 -32.362  1.00  0.00    -0.351 OA
BRANCH  15  16
HETATM   16  C   UNL     1      -4.301  -0.373 -33.438  1.00  0.00     0.175 C 
BRANCH  16  17
HETATM   17  C   UNL     1      -4.492  -1.863 -33.177  1.00  0.00     0.026 C 
BRANCH  17  18
HETATM   18  C   UNL     1      -4.982  -2.598 -34.421  1.00  0.00    -0.002 C 
HETATM   19  C   UNL     1      -6.488  -2.476 -34.582  1.00  0.00     0.005 C 
ENDBRANCH  17  18
ENDBRANCH  16  17
ENDBRANCH  15  16
ENDBRANCH  12  15
ENDBRANCH   6   9
ENDBRANCH   3   5
ENDBRANCH   1   3
BRANCH   1  20
HETATM   20  C   UNL     1      -8.786   4.213 -31.371  1.00  0.00     0.035 A 
HETATM   21  C   UNL     1      -7.639   4.519 -32.116  1.00  0.00     0.048 A 
HETATM   22  C   UNL     1      -6.356   4.231 -31.616  1.00  0.00     0.052 A 
HETATM   23  C   UNL     1      -6.254   3.583 -30.372  1.00  0.00     0.080 A 
HETATM   24  C   UNL     1      -7.389   3.224 -29.655  1.00  0.00     0.040 A 
HETATM   25  C   UNL     1      -8.650   3.538 -30.153  1.00  0.00     0.032 A 
BRANCH  22  26
HETATM   26  C   UNL     1      -5.143   4.612 -32.334  1.00  0.00     0.183 A 
HETATM   27  O   UNL     1      -4.112   5.153 -31.610  1.00  0.00    -0.289 OA
HETATM   28  C   UNL     1      -3.144   5.380 -32.547  1.00  0.00     0.106 A 
HETATM   29  C   UNL     1      -3.633   4.965 -33.775  1.00  0.00     0.093 A 
HETATM   30  C   UNL     1      -1.880   5.922 -32.346  1.00  0.00     0.040 A 
HETATM   31  N   UNL     1      -4.909   4.487 -33.630  1.00  0.00    -0.221 NA
HETATM   32  C   UNL     1      -2.821   5.082 -34.910  1.00  0.00     0.034 A 
HETATM   33  C   UNL     1      -1.537   5.624 -34.748  1.00  0.00     0.002 A 
HETATM   34  C   UNL     1      -1.079   6.036 -33.490  1.00  0.00     0.003 A 
ENDBRANCH  22  26
BRANCH  23  35
HETATM   35  O   UNL     1      -5.056   3.260 -29.788  1.00  0.00    -0.360 OA
HETATM   36  H   UNL     1      -4.549   4.087 -29.636  1.00  0.00     0.217 HD
ENDBRANCH  23  35
ENDBRANCH   1  20
TORSDOF 10
ENDMDL
MODEL 9
REMARK VINA RESULT:      -7.8      2.796      8.512
REMARK  10 active torsions:
REMARK  status: ('A' for Active; 'I' for Inactive)
REMARK    1  A    between atoms: C_2  and  C_3 
REMARK    2  A    between atoms: C_3  and  C_4 
REMARK    3  A    between atoms: C_4  and  O_5 
REMARK    4  A    between atoms: O_5  and  C_6 
REMARK    5  A    between atoms: C_9  and  C_10 
REMARK       I    between atoms: C_10  and  N_11 
REMARK    6  A    between atoms: N_11  and  C_12 
REMARK    7  A    between atoms: C_12  and  N_13 
REMARK    8  A    between atoms: N_13  and  C_14 
REMARK    9  A    between atoms: C_16  and  C_17 
REMARK   10  A    between atoms: C_26  and  O_27 
ROOT
HETATM    1  N   UNL     1      -7.009   4.645 -33.837  1.00  0.00    -0.337 N 
HETATM    2  H   UNL     1      -7.433   5.252 -34.532  1.00  0.00     0.168 HD
ENDROOT
BRANCH   1   3
HETATM    3  C   UNL     1      -5.856   5.147 -33.267  1.00  0.00     0.157 C 
HETATM    4  S   UNL     1      -5.988   6.341 -32.108  1.00  0.00    -0.047 SA
BRANCH   3   5
HETATM    5  N   UNL     1      -4.683   4.652 -33.810  1.00  0.00    -0.201 NA
HETATM    6  C   UNL     1      -3.727   5.346 -34.530  1.00  0.00     0.237 C 
HETATM    7  O   UNL     1      -3.695   5.313 -35.755  1.00  0.00    -0.274 OA
HETATM    8  H   UNL     1      -4.959   3.855 -34.373  1.00  0.00     0.139 HD
BRANCH   6   9
HETATM    9  C   UNL     1      -2.555   5.807 -33.742  1.00  0.00     0.026 A 
HETATM   10  C   UNL     1      -2.214   7.156 -33.606  1.00  0.00     0.019 A 
HETATM   11  C   UNL     1      -1.169   7.525 -32.756  1.00  0.00     0.038 A 
HETATM   12  C   UNL     1      -0.498   6.550 -32.021  1.00  0.00     0.068 A 
HETATM   13  C   UNL     1      -0.803   5.200 -32.176  1.00  0.00     0.038 A 
HETATM   14  C   UNL     1      -1.832   4.828 -33.041  1.00  0.00     0.019 A 
BRANCH  12  15
HETATM   15  O   UNL     1       0.489   6.945 -31.162  1.00  0.00    -0.351 OA
BRANCH  15  16
HETATM   16  C   UNL     1       0.216   6.499 -29.825  1.00  0.00     0.175 C 
BRANCH  16  17
HETATM   17  C   UNL     1       0.340   7.697 -28.889  1.00  0.00     0.026 C 
BRANCH  17  18
HETATM   18  C   UNL     1       0.326   7.274 -27.423  1.00  0.00    -0.002 C 
HETATM   19  C   UNL     1       1.611   7.675 -26.716  1.00  0.00     0.005 C 
ENDBRANCH  17  18
ENDBRANCH  16  17
ENDBRANCH  15  16
ENDBRANCH  12  15
ENDBRANCH   6   9
ENDBRANCH   3   5
ENDBRANCH   1   3
BRANCH   1  20
HETATM   20  C   UNL     1      -7.670   3.427 -33.559  1.00  0.00     0.035 A 
HETATM   21  C   UNL     1      -7.001   2.228 -33.841  1.00  0.00     0.048 A 
HETATM   22  C   UNL     1      -7.588   0.986 -33.537  1.00  0.00     0.052 A 
HETATM   23  C   UNL     1      -8.884   0.976 -32.991  1.00  0.00     0.080 A 
HETATM   24  C   UNL     1      -9.576   2.158 -32.763  1.00  0.00     0.040 A 
HETATM   25  C   UNL     1      -8.971   3.379 -33.048  1.00  0.00     0.032 A 
BRANCH  22  26
HETATM   26  C   UNL     1      -6.881  -0.275 -33.744  1.00  0.00     0.183 A 
HETATM   27  O   UNL     1      -7.581  -1.324 -34.282  1.00  0.00    -0.289 OA
HETATM   28  C   UNL     1      -6.655  -2.324 -34.361  1.00  0.00     0.106 A 
HETATM   29  C   UNL     1      -5.453  -1.833 -33.876  1.00  0.00     0.093 A 
HETATM   30  C   UNL     1      -6.841  -3.616 -34.840  1.00  0.00     0.040 A 
HETATM   31  N   UNL     1      -5.610  -0.531 -33.478  1.00  0.00    -0.221 NA
HETATM   32  C   UNL     1      -4.330  -2.668 -33.859  1.00  0.00     0.034 A 
HETATM   33  C   UNL     1      -4.476  -3.979 -34.336  1.00  0.00     0.002 A 
HETATM   34  C   UNL     1      -5.709  -4.442 -34.814  1.00  0.00     0.003 A 
ENDBRANCH  22  26
BRANCH  23  35
HETATM   35  O   UNL     1      -9.548  -0.176 -32.652  1.00  0.00    -0.360 OA
HETATM   36  H   UNL     1     -10.389  -0.213 -33.158  1.00  0.00     0.217 HD
ENDBRANCH  23  35
ENDBRANCH   1  20
TORSDOF 10
ENDMDL
MODEL 10
REMARK VINA RESULT:      -7.8      4.852     10.498
REMARK  10 active torsions:
REMARK  status: ('A' for Active; 'I' for Inactive)
REMARK    1  A    between atoms: C_2  and  C_3 
REMARK    2  A    between atoms: C_3  and  C_4 
REMARK    3  A    between atoms: C_4  and  O_5 
REMARK    4  A    between atoms: O_5  and  C_6 
REMARK    5  A    between atoms: C_9  and  C_10 
REMARK       I    between atoms: C_10  and  N_11 
REMARK    6  A    between atoms: N_11  and  C_12 
REMARK    7  A    between atoms: C_12  and  N_13 
REMARK    8  A    between atoms: N_13  and  C_14 
REMARK    9  A    between atoms: C_16  and  C_17 
REMARK   10  A    between atoms: C_26  and  O_27 
ROOT
HETATM    1  N   UNL     1      -2.591   3.808 -32.192  1.00  0.00    -0.337 N 
HETATM    2  H   UNL     1      -2.249   3.689 -33.141  1.00  0.00     0.168 HD
ENDROOT
BRANCH   1   3
HETATM    3  C   UNL     1      -1.999   4.844 -31.497  1.00  0.00     0.157 C 
HETATM    4  S   UNL     1      -2.441   6.411 -31.865  1.00  0.00    -0.047 SA
BRANCH   3   5
HETATM    5  N   UNL     1      -1.006   4.453 -30.615  1.00  0.00    -0.201 NA
HETATM    6  C   UNL     1       0.265   4.981 -30.486  1.00  0.00     0.237 C 
HETATM    7  O   UNL     1       1.239   4.446 -31.004  1.00  0.00    -0.274 OA
HETATM    8  H   UNL     1      -0.901   3.453 -30.750  1.00  0.00     0.139 HD
BRANCH   6   9
HETATM    9  C   UNL     1       0.425   5.986 -29.405  1.00  0.00     0.026 A 
HETATM   10  C   UNL     1       0.566   5.637 -28.058  1.00  0.00     0.019 A 
HETATM   11  C   UNL     1       0.828   6.628 -27.109  1.00  0.00     0.038 A 
HETATM   12  C   UNL     1       0.986   7.951 -27.515  1.00  0.00     0.068 A 
HETATM   13  C   UNL     1       0.811   8.317 -28.848  1.00  0.00     0.038 A 
HETATM   14  C   UNL     1       0.526   7.332 -29.793  1.00  0.00     0.019 A 
BRANCH  12  15
HETATM   15  O   UNL     1       1.288   8.892 -26.570  1.00  0.00    -0.351 OA
BRANCH  15  16
HETATM   16  C   UNL     1       1.941   8.293 -25.440  1.00  0.00     0.175 C 
BRANCH  16  17
HETATM   17  C   UNL     1       2.574   9.405 -24.611  1.00  0.00     0.026 C 
BRANCH  17  18
HETATM   18  C   UNL     1       3.639   8.867 -23.659  1.00  0.00    -0.002 C 
HETATM   19  C   UNL     1       3.057   8.563 -22.289  1.00  0.00     0.005 C 
ENDBRANCH  17  18
ENDBRANCH  16  17
ENDBRANCH  15  16
ENDBRANCH  12  15
ENDBRANCH   6   9
ENDBRANCH   3   5
ENDBRANCH   1   3
BRANCH   1  20
HETATM   20  C   UNL     1      -3.608   2.927 -31.761  1.00  0.00     0.035 A 
HETATM   21  C   UNL     1      -3.792   1.728 -32.463  1.00  0.00     0.048 A 
HETATM   22  C   UNL     1      -4.754   0.789 -32.048  1.00  0.00     0.052 A 
HETATM   23  C   UNL     1      -5.560   1.105 -30.940  1.00  0.00     0.080 A 
HETATM   24  C   UNL     1      -5.423   2.316 -30.275  1.00  0.00     0.040 A 
HETATM   25  C   UNL     1      -4.451   3.224 -30.685  1.00  0.00     0.032 A 
BRANCH  22  26
HETATM   26  C   UNL     1      -4.911  -0.502 -32.712  1.00  0.00     0.183 A 
HETATM   27  O   UNL     1      -6.090  -0.750 -33.365  1.00  0.00    -0.289 OA
HETATM   28  C   UNL     1      -5.917  -2.003 -33.880  1.00  0.00     0.106 A 
HETATM   29  C   UNL     1      -4.654  -2.442 -33.520  1.00  0.00     0.093 A 
HETATM   30  C   UNL     1      -6.820  -2.739 -34.640  1.00  0.00     0.040 A 
HETATM   31  N   UNL     1      -4.025  -1.484 -32.769  1.00  0.00    -0.221 NA
HETATM   32  C   UNL     1      -4.225  -3.707 -33.939  1.00  0.00     0.034 A 
HETATM   33  C   UNL     1      -5.106  -4.481 -34.709  1.00  0.00     0.002 A 
HETATM   34  C   UNL     1      -6.378  -4.004 -35.050  1.00  0.00     0.003 A 
ENDBRANCH  22  26
BRANCH  23  35
HETATM   35  O   UNL     1      -6.523   0.262 -30.447  1.00  0.00    -0.360 OA
HETATM   36  H   UNL     1      -7.124   0.008 -31.181  1.00  0.00     0.217 HD
ENDBRANCH  23  35
ENDBRANCH   1  20
TORSDOF 10
ENDMDL
