MODEL 1
REMARK VINA RESULT:      -9.4      0.000      0.000
REMARK  5 active torsions:
REMARK  status: ('A' for Active; 'I' for Inactive)
REMARK    1  A    between atoms: O_2  and  C_3 
REMARK    2  A    between atoms: C_5  and  O_6 
REMARK    3  A    between atoms: C_9  and  N_10 
REMARK       I    between atoms: N_10  and  C_11 
REMARK    4  A    between atoms: C_11  and  C_12 
REMARK    5  A    between atoms: C_20  and  C_21 
ROOT
HETATM    1  C   UNL     1      -7.160   0.917 -33.141  1.00  0.00     0.047 A 
HETATM    2  C   UNL     1      -5.989   1.628 -32.778  1.00  0.00     0.008 A 
HETATM    3  C   UNL     1      -4.801   0.872 -32.753  1.00  0.00     0.068 A 
HETATM    4  C   UNL     1      -3.622   1.480 -32.346  1.00  0.00     0.032 A 
HETATM    5  C   UNL     1      -3.566   2.831 -31.995  1.00  0.00     0.002 A 
HETATM    6  C   UNL     1      -4.713   3.604 -32.074  1.00  0.00     0.001 A 
HETATM    7  C   UNL     1      -5.911   3.014 -32.473  1.00  0.00     0.015 A 
HETATM    8  N   UNL     1      -4.744  -0.418 -33.119  1.00  0.00    -0.248 NA
HETATM    9  C   UNL     1      -5.858  -1.051 -33.561  1.00  0.00     0.068 A 
HETATM   10  C   UNL     1      -7.086  -0.416 -33.554  1.00  0.00     0.050 A 
ENDROOT
BRANCH   1  11
HETATM   11  C   UNL     1      -8.529   1.504 -33.124  1.00  0.00     0.257 C 
HETATM   12  N   UNL     1      -9.019   1.900 -34.356  1.00  0.00    -0.323 N 
HETATM   13  H   UNL     1      -8.423   1.748 -35.161  1.00  0.00     0.169 HD
HETATM   14  O   UNL     1      -9.093   1.613 -32.042  1.00  0.00    -0.267 OA
BRANCH  12  15
HETATM   15  C   UNL     1     -10.302   2.416 -34.635  1.00  0.00     0.040 A 
HETATM   16  C   UNL     1     -11.462   1.634 -34.694  1.00  0.00     0.066 A 
HETATM   17  C   UNL     1     -12.701   2.223 -34.975  1.00  0.00     0.073 A 
HETATM   18  C   UNL     1     -12.770   3.585 -35.263  1.00  0.00     0.073 A 
HETATM   19  C   UNL     1     -11.613   4.354 -35.232  1.00  0.00     0.073 A 
HETATM   20  C   UNL     1     -10.392   3.791 -34.872  1.00  0.00     0.066 A 
BRANCH  17  21
HETATM   21  O   UNL     1     -13.902   1.565 -35.018  1.00  0.00    -0.356 OA
HETATM   22  C   UNL     1     -14.075   0.516 -34.070  1.00  0.00     0.210 C 
ENDBRANCH  17  21
BRANCH  19  23
HETATM   23  O   UNL     1     -11.676   5.694 -35.506  1.00  0.00    -0.356 OA
HETATM   24  C   UNL     1     -10.380   6.277 -35.354  1.00  0.00     0.210 C 
ENDBRANCH  19  23
ENDBRANCH  12  15
ENDBRANCH   1  11
BRANCH   9  25
HETATM   25  C   UNL     1      -5.659  -2.433 -34.051  1.00  0.00    -0.007 A 
HETATM   26  C   UNL     1      -6.699  -3.126 -34.698  1.00  0.00     0.014 A 
HETATM   27  C   UNL     1      -6.537  -4.440 -35.146  1.00  0.00     0.001 A 
HETATM   28  C   UNL     1      -5.326  -5.097 -34.954  1.00  0.00     0.000 A 
HETATM   29  C   UNL     1      -4.280  -4.440 -34.313  1.00  0.00     0.001 A 
HETATM   30  C   UNL     1      -4.446  -3.125 -33.865  1.00  0.00     0.014 A 
ENDBRANCH   9  25
TORSDOF 5
ENDMDL
MODEL 2
REMARK VINA RESULT:      -9.3      0.530      2.263
REMARK  5 active torsions:
REMARK  status: ('A' for Active; 'I' for Inactive)
REMARK    1  A    between atoms: O_2  and  C_3 
REMARK    2  A    between atoms: C_5  and  O_6 
REMARK    3  A    between atoms: C_9  and  N_10 
REMARK       I    between atoms: N_10  and  C_11 
REMARK    4  A    between atoms: C_11  and  C_12 
REMARK    5  A    between atoms: C_20  and  C_21 
ROOT
HETATM    1  C   UNL     1      -7.137   1.123 -33.137  1.00  0.00     0.047 A 
HETATM    2  C   UNL     1      -5.948   1.792 -32.753  1.00  0.00     0.008 A 
HETATM    3  C   UNL     1      -4.788   0.996 -32.712  1.00  0.00     0.068 A 
HETATM    4  C   UNL     1      -3.595   1.563 -32.285  1.00  0.00     0.032 A 
HETATM    5  C   UNL     1      -3.499   2.909 -31.928  1.00  0.00     0.002 A 
HETATM    6  C   UNL     1      -4.617   3.721 -32.021  1.00  0.00     0.001 A 
HETATM    7  C   UNL     1      -5.828   3.173 -32.442  1.00  0.00     0.015 A 
HETATM    8  N   UNL     1      -4.769  -0.294 -33.083  1.00  0.00    -0.248 NA
HETATM    9  C   UNL     1      -5.896  -0.887 -33.545  1.00  0.00     0.068 A 
HETATM   10  C   UNL     1      -7.102  -0.211 -33.555  1.00  0.00     0.050 A 
ENDROOT
BRANCH   1  11
HETATM   11  C   UNL     1      -8.486   1.755 -33.140  1.00  0.00     0.257 C 
HETATM   12  N   UNL     1      -8.960   2.134 -34.383  1.00  0.00    -0.323 N 
HETATM   13  H   UNL     1      -8.368   1.941 -35.182  1.00  0.00     0.169 HD
HETATM   14  O   UNL     1      -9.047   1.913 -32.063  1.00  0.00    -0.267 OA
BRANCH  12  15
HETATM   15  C   UNL     1     -10.224   2.685 -34.679  1.00  0.00     0.040 A 
HETATM   16  C   UNL     1     -10.459   4.054 -34.850  1.00  0.00     0.066 A 
HETATM   17  C   UNL     1     -11.745   4.523 -35.145  1.00  0.00     0.073 A 
HETATM   18  C   UNL     1     -12.812   3.627 -35.203  1.00  0.00     0.073 A 
HETATM   19  C   UNL     1     -12.582   2.271 -35.004  1.00  0.00     0.073 A 
HETATM   20  C   UNL     1     -11.293   1.790 -34.793  1.00  0.00     0.066 A 
BRANCH  17  21
HETATM   21  O   UNL     1     -12.081   5.832 -35.372  1.00  0.00    -0.356 OA
HETATM   22  C   UNL     1     -13.391   6.062 -35.883  1.00  0.00     0.210 C 
ENDBRANCH  17  21
BRANCH  19  23
HETATM   23  O   UNL     1     -13.624   1.386 -35.068  1.00  0.00    -0.356 OA
HETATM   24  C   UNL     1     -13.521   0.447 -33.995  1.00  0.00     0.210 C 
ENDBRANCH  19  23
ENDBRANCH  12  15
ENDBRANCH   1  11
BRANCH   9  25
HETATM   25  C   UNL     1      -5.736  -2.273 -34.038  1.00  0.00    -0.007 A 
HETATM   26  C   UNL     1      -6.817  -2.960 -34.622  1.00  0.00     0.014 A 
HETATM   27  C   UNL     1      -6.691  -4.278 -35.071  1.00  0.00     0.001 A 
HETATM   28  C   UNL     1      -5.476  -4.945 -34.942  1.00  0.00     0.000 A 
HETATM   29  C   UNL     1      -4.391  -4.294 -34.364  1.00  0.00     0.001 A 
HETATM   30  C   UNL     1      -4.521  -2.975 -33.915  1.00  0.00     0.014 A 
ENDBRANCH   9  25
TORSDOF 5
ENDMDL
MODEL 3
REMARK VINA RESULT:      -9.1      3.134      6.916
REMARK  5 active torsions:
REMARK  status: ('A' for Active; 'I' for Inactive)
REMARK    1  A    between atoms: O_2  and  C_3 
REMARK    2  A    between atoms: C_5  and  O_6 
REMARK    3  A    between atoms: C_9  and  N_10 
REMARK       I    between atoms: N_10  and  C_11 
REMARK    4  A    between atoms: C_11  and  C_12 
REMARK    5  A    between atoms: C_20  and  C_21 
ROOT
HETATM    1  C   UNL     1      -6.540   1.694 -33.433  1.00  0.00     0.047 A 
HETATM    2  C   UNL     1      -7.949   1.736 -33.284  1.00  0.00     0.008 A 
HETATM    3  C   UNL     1      -8.627   0.534 -33.563  1.00  0.00     0.068 A 
HETATM    4  C   UNL     1     -10.013   0.510 -33.501  1.00  0.00     0.032 A 
HETATM    5  C   UNL     1     -10.759   1.632 -33.135  1.00  0.00     0.002 A 
HETATM    6  C   UNL     1     -10.105   2.806 -32.798  1.00  0.00     0.001 A 
HETATM    7  C   UNL     1      -8.713   2.856 -32.858  1.00  0.00     0.015 A 
HETATM    8  N   UNL     1      -7.997  -0.609 -33.875  1.00  0.00    -0.248 NA
HETATM    9  C   UNL     1      -6.643  -0.653 -33.911  1.00  0.00     0.068 A 
HETATM   10  C   UNL     1      -5.889   0.491 -33.723  1.00  0.00     0.050 A 
ENDROOT
BRANCH   1  11
HETATM   11  C   UNL     1      -5.652   2.881 -33.291  1.00  0.00     0.257 C 
HETATM   12  N   UNL     1      -4.964   2.966 -32.093  1.00  0.00    -0.323 N 
HETATM   13  H   UNL     1      -5.106   2.219 -31.424  1.00  0.00     0.169 HD
HETATM   14  O   UNL     1      -5.619   3.686 -34.214  1.00  0.00    -0.267 OA
BRANCH  12  15
HETATM   15  C   UNL     1      -4.011   3.940 -31.728  1.00  0.00     0.040 A 
HETATM   16  C   UNL     1      -2.632   3.792 -31.917  1.00  0.00     0.066 A 
HETATM   17  C   UNL     1      -1.749   4.808 -31.529  1.00  0.00     0.073 A 
HETATM   18  C   UNL     1      -2.241   5.945 -30.889  1.00  0.00     0.073 A 
HETATM   19  C   UNL     1      -3.608   6.077 -30.677  1.00  0.00     0.073 A 
HETATM   20  C   UNL     1      -4.498   5.109 -31.135  1.00  0.00     0.066 A 
BRANCH  17  21
HETATM   21  O   UNL     1      -0.390   4.789 -31.702  1.00  0.00    -0.356 OA
HETATM   22  C   UNL     1       0.389   5.169 -30.572  1.00  0.00     0.210 C 
ENDBRANCH  17  21
BRANCH  19  23
HETATM   23  O   UNL     1      -4.097   7.195 -30.057  1.00  0.00    -0.356 OA
HETATM   24  C   UNL     1      -4.966   6.810 -28.989  1.00  0.00     0.210 C 
ENDBRANCH  19  23
ENDBRANCH  12  15
ENDBRANCH   1  11
BRANCH   9  25
HETATM   25  C   UNL     1      -6.049  -1.988 -34.147  1.00  0.00    -0.007 A 
HETATM   26  C   UNL     1      -6.820  -3.037 -34.681  1.00  0.00     0.014 A 
HETATM   27  C   UNL     1      -6.283  -4.311 -34.888  1.00  0.00     0.001 A 
HETATM   28  C   UNL     1      -4.955  -4.567 -34.562  1.00  0.00     0.000 A 
HETATM   29  C   UNL     1      -4.168  -3.552 -34.028  1.00  0.00     0.001 A 
HETATM   30  C   UNL     1      -4.709  -2.278 -33.821  1.00  0.00     0.014 A 
ENDBRANCH   9  25
TORSDOF 5
ENDMDL
MODEL 4
REMARK VINA RESULT:      -9.0      3.235      6.924
REMARK  5 active torsions:
REMARK  status: ('A' for Active; 'I' for Inactive)
REMARK    1  A    between atoms: O_2  and  C_3 
REMARK    2  A    between atoms: C_5  and  O_6 
REMARK    3  A    between atoms: C_9  and  N_10 
REMARK       I    between atoms: N_10  and  C_11 
REMARK    4  A    between atoms: C_11  and  C_12 
REMARK    5  A    between atoms: C_20  and  C_21 
ROOT
HETATM    1  C   UNL     1      -6.393   1.289 -32.442  1.00  0.00     0.047 A 
HETATM    2  C   UNL     1      -7.783   1.506 -32.610  1.00  0.00     0.008 A 
HETATM    3  C   UNL     1      -8.469   0.525 -33.352  1.00  0.00     0.068 A 
HETATM    4  C   UNL     1      -9.820   0.699 -33.614  1.00  0.00     0.032 A 
HETATM    5  C   UNL     1     -10.535   1.798 -33.135  1.00  0.00     0.002 A 
HETATM    6  C   UNL     1      -9.890   2.742 -32.351  1.00  0.00     0.001 A 
HETATM    7  C   UNL     1      -8.531   2.593 -32.080  1.00  0.00     0.015 A 
HETATM    8  N   UNL     1      -7.881  -0.590 -33.813  1.00  0.00    -0.248 NA
HETATM    9  C   UNL     1      -6.573  -0.829 -33.552  1.00  0.00     0.068 A 
HETATM   10  C   UNL     1      -5.797   0.108 -32.895  1.00  0.00     0.050 A 
ENDROOT
BRANCH   1  11
HETATM   11  C   UNL     1      -5.471   2.257 -31.785  1.00  0.00     0.257 C 
HETATM   12  N   UNL     1      -4.850   3.154 -32.636  1.00  0.00    -0.323 N 
HETATM   13  H   UNL     1      -5.079   3.092 -33.621  1.00  0.00     0.169 HD
HETATM   14  O   UNL     1      -5.317   2.169 -30.573  1.00  0.00    -0.267 OA
BRANCH  12  15
HETATM   15  C   UNL     1      -3.992   4.214 -32.274  1.00  0.00     0.040 A 
HETATM   16  C   UNL     1      -4.386   5.555 -32.224  1.00  0.00     0.066 A 
HETATM   17  C   UNL     1      -3.474   6.550 -31.853  1.00  0.00     0.073 A 
HETATM   18  C   UNL     1      -2.146   6.210 -31.596  1.00  0.00     0.073 A 
HETATM   19  C   UNL     1      -1.750   4.881 -31.674  1.00  0.00     0.073 A 
HETATM   20  C   UNL     1      -2.671   3.877 -31.961  1.00  0.00     0.066 A 
BRANCH  17  21
HETATM   21  O   UNL     1      -3.758   7.885 -31.731  1.00  0.00    -0.356 OA
HETATM   22  C   UNL     1      -2.745   8.689 -31.135  1.00  0.00     0.210 C 
ENDBRANCH  17  21
BRANCH  19  23
HETATM   23  O   UNL     1      -0.449   4.540 -31.414  1.00  0.00    -0.356 OA
HETATM   24  C   UNL     1       0.211   5.628 -30.765  1.00  0.00     0.210 C 
ENDBRANCH  19  23
ENDBRANCH  12  15
ENDBRANCH   1  11
BRANCH   9  25
HETATM   25  C   UNL     1      -6.057  -2.140 -34.003  1.00  0.00    -0.007 A 
HETATM   26  C   UNL     1      -6.913  -3.089 -34.593  1.00  0.00     0.014 A 
HETATM   27  C   UNL     1      -6.448  -4.342 -35.002  1.00  0.00     0.001 A 
HETATM   28  C   UNL     1      -5.110  -4.679 -34.828  1.00  0.00     0.000 A 
HETATM   29  C   UNL     1      -4.240  -3.765 -34.243  1.00  0.00     0.001 A 
HETATM   30  C   UNL     1      -4.709  -2.511 -33.833  1.00  0.00     0.014 A 
ENDBRANCH   9  25
TORSDOF 5
ENDMDL
MODEL 5
REMARK VINA RESULT:      -8.6      3.072      7.856
REMARK  5 active torsions:
REMARK  status: ('A' for Active; 'I' for Inactive)
REMARK    1  A    between atoms: O_2  and  C_3 
REMARK    2  A    between atoms: C_5  and  O_6 
REMARK    3  A    between atoms: C_9  and  N_10 
REMARK       I    between atoms: N_10  and  C_11 
REMARK    4  A    between atoms: C_11  and  C_12 
REMARK    5  A    between atoms: C_20  and  C_21 
ROOT
HETATM    1  C   UNL     1      -6.361   1.016 -32.710  1.00  0.00     0.047 A 
HETATM    2  C   UNL     1      -6.010  -0.218 -33.312  1.00  0.00     0.008 A 
HETATM    3  C   UNL     1      -7.064  -0.915 -33.933  1.00  0.00     0.068 A 
HETATM    4  C   UNL     1      -6.814  -2.161 -34.490  1.00  0.00     0.032 A 
HETATM    5  C   UNL     1      -5.541  -2.733 -34.490  1.00  0.00     0.002 A 
HETATM    6  C   UNL     1      -4.479  -2.033 -33.939  1.00  0.00     0.001 A 
HETATM    7  C   UNL     1      -4.707  -0.783 -33.367  1.00  0.00     0.015 A 
HETATM    8  N   UNL     1      -8.311  -0.428 -34.027  1.00  0.00    -0.248 NA
HETATM    9  C   UNL     1      -8.602   0.801 -33.535  1.00  0.00     0.068 A 
HETATM   10  C   UNL     1      -7.653   1.532 -32.844  1.00  0.00     0.050 A 
ENDROOT
BRANCH   1  11
HETATM   11  C   UNL     1      -5.420   1.852 -31.913  1.00  0.00     0.257 C 
HETATM   12  N   UNL     1      -4.809   2.881 -32.608  1.00  0.00    -0.323 N 
HETATM   13  H   UNL     1      -5.057   2.991 -33.584  1.00  0.00     0.169 HD
HETATM   14  O   UNL     1      -5.243   1.554 -30.738  1.00  0.00    -0.267 OA
BRANCH  12  15
HETATM   15  C   UNL     1      -3.937   3.858 -32.085  1.00  0.00     0.040 A 
HETATM   16  C   UNL     1      -2.543   3.808 -32.208  1.00  0.00     0.066 A 
HETATM   17  C   UNL     1      -1.745   4.821 -31.662  1.00  0.00     0.073 A 
HETATM   18  C   UNL     1      -2.337   5.851 -30.934  1.00  0.00     0.073 A 
HETATM   19  C   UNL     1      -3.719   5.884 -30.788  1.00  0.00     0.073 A 
HETATM   20  C   UNL     1      -4.524   4.926 -31.399  1.00  0.00     0.066 A 
BRANCH  17  21
HETATM   21  O   UNL     1      -0.380   4.895 -31.757  1.00  0.00    -0.356 OA
HETATM   22  C   UNL     1       0.282   5.595 -30.708  1.00  0.00     0.210 C 
ENDBRANCH  17  21
BRANCH  19  23
HETATM   23  O   UNL     1      -4.307   6.898 -30.081  1.00  0.00    -0.356 OA
HETATM   24  C   UNL     1      -3.406   7.365 -29.074  1.00  0.00     0.210 C 
ENDBRANCH  19  23
ENDBRANCH  12  15
ENDBRANCH   1  11
BRANCH   9  25
HETATM   25  C   UNL     1      -9.973   1.290 -33.798  1.00  0.00    -0.007 A 
HETATM   26  C   UNL     1     -11.095   0.516 -33.450  1.00  0.00     0.014 A 
HETATM   27  C   UNL     1     -12.397   0.952 -33.713  1.00  0.00     0.001 A 
HETATM   28  C   UNL     1     -12.608   2.178 -34.336  1.00  0.00     0.000 A 
HETATM   29  C   UNL     1     -11.519   2.964 -34.697  1.00  0.00     0.001 A 
HETATM   30  C   UNL     1     -10.217   2.525 -34.432  1.00  0.00     0.014 A 
ENDBRANCH   9  25
TORSDOF 5
ENDMDL
MODEL 6
REMARK VINA RESULT:      -8.5      3.212      7.957
REMARK  5 active torsions:
REMARK  status: ('A' for Active; 'I' for Inactive)
REMARK    1  A    between atoms: O_2  and  C_3 
REMARK    2  A    between atoms: C_5  and  O_6 
REMARK    3  A    between atoms: C_9  and  N_10 
REMARK       I    between atoms: N_10  and  C_11 
REMARK    4  A    between atoms: C_11  and  C_12 
REMARK    5  A    between atoms: C_20  and  C_21 
ROOT
HETATM    1  C   UNL     1      -6.581   1.242 -32.278  1.00  0.00     0.047 A 
HETATM    2  C   UNL     1      -6.180   0.067 -32.961  1.00  0.00     0.008 A 
HETATM    3  C   UNL     1      -7.216  -0.669 -33.567  1.00  0.00     0.068 A 
HETATM    4  C   UNL     1      -6.913  -1.866 -34.201  1.00  0.00     0.032 A 
HETATM    5  C   UNL     1      -5.606  -2.347 -34.291  1.00  0.00     0.002 A 
HETATM    6  C   UNL     1      -4.566  -1.605 -33.755  1.00  0.00     0.001 A 
HETATM    7  C   UNL     1      -4.847  -0.403 -33.107  1.00  0.00     0.015 A 
HETATM    8  N   UNL     1      -8.496  -0.264 -33.576  1.00  0.00    -0.248 NA
HETATM    9  C   UNL     1      -8.842   0.915 -33.006  1.00  0.00     0.068 A 
HETATM   10  C   UNL     1      -7.910   1.675 -32.323  1.00  0.00     0.050 A 
ENDROOT
BRANCH   1  11
HETATM   11  C   UNL     1      -5.658   2.100 -31.483  1.00  0.00     0.257 C 
HETATM   12  N   UNL     1      -4.990   3.075 -32.203  1.00  0.00    -0.323 N 
HETATM   13  H   UNL     1      -5.189   3.136 -33.194  1.00  0.00     0.169 HD
HETATM   14  O   UNL     1      -5.545   1.865 -30.287  1.00  0.00    -0.267 OA
BRANCH  12  15
HETATM   15  C   UNL     1      -4.119   4.061 -31.692  1.00  0.00     0.040 A 
HETATM   16  C   UNL     1      -4.550   5.219 -31.035  1.00  0.00     0.066 A 
HETATM   17  C   UNL     1      -3.622   6.150 -30.554  1.00  0.00     0.073 A 
HETATM   18  C   UNL     1      -2.262   5.956 -30.790  1.00  0.00     0.073 A 
HETATM   19  C   UNL     1      -1.837   4.819 -31.469  1.00  0.00     0.073 A 
HETATM   20  C   UNL     1      -2.749   3.850 -31.876  1.00  0.00     0.066 A 
BRANCH  17  21
HETATM   21  O   UNL     1      -3.927   7.293 -29.863  1.00  0.00    -0.356 OA
HETATM   22  C   UNL     1      -3.065   7.616 -28.776  1.00  0.00     0.210 C 
ENDBRANCH  17  21
BRANCH  19  23
HETATM   23  O   UNL     1      -0.502   4.620 -31.697  1.00  0.00    -0.356 OA
HETATM   24  C   UNL     1       0.264   5.369 -30.751  1.00  0.00     0.210 C 
ENDBRANCH  19  23
ENDBRANCH  12  15
ENDBRANCH   1  11
BRANCH   9  25
HETATM   25  C   UNL     1     -10.254   1.321 -33.177  1.00  0.00    -0.007 A 
HETATM   26  C   UNL     1     -10.641   2.666 -33.029  1.00  0.00     0.014 A 
HETATM   27  C   UNL     1     -11.975   3.065 -33.164  1.00  0.00     0.001 A 
HETATM   28  C   UNL     1     -12.957   2.122 -33.449  1.00  0.00     0.000 A 
HETATM   29  C   UNL     1     -12.607   0.784 -33.596  1.00  0.00     0.001 A 
HETATM   30  C   UNL     1     -11.271   0.388 -33.460  1.00  0.00     0.014 A 
ENDBRANCH   9  25
TORSDOF 5
ENDMDL
MODEL 7
REMARK VINA RESULT:      -8.3      2.244      8.717
REMARK  5 active torsions:
REMARK  status: ('A' for Active; 'I' for Inactive)
REMARK    1  A    between atoms: O_2  and  C_3 
REMARK    2  A    between atoms: C_5  and  O_6 
REMARK    3  A    between atoms: C_9  and  N_10 
REMARK       I    between atoms: N_10  and  C_11 
REMARK    4  A    between atoms: C_11  and  C_12 
REMARK    5  A    between atoms: C_20  and  C_21 
ROOT
HETATM    1  C   UNL     1     -10.686   1.718 -33.766  1.00  0.00     0.047 A 
HETATM    2  C   UNL     1     -11.973   1.127 -33.813  1.00  0.00     0.008 A 
HETATM    3  C   UNL     1     -13.025   1.986 -34.185  1.00  0.00     0.068 A 
HETATM    4  C   UNL     1     -14.324   1.499 -34.193  1.00  0.00     0.032 A 
HETATM    5  C   UNL     1     -14.621   0.171 -33.880  1.00  0.00     0.002 A 
HETATM    6  C   UNL     1     -13.592  -0.704 -33.572  1.00  0.00     0.001 A 
HETATM    7  C   UNL     1     -12.279  -0.236 -33.551  1.00  0.00     0.015 A 
HETATM    8  N   UNL     1     -12.835   3.263 -34.550  1.00  0.00    -0.248 NA
HETATM    9  C   UNL     1     -11.583   3.780 -34.598  1.00  0.00     0.068 A 
HETATM   10  C   UNL     1     -10.492   3.039 -34.182  1.00  0.00     0.050 A 
ENDROOT
BRANCH   1  11
HETATM   11  C   UNL     1      -9.462   1.012 -33.295  1.00  0.00     0.257 C 
HETATM   12  N   UNL     1      -8.637   0.526 -34.294  1.00  0.00    -0.323 N 
HETATM   13  H   UNL     1      -8.919   0.698 -35.251  1.00  0.00     0.169 HD
HETATM   14  O   UNL     1      -9.296   0.896 -32.087  1.00  0.00    -0.267 OA
BRANCH  12  15
HETATM   15  C   UNL     1      -7.390  -0.114 -34.130  1.00  0.00     0.040 A 
HETATM   16  C   UNL     1      -7.137  -1.439 -34.503  1.00  0.00     0.066 A 
HETATM   17  C   UNL     1      -5.869  -2.001 -34.310  1.00  0.00     0.073 A 
HETATM   18  C   UNL     1      -4.871  -1.258 -33.680  1.00  0.00     0.073 A 
HETATM   19  C   UNL     1      -5.133   0.049 -33.285  1.00  0.00     0.073 A 
HETATM   20  C   UNL     1      -6.365   0.641 -33.550  1.00  0.00     0.066 A 
BRANCH  17  21
HETATM   21  O   UNL     1      -5.498  -3.270 -34.672  1.00  0.00    -0.356 OA
HETATM   22  C   UNL     1      -6.556  -4.148 -35.043  1.00  0.00     0.210 C 
ENDBRANCH  17  21
BRANCH  19  23
HETATM   23  O   UNL     1      -4.154   0.786 -32.674  1.00  0.00    -0.356 OA
HETATM   24  C   UNL     1      -3.930   0.285 -31.354  1.00  0.00     0.210 C 
ENDBRANCH  19  23
ENDBRANCH  12  15
ENDBRANCH   1  11
BRANCH   9  25
HETATM   25  C   UNL     1     -11.476   5.157 -35.127  1.00  0.00    -0.007 A 
HETATM   26  C   UNL     1     -12.628   5.909 -35.423  1.00  0.00     0.014 A 
HETATM   27  C   UNL     1     -12.545   7.202 -35.947  1.00  0.00     0.001 A 
HETATM   28  C   UNL     1     -11.302   7.777 -36.190  1.00  0.00     0.000 A 
HETATM   29  C   UNL     1     -10.145   7.057 -35.912  1.00  0.00     0.001 A 
HETATM   30  C   UNL     1     -10.230   5.763 -35.389  1.00  0.00     0.014 A 
ENDBRANCH   9  25
TORSDOF 5
ENDMDL
MODEL 8
REMARK VINA RESULT:      -8.0      2.143      2.185
REMARK  5 active torsions:
REMARK  status: ('A' for Active; 'I' for Inactive)
REMARK    1  A    between atoms: O_2  and  C_3 
REMARK    2  A    between atoms: C_5  and  O_6 
REMARK    3  A    between atoms: C_9  and  N_10 
REMARK       I    between atoms: N_10  and  C_11 
REMARK    4  A    between atoms: C_11  and  C_12 
REMARK    5  A    between atoms: C_20  and  C_21 
ROOT
HETATM    1  C   UNL     1      -6.869   1.351 -33.288  1.00  0.00     0.047 A 
HETATM    2  C   UNL     1      -5.684   1.923 -32.764  1.00  0.00     0.008 A 
HETATM    3  C   UNL     1      -4.610   1.033 -32.574  1.00  0.00     0.068 A 
HETATM    4  C   UNL     1      -3.435   1.504 -32.005  1.00  0.00     0.032 A 
HETATM    5  C   UNL     1      -3.268   2.843 -31.648  1.00  0.00     0.002 A 
HETATM    6  C   UNL     1      -4.292   3.745 -31.884  1.00  0.00     0.001 A 
HETATM    7  C   UNL     1      -5.484   3.295 -32.449  1.00  0.00     0.015 A 
HETATM    8  N   UNL     1      -4.656  -0.260 -32.931  1.00  0.00    -0.248 NA
HETATM    9  C   UNL     1      -5.765  -0.763 -33.526  1.00  0.00     0.068 A 
HETATM   10  C   UNL     1      -6.898   0.012 -33.690  1.00  0.00     0.050 A 
ENDROOT
BRANCH   1  11
HETATM   11  C   UNL     1      -8.148   2.095 -33.463  1.00  0.00     0.257 C 
HETATM   12  N   UNL     1      -8.764   2.496 -32.290  1.00  0.00    -0.323 N 
HETATM   13  H   UNL     1      -8.298   2.267 -31.421  1.00  0.00     0.169 HD
HETATM   14  O   UNL     1      -8.560   2.268 -34.603  1.00  0.00    -0.267 OA
BRANCH  12  15
HETATM   15  C   UNL     1      -9.937   3.270 -32.168  1.00  0.00     0.040 A 
HETATM   16  C   UNL     1     -11.213   2.816 -32.520  1.00  0.00     0.066 A 
HETATM   17  C   UNL     1     -12.330   3.646 -32.367  1.00  0.00     0.073 A 
HETATM   18  C   UNL     1     -12.162   4.957 -31.924  1.00  0.00     0.073 A 
HETATM   19  C   UNL     1     -10.890   5.416 -31.602  1.00  0.00     0.073 A 
HETATM   20  C   UNL     1      -9.787   4.569 -31.673  1.00  0.00     0.066 A 
BRANCH  17  21
HETATM   21  O   UNL     1     -13.626   3.294 -32.640  1.00  0.00    -0.356 OA
HETATM   22  C   UNL     1     -13.804   2.263 -33.606  1.00  0.00     0.210 C 
ENDBRANCH  17  21
BRANCH  19  23
HETATM   23  O   UNL     1     -10.720   6.700 -31.158  1.00  0.00    -0.356 OA
HETATM   24  C   UNL     1      -9.872   6.701 -30.007  1.00  0.00     0.210 C 
ENDBRANCH  19  23
ENDBRANCH  12  15
ENDBRANCH   1  11
BRANCH   9  25
HETATM   25  C   UNL     1      -5.666  -2.166 -33.986  1.00  0.00    -0.007 A 
HETATM   26  C   UNL     1      -6.794  -2.844 -34.485  1.00  0.00     0.014 A 
HETATM   27  C   UNL     1      -6.724  -4.176 -34.902  1.00  0.00     0.001 A 
HETATM   28  C   UNL     1      -5.519  -4.867 -34.826  1.00  0.00     0.000 A 
HETATM   29  C   UNL     1      -4.388  -4.226 -34.332  1.00  0.00     0.001 A 
HETATM   30  C   UNL     1      -4.461  -2.893 -33.916  1.00  0.00     0.014 A 
ENDBRANCH   9  25
TORSDOF 5
ENDMDL
MODEL 9
REMARK VINA RESULT:      -8.0      2.317      8.931
REMARK  5 active torsions:
REMARK  status: ('A' for Active; 'I' for Inactive)
REMARK    1  A    between atoms: O_2  and  C_3 
REMARK    2  A    between atoms: C_5  and  O_6 
REMARK    3  A    between atoms: C_9  and  N_10 
REMARK       I    between atoms: N_10  and  C_11 
REMARK    4  A    between atoms: C_11  and  C_12 
REMARK    5  A    between atoms: C_20  and  C_21 
ROOT
HETATM    1  C   UNL     1     -10.441   1.574 -33.331  1.00  0.00     0.047 A 
HETATM    2  C   UNL     1     -11.770   1.114 -33.508  1.00  0.00     0.008 A 
HETATM    3  C   UNL     1     -12.738   2.114 -33.717  1.00  0.00     0.068 A 
HETATM    4  C   UNL     1     -14.071   1.749 -33.835  1.00  0.00     0.032 A 
HETATM    5  C   UNL     1     -14.483   0.416 -33.791  1.00  0.00     0.002 A 
HETATM    6  C   UNL     1     -13.537  -0.586 -33.648  1.00  0.00     0.001 A 
HETATM    7  C   UNL     1     -12.191  -0.243 -33.521  1.00  0.00     0.015 A 
HETATM    8  N   UNL     1     -12.436   3.418 -33.823  1.00  0.00    -0.248 NA
HETATM    9  C   UNL     1     -11.145   3.826 -33.754  1.00  0.00     0.068 A 
HETATM   10  C   UNL     1     -10.130   2.929 -33.479  1.00  0.00     0.050 A 
ENDROOT
BRANCH   1  11
HETATM   11  C   UNL     1      -9.291   0.690 -32.993  1.00  0.00     0.257 C 
HETATM   12  N   UNL     1      -8.477   0.343 -34.057  1.00  0.00    -0.323 N 
HETATM   13  H   UNL     1      -8.716   0.724 -34.965  1.00  0.00     0.169 HD
HETATM   14  O   UNL     1      -9.172   0.324 -31.830  1.00  0.00    -0.267 OA
BRANCH  12  15
HETATM   15  C   UNL     1      -7.290  -0.418 -34.007  1.00  0.00     0.040 A 
HETATM   16  C   UNL     1      -6.059   0.084 -33.569  1.00  0.00     0.066 A 
HETATM   17  C   UNL     1      -4.925  -0.737 -33.546  1.00  0.00     0.073 A 
HETATM   18  C   UNL     1      -5.007  -2.043 -34.026  1.00  0.00     0.073 A 
HETATM   19  C   UNL     1      -6.224  -2.531 -34.487  1.00  0.00     0.073 A 
HETATM   20  C   UNL     1      -7.373  -1.746 -34.434  1.00  0.00     0.066 A 
BRANCH  17  21
HETATM   21  O   UNL     1      -3.683  -0.365 -33.101  1.00  0.00    -0.356 OA
HETATM   22  C   UNL     1      -3.615   0.871 -32.398  1.00  0.00     0.210 C 
ENDBRANCH  17  21
BRANCH  19  23
HETATM   23  O   UNL     1      -6.312  -3.816 -34.951  1.00  0.00    -0.356 OA
HETATM   24  C   UNL     1      -5.140  -4.543 -34.578  1.00  0.00     0.210 C 
ENDBRANCH  19  23
ENDBRANCH  12  15
ENDBRANCH   1  11
BRANCH   9  25
HETATM   25  C   UNL     1     -10.913   5.266 -34.002  1.00  0.00    -0.007 A 
HETATM   26  C   UNL     1     -11.060   5.809 -35.292  1.00  0.00     0.014 A 
HETATM   27  C   UNL     1     -10.821   7.162 -35.550  1.00  0.00     0.001 A 
HETATM   28  C   UNL     1     -10.425   8.008 -34.519  1.00  0.00     0.000 A 
HETATM   29  C   UNL     1     -10.267   7.500 -33.234  1.00  0.00     0.001 A 
HETATM   30  C   UNL     1     -10.506   6.145 -32.979  1.00  0.00     0.014 A 
ENDBRANCH   9  25
TORSDOF 5
ENDMDL
MODEL 10
REMARK VINA RESULT:      -7.9      1.732      1.963
REMARK  5 active torsions:
REMARK  status: ('A' for Active; 'I' for Inactive)
REMARK    1  A    between atoms: O_2  and  C_3 
REMARK    2  A    between atoms: C_5  and  O_6 
REMARK    3  A    between atoms: C_9  and  N_10 
REMARK       I    between atoms: N_10  and  C_11 
REMARK    4  A    between atoms: C_11  and  C_12 
REMARK    5  A    between atoms: C_20  and  C_21 
ROOT
HETATM    1  C   UNL     1      -7.068   1.366 -32.523  1.00  0.00     0.047 A 
HETATM    2  C   UNL     1      -5.843   2.043 -32.298  1.00  0.00     0.008 A 
HETATM    3  C   UNL     1      -4.679   1.277 -32.499  1.00  0.00     0.068 A 
HETATM    4  C   UNL     1      -3.442   1.849 -32.237  1.00  0.00     0.032 A 
HETATM    5  C   UNL     1      -3.310   3.173 -31.815  1.00  0.00     0.002 A 
HETATM    6  C   UNL     1      -4.442   3.959 -31.671  1.00  0.00     0.001 A 
HETATM    7  C   UNL     1      -5.696   3.405 -31.922  1.00  0.00     0.015 A 
HETATM    8  N   UNL     1      -4.700   0.013 -32.950  1.00  0.00    -0.248 NA
HETATM    9  C   UNL     1      -5.878  -0.581 -33.258  1.00  0.00     0.068 A 
HETATM   10  C   UNL     1      -7.080   0.062 -33.027  1.00  0.00     0.050 A 
ENDROOT
BRANCH   1  11
HETATM   11  C   UNL     1      -8.409   1.961 -32.264  1.00  0.00     0.257 C 
HETATM   12  N   UNL     1      -8.856   2.854 -33.222  1.00  0.00    -0.323 N 
HETATM   13  H   UNL     1      -8.252   3.018 -34.018  1.00  0.00     0.169 HD
HETATM   14  O   UNL     1      -8.987   1.642 -31.233  1.00  0.00    -0.267 OA
BRANCH  12  15
HETATM   15  C   UNL     1     -10.109   3.502 -33.261  1.00  0.00     0.040 A 
HETATM   16  C   UNL     1     -10.790   3.954 -32.125  1.00  0.00     0.066 A 
HETATM   17  C   UNL     1     -12.030   4.591 -32.247  1.00  0.00     0.073 A 
HETATM   18  C   UNL     1     -12.622   4.718 -33.503  1.00  0.00     0.073 A 
HETATM   19  C   UNL     1     -11.957   4.243 -34.628  1.00  0.00     0.073 A 
HETATM   20  C   UNL     1     -10.687   3.683 -34.521  1.00  0.00     0.066 A 
BRANCH  17  21
HETATM   21  O   UNL     1     -12.764   5.108 -31.212  1.00  0.00    -0.356 OA
HETATM   22  C   UNL     1     -13.236   4.169 -30.250  1.00  0.00     0.210 C 
ENDBRANCH  17  21
BRANCH  19  23
HETATM   23  O   UNL     1     -12.530   4.372 -35.864  1.00  0.00    -0.356 OA
HETATM   24  C   UNL     1     -13.137   5.661 -35.980  1.00  0.00     0.210 C 
ENDBRANCH  19  23
ENDBRANCH  12  15
ENDBRANCH   1  11
BRANCH   9  25
HETATM   25  C   UNL     1      -5.779  -1.930 -33.858  1.00  0.00    -0.007 A 
HETATM   26  C   UNL     1      -6.914  -2.565 -34.397  1.00  0.00     0.014 A 
HETATM   27  C   UNL     1      -6.844  -3.849 -34.946  1.00  0.00     0.001 A 
HETATM   28  C   UNL     1      -5.632  -4.532 -34.967  1.00  0.00     0.000 A 
HETATM   29  C   UNL     1      -4.494  -3.932 -34.437  1.00  0.00     0.001 A 
HETATM   30  C   UNL     1      -4.567  -2.648 -33.888  1.00  0.00     0.014 A 
ENDBRANCH   9  25
TORSDOF 5
ENDMDL
