MODEL 1
REMARK VINA RESULT:      -8.7      0.000      0.000
REMARK  2 active torsions:
REMARK  status: ('A' for Active; 'I' for Inactive)
REMARK    1  A    between atoms: C_11  and  N_12 
REMARK    2  A    between atoms: N_12  and  C_13 
ROOT
HETATM    1  C   UNL     1      -5.900  -4.481 -35.449  1.00  0.00     0.010 C 
HETATM    2  C   UNL     1      -5.924  -3.362 -34.410  1.00  0.00    -0.014 C 
HETATM    3  C   UNL     1      -4.574  -2.619 -34.382  1.00  0.00     0.051 C 
HETATM    4  C   UNL     1      -4.680  -1.376 -33.551  1.00  0.00    -0.008 A 
HETATM    5  C   UNL     1      -5.855  -0.747 -33.177  1.00  0.00    -0.028 A 
HETATM    6  C   UNL     1      -5.599   0.413 -32.334  1.00  0.00     0.053 A 
HETATM    7  C   UNL     1      -4.228   0.609 -32.198  1.00  0.00     0.114 A 
HETATM    8  N   UNL     1      -3.614   1.587 -31.517  1.00  0.00    -0.234 NA
HETATM    9  C   UNL     1      -4.474   2.415 -30.934  1.00  0.00     0.236 A 
HETATM   10  N   UNL     1      -5.811   2.343 -30.958  1.00  0.00    -0.223 NA
HETATM   11  C   UNL     1      -6.423   1.344 -31.641  1.00  0.00     0.143 A 
HETATM   12  S   UNL     1      -3.295  -0.570 -32.998  1.00  0.00    -0.073 SA
HETATM   13  C   UNL     1      -7.188  -1.300 -33.598  1.00  0.00     0.041 C 
HETATM   14  C   UNL     1      -7.073  -2.375 -34.692  1.00  0.00     0.009 C 
ENDROOT
BRANCH  11  15
HETATM   15  N   UNL     1      -7.824   1.263 -31.658  1.00  0.00    -0.340 N 
HETATM   16  H   UNL     1      -8.221   0.913 -30.803  1.00  0.00     0.167 HD
BRANCH  15  17
HETATM   17  C   UNL     1      -8.796   1.717 -32.571  1.00  0.00     0.036 A 
HETATM   18  C   UNL     1      -9.953   0.935 -32.748  1.00  0.00     0.069 A 
HETATM   19  C   UNL     1     -10.909   1.348 -33.654  1.00  0.00     0.107 A 
HETATM   20  C   UNL     1     -10.758   2.494 -34.392  1.00  0.00     0.105 A 
HETATM   21  O   UNL     1     -12.077   0.705 -33.926  1.00  0.00    -0.323 OA
HETATM   22  O   UNL     1     -11.810   2.723 -35.222  1.00  0.00    -0.323 OA
HETATM   23  C   UNL     1      -9.639   3.284 -34.267  1.00  0.00     0.042 A 
HETATM   24  C   UNL     1     -12.643   1.585 -34.921  1.00  0.00     0.352 A 
HETATM   25  C   UNL     1      -8.654   2.882 -33.354  1.00  0.00     0.032 A 
ENDBRANCH  15  17
ENDBRANCH  11  15
TORSDOF 2
ENDMDL
MODEL 2
REMARK VINA RESULT:      -8.7      1.732      2.551
REMARK  2 active torsions:
REMARK  status: ('A' for Active; 'I' for Inactive)
REMARK    1  A    between atoms: C_11  and  N_12 
REMARK    2  A    between atoms: N_12  and  C_13 
ROOT
HETATM    1  C   UNL     1      -5.829  -3.180 -34.964  1.00  0.00     0.010 C 
HETATM    2  C   UNL     1      -6.551  -2.033 -34.260  1.00  0.00    -0.014 C 
HETATM    3  C   UNL     1      -5.740  -1.549 -33.041  1.00  0.00     0.051 C 
HETATM    4  C   UNL     1      -6.317  -0.275 -32.503  1.00  0.00    -0.008 A 
HETATM    5  C   UNL     1      -7.180   0.573 -33.177  1.00  0.00    -0.028 A 
HETATM    6  C   UNL     1      -7.582   1.701 -32.347  1.00  0.00     0.053 A 
HETATM    7  C   UNL     1      -6.924   1.648 -31.121  1.00  0.00     0.114 A 
HETATM    8  N   UNL     1      -7.022   2.525 -30.112  1.00  0.00    -0.234 NA
HETATM    9  C   UNL     1      -7.859   3.519 -30.384  1.00  0.00     0.236 A 
HETATM   10  N   UNL     1      -8.575   3.692 -31.502  1.00  0.00    -0.223 NA
HETATM   11  C   UNL     1      -8.477   2.794 -32.515  1.00  0.00     0.143 A 
HETATM   12  S   UNL     1      -5.914   0.287 -30.956  1.00  0.00    -0.073 SA
HETATM   13  C   UNL     1      -7.630   0.257 -34.576  1.00  0.00     0.041 C 
HETATM   14  C   UNL     1      -6.807  -0.865 -35.231  1.00  0.00     0.009 C 
ENDROOT
BRANCH  11  15
HETATM   15  N   UNL     1      -9.235   2.971 -33.683  1.00  0.00    -0.340 N 
HETATM   16  H   UNL     1      -8.704   3.322 -34.461  1.00  0.00     0.167 HD
BRANCH  15  17
HETATM   17  C   UNL     1     -10.551   2.610 -34.032  1.00  0.00     0.036 A 
HETATM   18  C   UNL     1     -11.077   1.423 -33.489  1.00  0.00     0.069 A 
HETATM   19  C   UNL     1     -12.357   1.037 -33.834  1.00  0.00     0.107 A 
HETATM   20  C   UNL     1     -13.125   1.774 -34.699  1.00  0.00     0.105 A 
HETATM   21  O   UNL     1     -13.000  -0.074 -33.385  1.00  0.00    -0.323 OA
HETATM   22  O   UNL     1     -14.351   1.225 -34.905  1.00  0.00    -0.323 OA
HETATM   23  C   UNL     1     -12.651   2.932 -35.268  1.00  0.00     0.042 A 
HETATM   24  C   UNL     1     -14.266   0.053 -34.069  1.00  0.00     0.352 A 
HETATM   25  C   UNL     1     -11.352   3.342 -34.933  1.00  0.00     0.032 A 
ENDBRANCH  15  17
ENDBRANCH  11  15
TORSDOF 2
ENDMDL
MODEL 3
REMARK VINA RESULT:      -8.5      3.229      6.491
REMARK  2 active torsions:
REMARK  status: ('A' for Active; 'I' for Inactive)
REMARK    1  A    between atoms: C_11  and  N_12 
REMARK    2  A    between atoms: N_12  and  C_13 
ROOT
HETATM    1  C   UNL     1     -14.418   0.910 -34.600  1.00  0.00     0.010 C 
HETATM    2  C   UNL     1     -12.922   1.215 -34.588  1.00  0.00    -0.014 C 
HETATM    3  C   UNL     1     -12.679   2.737 -34.602  1.00  0.00     0.051 C 
HETATM    4  C   UNL     1     -11.234   3.037 -34.339  1.00  0.00    -0.008 A 
HETATM    5  C   UNL     1     -10.312   2.167 -33.784  1.00  0.00    -0.028 A 
HETATM    6  C   UNL     1      -8.986   2.765 -33.708  1.00  0.00     0.053 A 
HETATM    7  C   UNL     1      -9.033   4.083 -34.154  1.00  0.00     0.114 A 
HETATM    8  N   UNL     1      -8.016   4.955 -34.208  1.00  0.00    -0.234 NA
HETATM    9  C   UNL     1      -6.874   4.428 -33.778  1.00  0.00     0.236 A 
HETATM   10  N   UNL     1      -6.671   3.179 -33.343  1.00  0.00    -0.223 NA
HETATM   11  C   UNL     1      -7.704   2.301 -33.301  1.00  0.00     0.143 A 
HETATM   12  S   UNL     1     -10.578   4.562 -34.684  1.00  0.00    -0.073 SA
HETATM   13  C   UNL     1     -10.716   0.774 -33.384  1.00  0.00     0.041 C 
HETATM   14  C   UNL     1     -12.241   0.576 -33.363  1.00  0.00     0.009 C 
ENDROOT
BRANCH  11  15
HETATM   15  N   UNL     1      -7.489   0.988 -32.853  1.00  0.00    -0.340 N 
HETATM   16  H   UNL     1      -8.129   0.695 -32.134  1.00  0.00     0.167 HD
BRANCH  15  17
HETATM   17  C   UNL     1      -6.662  -0.055 -33.312  1.00  0.00     0.036 A 
HETATM   18  C   UNL     1      -7.277  -1.189 -33.874  1.00  0.00     0.069 A 
HETATM   19  C   UNL     1      -6.487  -2.234 -34.310  1.00  0.00     0.107 A 
HETATM   20  C   UNL     1      -5.120  -2.201 -34.201  1.00  0.00     0.105 A 
HETATM   21  O   UNL     1      -6.936  -3.385 -34.880  1.00  0.00    -0.323 OA
HETATM   22  O   UNL     1      -4.531  -3.323 -34.691  1.00  0.00    -0.323 OA
HETATM   23  C   UNL     1      -4.473  -1.123 -33.645  1.00  0.00     0.042 A 
HETATM   24  C   UNL     1      -5.688  -4.071 -35.119  1.00  0.00     0.352 A 
HETATM   25  C   UNL     1      -5.256  -0.051 -33.194  1.00  0.00     0.032 A 
ENDBRANCH  15  17
ENDBRANCH  11  15
TORSDOF 2
ENDMDL
MODEL 4
REMARK VINA RESULT:      -8.5      4.627      6.812
REMARK  2 active torsions:
REMARK  status: ('A' for Active; 'I' for Inactive)
REMARK    1  A    between atoms: C_11  and  N_12 
REMARK    2  A    between atoms: N_12  and  C_13 
ROOT
HETATM    1  C   UNL     1      -5.265  -3.982 -34.649  1.00  0.00     0.010 C 
HETATM    2  C   UNL     1      -5.288  -2.457 -34.569  1.00  0.00    -0.014 C 
HETATM    3  C   UNL     1      -6.738  -1.940 -34.493  1.00  0.00     0.051 C 
HETATM    4  C   UNL     1      -6.754  -0.477 -34.165  1.00  0.00    -0.008 A 
HETATM    5  C   UNL     1      -5.703   0.246 -33.628  1.00  0.00    -0.028 A 
HETATM    6  C   UNL     1      -6.042   1.655 -33.475  1.00  0.00     0.053 A 
HETATM    7  C   UNL     1      -7.365   1.868 -33.850  1.00  0.00     0.114 A 
HETATM    8  N   UNL     1      -8.036   3.029 -33.823  1.00  0.00    -0.234 NA
HETATM    9  C   UNL     1      -7.289   4.036 -33.384  1.00  0.00     0.236 A 
HETATM   10  N   UNL     1      -6.004   3.988 -33.010  1.00  0.00    -0.223 NA
HETATM   11  C   UNL     1      -5.331   2.812 -33.051  1.00  0.00     0.143 A 
HETATM   12  S   UNL     1      -8.146   0.461 -34.406  1.00  0.00    -0.073 SA
HETATM   13  C   UNL     1      -4.392  -0.422 -33.318  1.00  0.00     0.041 C 
HETATM   14  C   UNL     1      -4.477  -1.957 -33.358  1.00  0.00     0.009 C 
ENDROOT
BRANCH  11  15
HETATM   15  N   UNL     1      -3.981   2.763 -32.667  1.00  0.00    -0.340 N 
HETATM   16  H   UNL     1      -3.642   1.833 -32.492  1.00  0.00     0.167 HD
BRANCH  15  17
HETATM   17  C   UNL     1      -2.964   3.737 -32.628  1.00  0.00     0.036 A 
HETATM   18  C   UNL     1      -2.477   4.133 -31.368  1.00  0.00     0.069 A 
HETATM   19  C   UNL     1      -1.496   5.103 -31.303  1.00  0.00     0.107 A 
HETATM   20  C   UNL     1      -0.990   5.695 -32.432  1.00  0.00     0.105 A 
HETATM   21  O   UNL     1      -0.924   5.579 -30.165  1.00  0.00    -0.323 OA
HETATM   22  O   UNL     1      -0.033   6.619 -32.152  1.00  0.00    -0.323 OA
HETATM   23  C   UNL     1      -1.443   5.354 -33.684  1.00  0.00     0.042 A 
HETATM   24  C   UNL     1       0.003   6.541 -30.712  1.00  0.00     0.352 A 
HETATM   25  C   UNL     1      -2.441   4.373 -33.773  1.00  0.00     0.032 A 
ENDBRANCH  15  17
ENDBRANCH  11  15
TORSDOF 2
ENDMDL
MODEL 5
REMARK VINA RESULT:      -8.4      1.392      2.179
REMARK  2 active torsions:
REMARK  status: ('A' for Active; 'I' for Inactive)
REMARK    1  A    between atoms: C_11  and  N_12 
REMARK    2  A    between atoms: N_12  and  C_13 
ROOT
HETATM    1  C   UNL     1      -4.670  -3.184 -34.987  1.00  0.00     0.010 C 
HETATM    2  C   UNL     1      -5.366  -2.262 -33.988  1.00  0.00    -0.014 C 
HETATM    3  C   UNL     1      -4.448  -1.085 -33.606  1.00  0.00     0.051 C 
HETATM    4  C   UNL     1      -5.213  -0.056 -32.829  1.00  0.00    -0.008 A 
HETATM    5  C   UNL     1      -6.591   0.060 -32.774  1.00  0.00    -0.028 A 
HETATM    6  C   UNL     1      -7.005   1.142 -31.891  1.00  0.00     0.053 A 
HETATM    7  C   UNL     1      -5.886   1.809 -31.401  1.00  0.00     0.114 A 
HETATM    8  N   UNL     1      -5.872   2.870 -30.581  1.00  0.00    -0.234 NA
HETATM    9  C   UNL     1      -7.095   3.264 -30.242  1.00  0.00     0.236 A 
HETATM   10  N   UNL     1      -8.256   2.712 -30.614  1.00  0.00    -0.223 NA
HETATM   11  C   UNL     1      -8.261   1.633 -31.436  1.00  0.00     0.143 A 
HETATM   12  S   UNL     1      -4.414   1.139 -31.932  1.00  0.00    -0.073 SA
HETATM   13  C   UNL     1      -7.472  -0.896 -33.531  1.00  0.00     0.041 C 
HETATM   14  C   UNL     1      -6.698  -1.738 -34.559  1.00  0.00     0.009 C 
ENDROOT
BRANCH  11  15
HETATM   15  N   UNL     1      -9.478   1.049 -31.819  1.00  0.00    -0.340 N 
HETATM   16  H   UNL     1      -9.848   0.403 -31.144  1.00  0.00     0.167 HD
BRANCH  15  17
HETATM   17  C   UNL     1     -10.364   1.300 -32.885  1.00  0.00     0.036 A 
HETATM   18  C   UNL     1     -10.238   2.519 -33.577  1.00  0.00     0.069 A 
HETATM   19  C   UNL     1     -11.110   2.797 -34.611  1.00  0.00     0.107 A 
HETATM   20  C   UNL     1     -12.100   1.921 -34.976  1.00  0.00     0.105 A 
HETATM   21  O   UNL     1     -11.105   3.924 -35.373  1.00  0.00    -0.323 OA
HETATM   22  O   UNL     1     -12.846   2.381 -36.015  1.00  0.00    -0.323 OA
HETATM   23  C   UNL     1     -12.274   0.725 -34.322  1.00  0.00     0.042 A 
HETATM   24  C   UNL     1     -12.210   3.652 -36.262  1.00  0.00     0.352 A 
HETATM   25  C   UNL     1     -11.401   0.423 -33.267  1.00  0.00     0.032 A 
ENDBRANCH  15  17
ENDBRANCH  11  15
TORSDOF 2
ENDMDL
MODEL 6
REMARK VINA RESULT:      -8.2      3.356      6.430
REMARK  2 active torsions:
REMARK  status: ('A' for Active; 'I' for Inactive)
REMARK    1  A    between atoms: C_11  and  N_12 
REMARK    2  A    between atoms: N_12  and  C_13 
ROOT
HETATM    1  C   UNL     1     -12.846   2.180 -33.695  1.00  0.00     0.010 C 
HETATM    2  C   UNL     1     -11.319   2.210 -33.679  1.00  0.00    -0.014 C 
HETATM    3  C   UNL     1     -10.802   2.774 -32.341  1.00  0.00     0.051 C 
HETATM    4  C   UNL     1      -9.321   2.573 -32.227  1.00  0.00    -0.008 A 
HETATM    5  C   UNL     1      -8.561   1.693 -32.978  1.00  0.00    -0.028 A 
HETATM    6  C   UNL     1      -7.147   1.781 -32.642  1.00  0.00     0.053 A 
HETATM    7  C   UNL     1      -6.962   2.684 -31.598  1.00  0.00     0.114 A 
HETATM    8  N   UNL     1      -5.804   3.008 -31.005  1.00  0.00    -0.234 NA
HETATM    9  C   UNL     1      -4.768   2.361 -31.528  1.00  0.00     0.236 A 
HETATM   10  N   UNL     1      -4.788   1.486 -32.540  1.00  0.00    -0.223 NA
HETATM   11  C   UNL     1      -5.962   1.171 -33.141  1.00  0.00     0.143 A 
HETATM   12  S   UNL     1      -8.405   3.426 -31.083  1.00  0.00    -0.073 SA
HETATM   13  C   UNL     1      -9.204   0.827 -34.026  1.00  0.00     0.041 C 
HETATM   14  C   UNL     1     -10.738   0.805 -33.928  1.00  0.00     0.009 C 
ENDROOT
BRANCH  11  15
HETATM   15  N   UNL     1      -5.981   0.260 -34.209  1.00  0.00    -0.340 N 
HETATM   16  H   UNL     1      -5.946   0.696 -35.114  1.00  0.00     0.167 HD
BRANCH  15  17
HETATM   17  C   UNL     1      -5.884  -1.144 -34.269  1.00  0.00     0.036 A 
HETATM   18  C   UNL     1      -4.678  -1.740 -33.856  1.00  0.00     0.069 A 
HETATM   19  C   UNL     1      -4.551  -3.114 -33.927  1.00  0.00     0.107 A 
HETATM   20  C   UNL     1      -5.564  -3.910 -34.398  1.00  0.00     0.105 A 
HETATM   21  O   UNL     1      -3.455  -3.830 -33.558  1.00  0.00    -0.323 OA
HETATM   22  O   UNL     1      -5.239  -5.229 -34.383  1.00  0.00    -0.323 OA
HETATM   23  C   UNL     1      -6.754  -3.374 -34.827  1.00  0.00     0.042 A 
HETATM   24  C   UNL     1      -3.900  -5.172 -33.851  1.00  0.00     0.352 A 
HETATM   25  C   UNL     1      -6.905  -1.981 -34.765  1.00  0.00     0.032 A 
ENDBRANCH  15  17
ENDBRANCH  11  15
TORSDOF 2
ENDMDL
MODEL 7
REMARK VINA RESULT:      -8.1      3.829      6.922
REMARK  2 active torsions:
REMARK  status: ('A' for Active; 'I' for Inactive)
REMARK    1  A    between atoms: C_11  and  N_12 
REMARK    2  A    between atoms: N_12  and  C_13 
ROOT
HETATM    1  C   UNL     1      -0.403   6.673 -32.114  1.00  0.00     0.010 C 
HETATM    2  C   UNL     1      -1.438   5.593 -31.807  1.00  0.00    -0.014 C 
HETATM    3  C   UNL     1      -2.696   6.214 -31.169  1.00  0.00     0.051 C 
HETATM    4  C   UNL     1      -3.800   5.202 -31.098  1.00  0.00    -0.008 A 
HETATM    5  C   UNL     1      -3.867   4.022 -31.821  1.00  0.00    -0.028 A 
HETATM    6  C   UNL     1      -5.054   3.250 -31.479  1.00  0.00     0.053 A 
HETATM    7  C   UNL     1      -5.833   3.955 -30.566  1.00  0.00     0.114 A 
HETATM    8  N   UNL     1      -7.007   3.574 -30.041  1.00  0.00    -0.234 NA
HETATM    9  C   UNL     1      -7.398   2.385 -30.485  1.00  0.00     0.236 A 
HETATM   10  N   UNL     1      -6.750   1.586 -31.342  1.00  0.00    -0.223 NA
HETATM   11  C   UNL     1      -5.558   1.975 -31.860  1.00  0.00     0.143 A 
HETATM   12  S   UNL     1      -5.150   5.443 -30.102  1.00  0.00    -0.073 SA
HETATM   13  C   UNL     1      -2.772   3.648 -32.781  1.00  0.00     0.041 C 
HETATM   14  C   UNL     1      -1.814   4.813 -33.082  1.00  0.00     0.009 C 
ENDROOT
BRANCH  11  15
HETATM   15  N   UNL     1      -4.874   1.134 -32.752  1.00  0.00    -0.340 N 
HETATM   16  H   UNL     1      -3.916   1.399 -32.905  1.00  0.00     0.167 HD
BRANCH  15  17
HETATM   17  C   UNL     1      -5.209  -0.094 -33.355  1.00  0.00     0.036 A 
HETATM   18  C   UNL     1      -4.357  -1.193 -33.135  1.00  0.00     0.069 A 
HETATM   19  C   UNL     1      -4.653  -2.401 -33.735  1.00  0.00     0.107 A 
HETATM   20  C   UNL     1      -5.748  -2.556 -34.545  1.00  0.00     0.105 A 
HETATM   21  O   UNL     1      -3.932  -3.547 -33.609  1.00  0.00    -0.323 OA
HETATM   22  O   UNL     1      -5.861  -3.820 -35.033  1.00  0.00    -0.323 OA
HETATM   23  C   UNL     1      -6.602  -1.510 -34.803  1.00  0.00     0.042 A 
HETATM   24  C   UNL     1      -4.706  -4.443 -34.436  1.00  0.00     0.352 A 
HETATM   25  C   UNL     1      -6.320  -0.273 -34.206  1.00  0.00     0.032 A 
ENDBRANCH  15  17
ENDBRANCH  11  15
TORSDOF 2
ENDMDL
MODEL 8
REMARK VINA RESULT:      -8.1      4.038      6.121
REMARK  2 active torsions:
REMARK  status: ('A' for Active; 'I' for Inactive)
REMARK    1  A    between atoms: C_11  and  N_12 
REMARK    2  A    between atoms: N_12  and  C_13 
ROOT
HETATM    1  C   UNL     1      -5.651  -2.743 -34.991  1.00  0.00     0.010 C 
HETATM    2  C   UNL     1      -5.892  -1.393 -34.319  1.00  0.00    -0.014 C 
HETATM    3  C   UNL     1      -7.304  -1.339 -33.703  1.00  0.00     0.051 C 
HETATM    4  C   UNL     1      -7.449  -0.124 -32.837  1.00  0.00    -0.008 A 
HETATM    5  C   UNL     1      -6.411   0.638 -32.327  1.00  0.00    -0.028 A 
HETATM    6  C   UNL     1      -6.905   1.774 -31.560  1.00  0.00     0.053 A 
HETATM    7  C   UNL     1      -8.295   1.734 -31.494  1.00  0.00     0.114 A 
HETATM    8  N   UNL     1      -9.099   2.597 -30.856  1.00  0.00    -0.234 NA
HETATM    9  C   UNL     1      -8.422   3.567 -30.251  1.00  0.00     0.236 A 
HETATM   10  N   UNL     1      -7.096   3.747 -30.244  1.00  0.00    -0.223 NA
HETATM   11  C   UNL     1      -6.291   2.875 -30.900  1.00  0.00     0.143 A 
HETATM   12  S   UNL     1      -8.975   0.431 -32.352  1.00  0.00    -0.073 SA
HETATM   13  C   UNL     1      -4.981   0.283 -32.626  1.00  0.00     0.041 C 
HETATM   14  C   UNL     1      -4.827  -1.118 -33.241  1.00  0.00     0.009 C 
ENDROOT
BRANCH  11  15
HETATM   15  N   UNL     1      -4.901   3.068 -30.900  1.00  0.00    -0.340 N 
HETATM   16  H   UNL     1      -4.385   2.307 -30.493  1.00  0.00     0.167 HD
BRANCH  15  17
HETATM   17  C   UNL     1      -4.071   4.040 -31.494  1.00  0.00     0.036 A 
HETATM   18  C   UNL     1      -3.447   3.719 -32.714  1.00  0.00     0.069 A 
HETATM   19  C   UNL     1      -2.611   4.648 -33.303  1.00  0.00     0.107 A 
HETATM   20  C   UNL     1      -2.366   5.868 -32.727  1.00  0.00     0.105 A 
HETATM   21  O   UNL     1      -1.948   4.485 -34.480  1.00  0.00    -0.323 OA
HETATM   22  O   UNL     1      -1.521   6.633 -33.466  1.00  0.00    -0.323 OA
HETATM   23  C   UNL     1      -2.940   6.221 -31.529  1.00  0.00     0.042 A 
HETATM   24  C   UNL     1      -1.259   5.750 -34.576  1.00  0.00     0.352 A 
HETATM   25  C   UNL     1      -3.790   5.293 -30.911  1.00  0.00     0.032 A 
ENDBRANCH  15  17
ENDBRANCH  11  15
TORSDOF 2
ENDMDL
MODEL 9
REMARK VINA RESULT:      -8.1      2.000      2.991
REMARK  2 active torsions:
REMARK  status: ('A' for Active; 'I' for Inactive)
REMARK    1  A    between atoms: C_11  and  N_12 
REMARK    2  A    between atoms: N_12  and  C_13 
ROOT
HETATM    1  C   UNL     1      -3.897  -2.899 -33.225  1.00  0.00     0.010 C 
HETATM    2  C   UNL     1      -4.872  -1.729 -33.109  1.00  0.00    -0.014 C 
HETATM    3  C   UNL     1      -4.123  -0.433 -32.741  1.00  0.00     0.051 C 
HETATM    4  C   UNL     1      -5.033   0.751 -32.872  1.00  0.00    -0.008 A 
HETATM    5  C   UNL     1      -6.226   0.784 -33.573  1.00  0.00    -0.028 A 
HETATM    6  C   UNL     1      -6.880   2.080 -33.458  1.00  0.00     0.053 A 
HETATM    7  C   UNL     1      -6.080   2.954 -32.728  1.00  0.00     0.114 A 
HETATM    8  N   UNL     1      -6.339   4.238 -32.438  1.00  0.00    -0.234 NA
HETATM    9  C   UNL     1      -7.505   4.643 -32.930  1.00  0.00     0.236 A 
HETATM   10  N   UNL     1      -8.385   3.916 -33.629  1.00  0.00    -0.223 NA
HETATM   11  C   UNL     1      -8.119   2.616 -33.909  1.00  0.00     0.143 A 
HETATM   12  S   UNL     1      -4.641   2.241 -32.165  1.00  0.00    -0.073 SA
HETATM   13  C   UNL     1      -6.727  -0.438 -34.292  1.00  0.00     0.041 C 
HETATM   14  C   UNL     1      -5.660  -1.538 -34.419  1.00  0.00     0.009 C 
ENDROOT
BRANCH  11  15
HETATM   15  N   UNL     1      -9.047   1.851 -34.634  1.00  0.00    -0.340 N 
HETATM   16  H   UNL     1      -8.716   1.562 -35.538  1.00  0.00     0.167 HD
BRANCH  15  17
HETATM   17  C   UNL     1     -10.287   1.276 -34.292  1.00  0.00     0.036 A 
HETATM   18  C   UNL     1     -11.449   1.820 -34.870  1.00  0.00     0.069 A 
HETATM   19  C   UNL     1     -12.678   1.288 -34.531  1.00  0.00     0.107 A 
HETATM   20  C   UNL     1     -12.796   0.251 -33.641  1.00  0.00     0.105 A 
HETATM   21  O   UNL     1     -13.882   1.700 -35.012  1.00  0.00    -0.323 OA
HETATM   22  O   UNL     1     -14.087  -0.126 -33.448  1.00  0.00    -0.323 OA
HETATM   23  C   UNL     1     -11.692  -0.304 -33.038  1.00  0.00     0.042 A 
HETATM   24  C   UNL     1     -14.771   0.797 -34.320  1.00  0.00     0.352 A 
HETATM   25  C   UNL     1     -10.434   0.222 -33.366  1.00  0.00     0.032 A 
ENDBRANCH  15  17
ENDBRANCH  11  15
TORSDOF 2
ENDMDL
MODEL 10
REMARK VINA RESULT:      -7.8      3.845      6.249
REMARK  2 active torsions:
REMARK  status: ('A' for Active; 'I' for Inactive)
REMARK    1  A    between atoms: C_11  and  N_12 
REMARK    2  A    between atoms: N_12  and  C_13 
ROOT
HETATM    1  C   UNL     1     -10.278   1.412 -34.214  1.00  0.00     0.010 C 
HETATM    2  C   UNL     1      -8.987   1.124 -33.451  1.00  0.00    -0.014 C 
HETATM    3  C   UNL     1      -8.240  -0.068 -34.081  1.00  0.00     0.051 C 
HETATM    4  C   UNL     1      -6.866  -0.192 -33.494  1.00  0.00    -0.008 A 
HETATM    5  C   UNL     1      -6.189   0.794 -32.797  1.00  0.00    -0.028 A 
HETATM    6  C   UNL     1      -4.891   0.326 -32.328  1.00  0.00     0.053 A 
HETATM    7  C   UNL     1      -4.662  -0.971 -32.778  1.00  0.00     0.114 A 
HETATM    8  N   UNL     1      -3.570  -1.720 -32.567  1.00  0.00    -0.234 NA
HETATM    9  C   UNL     1      -2.657  -1.088 -31.838  1.00  0.00     0.236 A 
HETATM   10  N   UNL     1      -2.743   0.144 -31.321  1.00  0.00    -0.223 NA
HETATM   11  C   UNL     1      -3.856   0.890 -31.531  1.00  0.00     0.143 A 
HETATM   12  S   UNL     1      -5.960  -1.614 -33.674  1.00  0.00    -0.073 SA
HETATM   13  C   UNL     1      -6.821   2.137 -32.560  1.00  0.00     0.041 C 
HETATM   14  C   UNL     1      -8.078   2.367 -33.417  1.00  0.00     0.009 C 
ENDROOT
BRANCH  11  15
HETATM   15  N   UNL     1      -3.951   2.178 -30.981  1.00  0.00    -0.340 N 
HETATM   16  H   UNL     1      -4.128   2.184 -29.991  1.00  0.00     0.167 HD
BRANCH  15  17
HETATM   17  C   UNL     1      -3.694   3.461 -31.502  1.00  0.00     0.036 A 
HETATM   18  C   UNL     1      -2.702   3.585 -32.493  1.00  0.00     0.069 A 
HETATM   19  C   UNL     1      -2.417   4.836 -33.004  1.00  0.00     0.107 A 
HETATM   20  C   UNL     1      -3.067   5.961 -32.564  1.00  0.00     0.105 A 
HETATM   21  O   UNL     1      -1.495   5.110 -33.966  1.00  0.00    -0.323 OA
HETATM   22  O   UNL     1      -2.642   7.088 -33.194  1.00  0.00    -0.323 OA
HETATM   23  C   UNL     1      -4.032   5.894 -31.588  1.00  0.00     0.042 A 
HETATM   24  C   UNL     1      -1.645   6.542 -34.081  1.00  0.00     0.352 A 
HETATM   25  C   UNL     1      -4.337   4.634 -31.054  1.00  0.00     0.032 A 
ENDBRANCH  15  17
ENDBRANCH  11  15
TORSDOF 2
ENDMDL
