MODEL 1
REMARK VINA RESULT:      -9.3      0.000      0.000
REMARK  3 active torsions:
REMARK  status: ('A' for Active; 'I' for Inactive)
REMARK    1  A    between atoms: C_4  and  N_5 
REMARK       I    between atoms: N_5  and  C_6 
REMARK    2  A    between atoms: C_6  and  C_8 
REMARK    3  A    between atoms: C_21  and  C_22 
ROOT
HETATM    1  F   UNL     1      -5.246   6.311 -33.323  1.00  0.00    -0.205 F 
HETATM    2  C   UNL     1      -4.435   5.409 -32.746  1.00  0.00     0.132 A 
HETATM    3  C   UNL     1      -4.737   4.056 -32.944  1.00  0.00     0.072 A 
HETATM    4  C   UNL     1      -3.933   3.064 -32.385  1.00  0.00     0.040 A 
HETATM    5  C   UNL     1      -2.824   3.454 -31.631  1.00  0.00     0.072 A 
HETATM    6  C   UNL     1      -2.529   4.808 -31.450  1.00  0.00     0.132 A 
HETATM    7  F   UNL     1      -1.447   5.112 -30.716  1.00  0.00    -0.205 F 
HETATM    8  C   UNL     1      -3.327   5.816 -31.997  1.00  0.00     0.054 A 
ENDROOT
BRANCH   4   9
HETATM    9  N   UNL     1      -4.160   1.678 -32.532  1.00  0.00    -0.327 N 
HETATM   10  C   UNL     1      -5.379   1.017 -32.482  1.00  0.00     0.228 C 
HETATM   11  O   UNL     1      -6.467   1.544 -32.280  1.00  0.00    -0.273 OA
HETATM   12  H   UNL     1      -3.336   1.109 -32.686  1.00  0.00     0.169 HD
BRANCH  10  13
HETATM   13  C   UNL     1      -5.247  -0.483 -32.702  1.00  0.00     0.107 C 
HETATM   14  C   UNL     1      -3.845  -0.854 -33.169  1.00  0.00     0.190 C 
HETATM   15  O   UNL     1      -3.662  -2.273 -33.192  1.00  0.00    -0.350 OA
HETATM   16  C   UNL     1      -4.649  -2.954 -33.857  1.00  0.00     0.075 A 
HETATM   17  C   UNL     1      -4.360  -4.271 -34.210  1.00  0.00     0.037 A 
HETATM   18  C   UNL     1      -5.902  -2.402 -34.150  1.00  0.00    -0.024 A 
HETATM   19  C   UNL     1      -5.305  -5.037 -34.891  1.00  0.00     0.003 A 
HETATM   20  C   UNL     1      -6.543  -4.485 -35.216  1.00  0.00     0.001 A 
HETATM   21  C   UNL     1      -6.841  -3.172 -34.848  1.00  0.00     0.010 A 
HETATM   22  C   UNL     1      -6.232  -0.989 -33.757  1.00  0.00     0.057 C 
ENDBRANCH  10  13
ENDBRANCH   4   9
BRANCH   8  23
HETATM   23  C   UNL     1      -2.999   7.218 -31.797  1.00  0.00     0.016 A 
HETATM   24  C   UNL     1      -1.991   8.026 -32.380  1.00  0.00     0.152 A 
HETATM   25  N   UNL     1      -2.006   9.282 -31.927  1.00  0.00    -0.187 NA
HETATM   26  N   UNL     1      -3.018   9.286 -31.046  1.00  0.00    -0.289 N 
HETATM   27  H   UNL     1      -3.229  10.151 -30.559  1.00  0.00     0.188 HD
HETATM   28  C   UNL     1      -3.637   8.076 -30.925  1.00  0.00     0.123 A 
ENDBRANCH   8  23
TORSDOF 3
ENDMDL
MODEL 2
REMARK VINA RESULT:      -8.9      3.453      9.346
REMARK  3 active torsions:
REMARK  status: ('A' for Active; 'I' for Inactive)
REMARK    1  A    between atoms: C_4  and  N_5 
REMARK       I    between atoms: N_5  and  C_6 
REMARK    2  A    between atoms: C_6  and  C_8 
REMARK    3  A    between atoms: C_21  and  C_22 
ROOT
HETATM    1  F   UNL     1      -7.049  -0.631 -35.168  1.00  0.00    -0.205 F 
HETATM    2  C   UNL     1      -6.024  -0.616 -34.301  1.00  0.00     0.132 A 
HETATM    3  C   UNL     1      -5.632   0.628 -33.792  1.00  0.00     0.072 A 
HETATM    4  C   UNL     1      -4.583   0.718 -32.879  1.00  0.00     0.040 A 
HETATM    5  C   UNL     1      -3.940  -0.457 -32.486  1.00  0.00     0.072 A 
HETATM    6  C   UNL     1      -4.349  -1.693 -32.995  1.00  0.00     0.132 A 
HETATM    7  F   UNL     1      -3.690  -2.784 -32.572  1.00  0.00    -0.205 F 
HETATM    8  C   UNL     1      -5.395  -1.803 -33.915  1.00  0.00     0.054 A 
ENDROOT
BRANCH   4   9
HETATM    9  N   UNL     1      -4.121   1.928 -32.314  1.00  0.00    -0.327 N 
HETATM   10  C   UNL     1      -4.845   2.823 -31.540  1.00  0.00     0.228 C 
HETATM   11  O   UNL     1      -6.028   2.708 -31.235  1.00  0.00    -0.273 OA
HETATM   12  H   UNL     1      -3.154   2.163 -32.504  1.00  0.00     0.169 HD
BRANCH  10  13
HETATM   13  C   UNL     1      -4.017   4.015 -31.083  1.00  0.00     0.107 C 
HETATM   14  C   UNL     1      -4.575   5.322 -31.633  1.00  0.00     0.190 C 
HETATM   15  O   UNL     1      -3.918   6.454 -31.054  1.00  0.00    -0.350 OA
HETATM   16  C   UNL     1      -2.549   6.391 -31.099  1.00  0.00     0.075 A 
HETATM   17  C   UNL     1      -1.869   7.586 -30.875  1.00  0.00     0.037 A 
HETATM   18  C   UNL     1      -1.840   5.203 -31.320  1.00  0.00    -0.024 A 
HETATM   19  C   UNL     1      -0.476   7.615 -30.906  1.00  0.00     0.003 A 
HETATM   20  C   UNL     1       0.239   6.445 -31.157  1.00  0.00     0.001 A 
HETATM   21  C   UNL     1      -0.441   5.243 -31.365  1.00  0.00     0.010 A 
HETATM   22  C   UNL     1      -2.563   3.905 -31.545  1.00  0.00     0.057 C 
ENDBRANCH  10  13
ENDBRANCH   4   9
BRANCH   8  23
HETATM   23  C   UNL     1      -5.802  -3.100 -34.429  1.00  0.00     0.016 A 
HETATM   24  C   UNL     1      -5.033  -4.212 -34.854  1.00  0.00     0.152 A 
HETATM   25  N   UNL     1      -5.784  -5.234 -35.272  1.00  0.00    -0.187 NA
HETATM   26  N   UNL     1      -7.039  -4.783 -35.122  1.00  0.00    -0.289 N 
HETATM   27  H   UNL     1      -7.805  -5.396 -35.379  1.00  0.00     0.188 HD
HETATM   28  C   UNL     1      -7.104  -3.511 -34.631  1.00  0.00     0.123 A 
ENDBRANCH   8  23
TORSDOF 3
ENDMDL
MODEL 3
REMARK VINA RESULT:      -8.7      1.708      2.432
REMARK  3 active torsions:
REMARK  status: ('A' for Active; 'I' for Inactive)
REMARK    1  A    between atoms: C_4  and  N_5 
REMARK       I    between atoms: N_5  and  C_6 
REMARK    2  A    between atoms: C_6  and  C_8 
REMARK    3  A    between atoms: C_21  and  C_22 
ROOT
HETATM    1  F   UNL     1      -0.739   5.803 -32.037  1.00  0.00    -0.205 F 
HETATM    2  C   UNL     1      -1.970   5.344 -31.759  1.00  0.00     0.132 A 
HETATM    3  C   UNL     1      -2.374   4.164 -32.394  1.00  0.00     0.072 A 
HETATM    4  C   UNL     1      -3.634   3.624 -32.146  1.00  0.00     0.040 A 
HETATM    5  C   UNL     1      -4.476   4.285 -31.250  1.00  0.00     0.072 A 
HETATM    6  C   UNL     1      -4.056   5.457 -30.615  1.00  0.00     0.132 A 
HETATM    7  F   UNL     1      -4.914   6.040 -29.763  1.00  0.00    -0.205 F 
HETATM    8  C   UNL     1      -2.799   6.017 -30.856  1.00  0.00     0.054 A 
ENDROOT
BRANCH   4   9
HETATM    9  N   UNL     1      -4.124   2.440 -32.740  1.00  0.00    -0.327 N 
HETATM   10  C   UNL     1      -3.815   1.134 -32.388  1.00  0.00     0.228 C 
HETATM   11  O   UNL     1      -3.039   0.800 -31.499  1.00  0.00    -0.273 OA
HETATM   12  H   UNL     1      -4.768   2.566 -33.512  1.00  0.00     0.169 HD
BRANCH  10  13
HETATM   13  C   UNL     1      -4.547   0.104 -33.236  1.00  0.00     0.107 C 
HETATM   14  C   UNL     1      -6.001  -0.038 -32.804  1.00  0.00     0.190 C 
HETATM   15  O   UNL     1      -6.739  -0.858 -33.715  1.00  0.00    -0.350 OA
HETATM   16  C   UNL     1      -6.140  -2.059 -33.997  1.00  0.00     0.075 A 
HETATM   17  C   UNL     1      -6.950  -3.028 -34.588  1.00  0.00     0.037 A 
HETATM   18  C   UNL     1      -4.787  -2.321 -33.752  1.00  0.00    -0.024 A 
HETATM   19  C   UNL     1      -6.425  -4.279 -34.905  1.00  0.00     0.003 A 
HETATM   20  C   UNL     1      -5.087  -4.562 -34.636  1.00  0.00     0.001 A 
HETATM   21  C   UNL     1      -4.270  -3.587 -34.060  1.00  0.00     0.010 A 
HETATM   22  C   UNL     1      -3.899  -1.278 -33.133  1.00  0.00     0.057 C 
ENDBRANCH  10  13
ENDBRANCH   4   9
BRANCH   8  23
HETATM   23  C   UNL     1      -2.384   7.236 -30.182  1.00  0.00     0.016 A 
HETATM   24  C   UNL     1      -1.777   7.435 -28.917  1.00  0.00     0.152 A 
HETATM   25  N   UNL     1      -1.552   8.723 -28.645  1.00  0.00    -0.187 NA
HETATM   26  N   UNL     1      -2.019   9.359 -29.731  1.00  0.00    -0.289 N 
HETATM   27  H   UNL     1      -1.957  10.371 -29.760  1.00  0.00     0.188 HD
HETATM   28  C   UNL     1      -2.534   8.517 -30.673  1.00  0.00     0.123 A 
ENDBRANCH   8  23
TORSDOF 3
ENDMDL
MODEL 4
REMARK VINA RESULT:      -8.6      5.477      9.101
REMARK  3 active torsions:
REMARK  status: ('A' for Active; 'I' for Inactive)
REMARK    1  A    between atoms: C_4  and  N_5 
REMARK       I    between atoms: N_5  and  C_6 
REMARK    2  A    between atoms: C_6  and  C_8 
REMARK    3  A    between atoms: C_21  and  C_22 
ROOT
HETATM    1  F   UNL     1     -11.227  -0.588 -32.932  1.00  0.00    -0.205 F 
HETATM    2  C   UNL     1     -10.775   0.646 -33.208  1.00  0.00     0.132 A 
HETATM    3  C   UNL     1      -9.399   0.869 -33.083  1.00  0.00     0.072 A 
HETATM    4  C   UNL     1      -8.859   2.123 -33.364  1.00  0.00     0.040 A 
HETATM    5  C   UNL     1      -9.720   3.142 -33.774  1.00  0.00     0.072 A 
HETATM    6  C   UNL     1     -11.091   2.902 -33.904  1.00  0.00     0.132 A 
HETATM    7  F   UNL     1     -11.862   3.925 -34.305  1.00  0.00    -0.205 F 
HETATM    8  C   UNL     1     -11.652   1.654 -33.620  1.00  0.00     0.054 A 
ENDROOT
BRANCH   4   9
HETATM    9  N   UNL     1      -7.485   2.438 -33.267  1.00  0.00    -0.327 N 
HETATM   10  C   UNL     1      -6.653   2.237 -32.175  1.00  0.00     0.228 C 
HETATM   11  O   UNL     1      -6.993   1.760 -31.098  1.00  0.00    -0.273 OA
HETATM   12  H   UNL     1      -7.070   2.863 -34.088  1.00  0.00     0.169 HD
BRANCH  10  13
HETATM   13  C   UNL     1      -5.220   2.680 -32.434  1.00  0.00     0.107 C 
HETATM   14  C   UNL     1      -4.561   3.197 -31.161  1.00  0.00     0.190 C 
HETATM   15  O   UNL     1      -3.163   3.433 -31.357  1.00  0.00    -0.350 OA
HETATM   16  C   UNL     1      -2.873   4.192 -32.461  1.00  0.00     0.075 A 
HETATM   17  C   UNL     1      -1.591   4.738 -32.514  1.00  0.00     0.037 A 
HETATM   18  C   UNL     1      -3.775   4.398 -33.513  1.00  0.00    -0.024 A 
HETATM   19  C   UNL     1      -1.211   5.526 -33.600  1.00  0.00     0.003 A 
HETATM   20  C   UNL     1      -2.113   5.765 -34.636  1.00  0.00     0.001 A 
HETATM   21  C   UNL     1      -3.390   5.203 -34.593  1.00  0.00     0.010 A 
HETATM   22  C   UNL     1      -5.152   3.798 -33.475  1.00  0.00     0.057 C 
ENDBRANCH  10  13
ENDBRANCH   4   9
BRANCH   8  23
HETATM   23  C   UNL     1     -13.081   1.429 -33.765  1.00  0.00     0.016 A 
HETATM   24  C   UNL     1     -13.802   0.599 -34.659  1.00  0.00     0.152 A 
HETATM   25  N   UNL     1     -15.124   0.671 -34.482  1.00  0.00    -0.187 NA
HETATM   26  N   UNL     1     -15.259   1.551 -33.479  1.00  0.00    -0.289 N 
HETATM   27  H   UNL     1     -16.195   1.776 -33.157  1.00  0.00     0.188 HD
HETATM   28  C   UNL     1     -14.069   2.040 -33.022  1.00  0.00     0.123 A 
ENDBRANCH   8  23
TORSDOF 3
ENDMDL
MODEL 5
REMARK VINA RESULT:      -8.5      5.723      7.094
REMARK  3 active torsions:
REMARK  status: ('A' for Active; 'I' for Inactive)
REMARK    1  A    between atoms: C_4  and  N_5 
REMARK       I    between atoms: N_5  and  C_6 
REMARK    2  A    between atoms: C_6  and  C_8 
REMARK    3  A    between atoms: C_21  and  C_22 
ROOT
HETATM    1  F   UNL     1     -11.189   4.359 -31.178  1.00  0.00    -0.205 F 
HETATM    2  C   UNL     1     -11.069   3.493 -32.197  1.00  0.00     0.132 A 
HETATM    3  C   UNL     1     -10.037   2.551 -32.122  1.00  0.00     0.072 A 
HETATM    4  C   UNL     1      -9.859   1.615 -33.139  1.00  0.00     0.040 A 
HETATM    5  C   UNL     1     -10.736   1.639 -34.225  1.00  0.00     0.072 A 
HETATM    6  C   UNL     1     -11.769   2.579 -34.282  1.00  0.00     0.132 A 
HETATM    7  F   UNL     1     -12.577   2.544 -35.354  1.00  0.00    -0.205 F 
HETATM    8  C   UNL     1     -11.958   3.529 -33.276  1.00  0.00     0.054 A 
ENDROOT
BRANCH   4   9
HETATM    9  N   UNL     1      -8.847   0.629 -33.146  1.00  0.00    -0.327 N 
HETATM   10  C   UNL     1      -7.553   0.758 -33.629  1.00  0.00     0.228 C 
HETATM   11  O   UNL     1      -7.084   1.764 -34.150  1.00  0.00    -0.273 OA
HETATM   12  H   UNL     1      -9.105  -0.272 -32.759  1.00  0.00     0.169 HD
BRANCH  10  13
HETATM   13  C   UNL     1      -6.728  -0.509 -33.455  1.00  0.00     0.107 C 
HETATM   14  C   UNL     1      -5.249  -0.246 -33.706  1.00  0.00     0.190 C 
HETATM   15  O   UNL     1      -4.450  -1.381 -33.358  1.00  0.00    -0.350 OA
HETATM   16  C   UNL     1      -4.889  -2.561 -33.902  1.00  0.00     0.075 A 
HETATM   17  C   UNL     1      -3.982  -3.620 -33.889  1.00  0.00     0.037 A 
HETATM   18  C   UNL     1      -6.179  -2.739 -34.417  1.00  0.00    -0.024 A 
HETATM   19  C   UNL     1      -4.343  -4.856 -34.425  1.00  0.00     0.003 A 
HETATM   20  C   UNL     1      -5.613  -5.034 -34.970  1.00  0.00     0.001 A 
HETATM   21  C   UNL     1      -6.528  -3.980 -34.967  1.00  0.00     0.010 A 
HETATM   22  C   UNL     1      -7.171  -1.610 -34.419  1.00  0.00     0.057 C 
ENDBRANCH  10  13
ENDBRANCH   4   9
BRANCH   8  23
HETATM   23  C   UNL     1     -13.041   4.495 -33.357  1.00  0.00     0.016 A 
HETATM   24  C   UNL     1     -13.146   5.711 -34.078  1.00  0.00     0.152 A 
HETATM   25  N   UNL     1     -14.314   6.329 -33.887  1.00  0.00    -0.187 NA
HETATM   26  N   UNL     1     -14.964   5.517 -33.039  1.00  0.00    -0.289 N 
HETATM   27  H   UNL     1     -15.897   5.780 -32.740  1.00  0.00     0.188 HD
HETATM   28  C   UNL     1     -14.243   4.413 -32.685  1.00  0.00     0.123 A 
ENDBRANCH   8  23
TORSDOF 3
ENDMDL
MODEL 6
REMARK VINA RESULT:      -8.4      7.393     10.000
REMARK  3 active torsions:
REMARK  status: ('A' for Active; 'I' for Inactive)
REMARK    1  A    between atoms: C_4  and  N_5 
REMARK       I    between atoms: N_5  and  C_6 
REMARK    2  A    between atoms: C_6  and  C_8 
REMARK    3  A    between atoms: C_21  and  C_22 
ROOT
HETATM    1  F   UNL     1      -7.465   0.156 -35.748  1.00  0.00    -0.205 F 
HETATM    2  C   UNL     1      -8.011   0.425 -34.550  1.00  0.00     0.132 A 
HETATM    3  C   UNL     1      -9.247   1.080 -34.541  1.00  0.00     0.072 A 
HETATM    4  C   UNL     1      -9.878   1.382 -33.336  1.00  0.00     0.040 A 
HETATM    5  C   UNL     1      -9.248   1.012 -32.145  1.00  0.00     0.072 A 
HETATM    6  C   UNL     1      -8.018   0.349 -32.170  1.00  0.00     0.132 A 
HETATM    7  F   UNL     1      -7.470   0.020 -30.989  1.00  0.00    -0.205 F 
HETATM    8  C   UNL     1      -7.368   0.044 -33.369  1.00  0.00     0.054 A 
ENDROOT
BRANCH   4   9
HETATM    9  N   UNL     1     -11.124   2.038 -33.231  1.00  0.00    -0.327 N 
HETATM   10  C   UNL     1     -12.381   1.493 -33.446  1.00  0.00     0.228 C 
HETATM   11  O   UNL     1     -12.608   0.335 -33.783  1.00  0.00    -0.273 OA
HETATM   12  H   UNL     1     -11.087   3.019 -32.977  1.00  0.00     0.169 HD
BRANCH  10  13
HETATM   13  C   UNL     1     -13.506   2.493 -33.223  1.00  0.00     0.107 C 
HETATM   14  C   UNL     1     -13.114   3.549 -32.197  1.00  0.00     0.190 C 
HETATM   15  O   UNL     1     -14.088   4.595 -32.127  1.00  0.00    -0.350 OA
HETATM   16  C   UNL     1     -15.376   4.151 -31.978  1.00  0.00     0.075 A 
HETATM   17  C   UNL     1     -16.311   5.098 -31.563  1.00  0.00     0.037 A 
HETATM   18  C   UNL     1     -15.774   2.836 -32.252  1.00  0.00    -0.024 A 
HETATM   19  C   UNL     1     -17.644   4.733 -31.382  1.00  0.00     0.003 A 
HETATM   20  C   UNL     1     -18.044   3.419 -31.620  1.00  0.00     0.001 A 
HETATM   21  C   UNL     1     -17.113   2.473 -32.053  1.00  0.00     0.010 A 
HETATM   22  C   UNL     1     -14.779   1.811 -32.718  1.00  0.00     0.057 C 
ENDBRANCH  10  13
ENDBRANCH   4   9
BRANCH   8  23
HETATM   23  C   UNL     1      -6.090  -0.647 -33.368  1.00  0.00     0.016 A 
HETATM   24  C   UNL     1      -5.728  -1.926 -33.861  1.00  0.00     0.152 A 
HETATM   25  N   UNL     1      -4.438  -2.212 -33.665  1.00  0.00    -0.187 NA
HETATM   26  N   UNL     1      -3.966  -1.122 -33.040  1.00  0.00    -0.289 N 
HETATM   27  H   UNL     1      -2.986  -1.102 -32.781  1.00  0.00     0.188 HD
HETATM   28  C   UNL     1      -4.915  -0.164 -32.831  1.00  0.00     0.123 A 
ENDBRANCH   8  23
TORSDOF 3
ENDMDL
MODEL 7
REMARK VINA RESULT:      -8.3      4.151      5.381
REMARK  3 active torsions:
REMARK  status: ('A' for Active; 'I' for Inactive)
REMARK    1  A    between atoms: C_4  and  N_5 
REMARK       I    between atoms: N_5  and  C_6 
REMARK    2  A    between atoms: C_6  and  C_8 
REMARK    3  A    between atoms: C_21  and  C_22 
ROOT
HETATM    1  F   UNL     1      -4.021   5.392 -30.863  1.00  0.00    -0.205 F 
HETATM    2  C   UNL     1      -4.631   4.952 -31.976  1.00  0.00     0.132 A 
HETATM    3  C   UNL     1      -5.825   4.240 -31.814  1.00  0.00     0.072 A 
HETATM    4  C   UNL     1      -6.518   3.762 -32.924  1.00  0.00     0.040 A 
HETATM    5  C   UNL     1      -5.994   4.013 -34.194  1.00  0.00     0.072 A 
HETATM    6  C   UNL     1      -4.806   4.734 -34.341  1.00  0.00     0.132 A 
HETATM    7  F   UNL     1      -4.360   4.942 -35.590  1.00  0.00    -0.205 F 
HETATM    8  C   UNL     1      -4.094   5.215 -33.239  1.00  0.00     0.054 A 
ENDROOT
BRANCH   4   9
HETATM    9  N   UNL     1      -7.729   3.037 -32.856  1.00  0.00    -0.327 N 
HETATM   10  C   UNL     1      -7.967   1.865 -32.152  1.00  0.00     0.228 C 
HETATM   11  O   UNL     1      -7.141   1.257 -31.481  1.00  0.00    -0.273 OA
HETATM   12  H   UNL     1      -8.502   3.418 -33.388  1.00  0.00     0.169 HD
BRANCH  10  13
HETATM   13  C   UNL     1      -9.400   1.373 -32.292  1.00  0.00     0.107 C 
HETATM   14  C   UNL     1      -9.447  -0.046 -32.847  1.00  0.00     0.190 C 
HETATM   15  O   UNL     1     -10.773  -0.581 -32.800  1.00  0.00    -0.350 OA
HETATM   16  C   UNL     1     -11.728   0.242 -33.339  1.00  0.00     0.075 A 
HETATM   17  C   UNL     1     -12.956  -0.349 -33.634  1.00  0.00     0.037 A 
HETATM   18  C   UNL     1     -11.529   1.610 -33.562  1.00  0.00    -0.024 A 
HETATM   19  C   UNL     1     -13.984   0.413 -34.189  1.00  0.00     0.003 A 
HETATM   20  C   UNL     1     -13.784   1.769 -34.445  1.00  0.00     0.001 A 
HETATM   21  C   UNL     1     -12.562   2.366 -34.134  1.00  0.00     0.010 A 
HETATM   22  C   UNL     1     -10.216   2.262 -33.231  1.00  0.00     0.057 C 
ENDBRANCH  10  13
ENDBRANCH   4   9
BRANCH   8  23
HETATM   23  C   UNL     1      -2.861   5.964 -33.418  1.00  0.00     0.016 A 
HETATM   24  C   UNL     1      -2.562   7.328 -33.177  1.00  0.00     0.152 A 
HETATM   25  N   UNL     1      -1.299   7.644 -33.477  1.00  0.00    -0.187 NA
HETATM   26  N   UNL     1      -0.782   6.486 -33.917  1.00  0.00    -0.289 N 
HETATM   27  H   UNL     1       0.189   6.473 -34.210  1.00  0.00     0.188 HD
HETATM   28  C   UNL     1      -1.677   5.456 -33.910  1.00  0.00     0.123 A 
ENDBRANCH   8  23
TORSDOF 3
ENDMDL
MODEL 8
REMARK VINA RESULT:      -8.3      3.808      9.565
REMARK  3 active torsions:
REMARK  status: ('A' for Active; 'I' for Inactive)
REMARK    1  A    between atoms: C_4  and  N_5 
REMARK       I    between atoms: N_5  and  C_6 
REMARK    2  A    between atoms: C_6  and  C_8 
REMARK    3  A    between atoms: C_21  and  C_22 
ROOT
HETATM    1  F   UNL     1      -4.132  -0.420 -31.328  1.00  0.00    -0.205 F 
HETATM    2  C   UNL     1      -4.237   0.854 -31.740  1.00  0.00     0.132 A 
HETATM    3  C   UNL     1      -3.314   1.772 -31.227  1.00  0.00     0.072 A 
HETATM    4  C   UNL     1      -3.356   3.109 -31.618  1.00  0.00     0.040 A 
HETATM    5  C   UNL     1      -4.336   3.505 -32.530  1.00  0.00     0.072 A 
HETATM    6  C   UNL     1      -5.245   2.575 -33.042  1.00  0.00     0.132 A 
HETATM    7  F   UNL     1      -6.159   3.022 -33.918  1.00  0.00    -0.205 F 
HETATM    8  C   UNL     1      -5.222   1.231 -32.657  1.00  0.00     0.054 A 
ENDROOT
BRANCH   4   9
HETATM    9  N   UNL     1      -2.466   4.103 -31.154  1.00  0.00    -0.327 N 
HETATM   10  C   UNL     1      -1.577   4.854 -31.910  1.00  0.00     0.228 C 
HETATM   11  O   UNL     1      -1.413   4.756 -33.121  1.00  0.00    -0.273 OA
HETATM   12  H   UNL     1      -2.480   4.277 -30.155  1.00  0.00     0.169 HD
BRANCH  10  13
HETATM   13  C   UNL     1      -0.786   5.850 -31.075  1.00  0.00     0.107 C 
HETATM   14  C   UNL     1       0.093   5.141 -30.052  1.00  0.00     0.190 C 
HETATM   15  O   UNL     1       0.977   6.058 -29.400  1.00  0.00    -0.350 OA
HETATM   16  C   UNL     1       0.357   7.174 -28.899  1.00  0.00     0.075 A 
HETATM   17  C   UNL     1       1.084   7.919 -27.971  1.00  0.00     0.037 A 
HETATM   18  C   UNL     1      -0.918   7.591 -29.299  1.00  0.00    -0.024 A 
HETATM   19  C   UNL     1       0.529   9.067 -27.407  1.00  0.00     0.003 A 
HETATM   20  C   UNL     1      -0.753   9.472 -27.775  1.00  0.00     0.001 A 
HETATM   21  C   UNL     1      -1.475   8.737 -28.717  1.00  0.00     0.010 A 
HETATM   22  C   UNL     1      -1.703   6.806 -30.312  1.00  0.00     0.057 C 
ENDBRANCH  10  13
ENDBRANCH   4   9
BRANCH   8  23
HETATM   23  C   UNL     1      -6.178   0.283 -33.204  1.00  0.00     0.016 A 
HETATM   24  C   UNL     1      -6.032  -0.702 -34.213  1.00  0.00     0.152 A 
HETATM   25  N   UNL     1      -7.159  -1.380 -34.444  1.00  0.00    -0.187 NA
HETATM   26  N   UNL     1      -8.036  -0.832 -33.589  1.00  0.00    -0.289 N 
HETATM   27  H   UNL     1      -8.985  -1.189 -33.577  1.00  0.00     0.188 HD
HETATM   28  C   UNL     1      -7.502   0.172 -32.833  1.00  0.00     0.123 A 
ENDBRANCH   8  23
TORSDOF 3
ENDMDL
MODEL 9
REMARK VINA RESULT:      -8.1      2.110      2.444
REMARK  3 active torsions:
REMARK  status: ('A' for Active; 'I' for Inactive)
REMARK    1  A    between atoms: C_4  and  N_5 
REMARK       I    between atoms: N_5  and  C_6 
REMARK    2  A    between atoms: C_6  and  C_8 
REMARK    3  A    between atoms: C_21  and  C_22 
ROOT
HETATM    1  F   UNL     1      -3.853   6.401 -31.941  1.00  0.00    -0.205 F 
HETATM    2  C   UNL     1      -4.526   5.451 -31.272  1.00  0.00     0.132 A 
HETATM    3  C   UNL     1      -4.445   4.142 -31.762  1.00  0.00     0.072 A 
HETATM    4  C   UNL     1      -5.107   3.102 -31.112  1.00  0.00     0.040 A 
HETATM    5  C   UNL     1      -5.846   3.399 -29.965  1.00  0.00     0.072 A 
HETATM    6  C   UNL     1      -5.910   4.709 -29.481  1.00  0.00     0.132 A 
HETATM    7  F   UNL     1      -6.636   4.923 -28.373  1.00  0.00    -0.205 F 
HETATM    8  C   UNL     1      -5.258   5.765 -30.123  1.00  0.00     0.054 A 
ENDROOT
BRANCH   4   9
HETATM    9  N   UNL     1      -5.081   1.754 -31.533  1.00  0.00    -0.327 N 
HETATM   10  C   UNL     1      -5.624   1.227 -32.696  1.00  0.00     0.228 C 
HETATM   11  O   UNL     1      -6.239   1.862 -33.547  1.00  0.00    -0.273 OA
HETATM   12  H   UNL     1      -4.617   1.105 -30.908  1.00  0.00     0.169 HD
BRANCH  10  13
HETATM   13  C   UNL     1      -5.388  -0.270 -32.833  1.00  0.00     0.107 C 
HETATM   14  C   UNL     1      -3.969  -0.566 -33.302  1.00  0.00     0.190 C 
HETATM   15  O   UNL     1      -3.684  -1.968 -33.248  1.00  0.00    -0.350 OA
HETATM   16  C   UNL     1      -4.629  -2.755 -33.855  1.00  0.00     0.075 A 
HETATM   17  C   UNL     1      -4.250  -4.066 -34.138  1.00  0.00     0.037 A 
HETATM   18  C   UNL     1      -5.922  -2.311 -34.158  1.00  0.00    -0.024 A 
HETATM   19  C   UNL     1      -5.146  -4.935 -34.758  1.00  0.00     0.003 A 
HETATM   20  C   UNL     1      -6.425  -4.493 -35.093  1.00  0.00     0.001 A 
HETATM   21  C   UNL     1      -6.812  -3.185 -34.795  1.00  0.00     0.010 A 
HETATM   22  C   UNL     1      -6.348  -0.904 -33.841  1.00  0.00     0.057 C 
ENDBRANCH  10  13
ENDBRANCH   4   9
BRANCH   8  23
HETATM   23  C   UNL     1      -5.338   7.118 -29.600  1.00  0.00     0.016 A 
HETATM   24  C   UNL     1      -4.741   7.706 -28.457  1.00  0.00     0.152 A 
HETATM   25  N   UNL     1      -5.065   8.993 -28.305  1.00  0.00    -0.187 NA
HETATM   26  N   UNL     1      -5.876   9.237 -29.346  1.00  0.00    -0.289 N 
HETATM   27  H   UNL     1      -6.260  10.170 -29.449  1.00  0.00     0.188 HD
HETATM   28  C   UNL     1      -6.078   8.148 -30.143  1.00  0.00     0.123 A 
ENDBRANCH   8  23
TORSDOF 3
ENDMDL
MODEL 10
REMARK VINA RESULT:      -8.0      3.669      9.428
REMARK  3 active torsions:
REMARK  status: ('A' for Active; 'I' for Inactive)
REMARK    1  A    between atoms: C_4  and  N_5 
REMARK       I    between atoms: N_5  and  C_6 
REMARK    2  A    between atoms: C_6  and  C_8 
REMARK    3  A    between atoms: C_21  and  C_22 
ROOT
HETATM    1  F   UNL     1      -7.321  -0.564 -35.504  1.00  0.00    -0.205 F 
HETATM    2  C   UNL     1      -6.500  -0.362 -34.460  1.00  0.00     0.132 A 
HETATM    3  C   UNL     1      -6.378   0.948 -33.983  1.00  0.00     0.072 A 
HETATM    4  C   UNL     1      -5.552   1.230 -32.896  1.00  0.00     0.040 A 
HETATM    5  C   UNL     1      -4.858   0.177 -32.297  1.00  0.00     0.072 A 
HETATM    6  C   UNL     1      -4.998  -1.129 -32.778  1.00  0.00     0.132 A 
HETATM    7  F   UNL     1      -4.305  -2.094 -32.153  1.00  0.00    -0.205 F 
HETATM    8  C   UNL     1      -5.816  -1.429 -33.870  1.00  0.00     0.054 A 
ENDROOT
BRANCH   4   9
HETATM    9  N   UNL     1      -5.369   2.519 -32.349  1.00  0.00    -0.327 N 
HETATM   10  C   UNL     1      -4.186   3.240 -32.275  1.00  0.00     0.228 C 
HETATM   11  O   UNL     1      -3.090   2.852 -32.667  1.00  0.00    -0.273 OA
HETATM   12  H   UNL     1      -6.197   2.957 -31.964  1.00  0.00     0.169 HD
BRANCH  10  13
HETATM   13  C   UNL     1      -4.366   4.609 -31.635  1.00  0.00     0.107 C 
HETATM   14  C   UNL     1      -3.022   5.245 -31.301  1.00  0.00     0.190 C 
HETATM   15  O   UNL     1      -3.179   6.604 -30.880  1.00  0.00    -0.350 OA
HETATM   16  C   UNL     1      -4.119   6.780 -29.897  1.00  0.00     0.075 A 
HETATM   17  C   UNL     1      -4.076   7.993 -29.213  1.00  0.00     0.037 A 
HETATM   18  C   UNL     1      -5.104   5.831 -29.594  1.00  0.00    -0.024 A 
HETATM   19  C   UNL     1      -4.992   8.256 -28.195  1.00  0.00     0.003 A 
HETATM   20  C   UNL     1      -5.955   7.304 -27.864  1.00  0.00     0.001 A 
HETATM   21  C   UNL     1      -6.012   6.095 -28.560  1.00  0.00     0.010 A 
HETATM   22  C   UNL     1      -5.172   4.527 -30.338  1.00  0.00     0.057 C 
ENDBRANCH  10  13
ENDBRANCH   4   9
BRANCH   8  23
HETATM   23  C   UNL     1      -5.946  -2.795 -34.350  1.00  0.00     0.016 A 
HETATM   24  C   UNL     1      -4.962  -3.740 -34.734  1.00  0.00     0.152 A 
HETATM   25  N   UNL     1      -5.486  -4.903 -35.130  1.00  0.00    -0.187 NA
HETATM   26  N   UNL     1      -6.808  -4.710 -35.007  1.00  0.00    -0.289 N 
HETATM   27  H   UNL     1      -7.431  -5.472 -35.255  1.00  0.00     0.188 HD
HETATM   28  C   UNL     1      -7.135  -3.465 -34.555  1.00  0.00     0.123 A 
ENDBRANCH   8  23
TORSDOF 3
ENDMDL
