MODEL 1
REMARK VINA RESULT:      -8.3      0.000      0.000
REMARK  4 active torsions:
REMARK  status: ('A' for Active; 'I' for Inactive)
REMARK    1  A    between atoms: C_2  and  C_3 
REMARK    2  A    between atoms: C_5  and  C_6 
REMARK       I    between atoms: C_6  and  N_7 
REMARK    3  A    between atoms: N_7  and  C_8 
REMARK    4  A    between atoms: C_10  and  C_11 
ROOT
HETATM    1  C   UNL     1      -7.148  -0.168 -33.887  1.00  0.00     0.035 A 
HETATM    2  C   UNL     1      -6.797  -1.494 -34.163  1.00  0.00     0.042 A 
HETATM    3  C   UNL     1      -5.496  -1.970 -33.920  1.00  0.00    -0.021 A 
HETATM    4  C   UNL     1      -4.540  -1.083 -33.410  1.00  0.00     0.012 A 
HETATM    5  C   UNL     1      -4.876   0.244 -33.140  1.00  0.00     0.003 A 
HETATM    6  C   UNL     1      -6.175   0.696 -33.374  1.00  0.00     0.029 A 
ENDROOT
BRANCH   1   7
HETATM    7  N   UNL     1      -8.438   0.361 -34.076  1.00  0.00    -0.321 N 
HETATM    8  C   UNL     1      -9.446   0.533 -33.144  1.00  0.00     0.280 C 
HETATM    9  O   UNL     1      -9.397   0.187 -31.968  1.00  0.00    -0.265 OA
HETATM   10  H   UNL     1      -8.675   0.678 -35.011  1.00  0.00     0.169 HD
BRANCH   8  11
HETATM   11  C   UNL     1     -10.615   1.189 -33.704  1.00  0.00     0.144 A 
HETATM   12  O   UNL     1     -11.840   0.582 -33.613  1.00  0.00    -0.309 OA
HETATM   13  C   UNL     1     -12.741   1.389 -34.243  1.00  0.00     0.059 A 
HETATM   14  C   UNL     1     -12.118   2.523 -34.730  1.00  0.00    -0.029 A 
HETATM   15  C   UNL     1     -10.748   2.388 -34.375  1.00  0.00     0.052 A 
HETATM   16  C   UNL     1     -12.742   3.645 -35.475  1.00  0.00     0.050 C 
BRANCH  13  17
HETATM   17  C   UNL     1     -14.142   0.895 -34.289  1.00  0.00     0.061 C 
HETATM   18  C   UNL     1     -14.990   1.507 -33.186  1.00  0.00     0.012 C 
ENDBRANCH  13  17
ENDBRANCH   8  11
ENDBRANCH   1   7
BRANCH   3  19
HETATM   19  C   UNL     1      -5.140  -3.357 -34.184  1.00  0.00     0.010 A 
HETATM   20  C   UNL     1      -5.837  -4.380 -34.872  1.00  0.00     0.152 A 
HETATM   21  N   UNL     1      -5.160  -5.531 -34.921  1.00  0.00    -0.187 NA
HETATM   22  N   UNL     1      -4.025  -5.252 -34.259  1.00  0.00    -0.289 N 
HETATM   23  H   UNL     1      -3.332  -5.986 -34.160  1.00  0.00     0.188 HD
HETATM   24  C   UNL     1      -3.961  -3.967 -33.806  1.00  0.00     0.123 A 
ENDBRANCH   3  19
TORSDOF 4
ENDMDL
MODEL 2
REMARK VINA RESULT:      -8.1      4.221      7.522
REMARK  4 active torsions:
REMARK  status: ('A' for Active; 'I' for Inactive)
REMARK    1  A    between atoms: C_2  and  C_3 
REMARK    2  A    between atoms: C_5  and  C_6 
REMARK       I    between atoms: C_6  and  N_7 
REMARK    3  A    between atoms: N_7  and  C_8 
REMARK    4  A    between atoms: C_10  and  C_11 
ROOT
HETATM    1  C   UNL     1      -5.685   0.927 -33.335  1.00  0.00     0.035 A 
HETATM    2  C   UNL     1      -5.347  -0.384 -33.687  1.00  0.00     0.042 A 
HETATM    3  C   UNL     1      -6.337  -1.358 -33.905  1.00  0.00    -0.021 A 
HETATM    4  C   UNL     1      -7.681  -1.000 -33.743  1.00  0.00     0.012 A 
HETATM    5  C   UNL     1      -8.029   0.302 -33.383  1.00  0.00     0.003 A 
HETATM    6  C   UNL     1      -7.035   1.261 -33.185  1.00  0.00     0.029 A 
ENDROOT
BRANCH   1   7
HETATM    7  N   UNL     1      -4.745   1.956 -33.135  1.00  0.00    -0.321 N 
HETATM    8  C   UNL     1      -3.813   2.088 -32.120  1.00  0.00     0.280 C 
HETATM    9  O   UNL     1      -3.688   1.331 -31.163  1.00  0.00    -0.265 OA
HETATM   10  H   UNL     1      -4.721   2.701 -33.823  1.00  0.00     0.169 HD
BRANCH   8  11
HETATM   11  C   UNL     1      -2.959   3.250 -32.298  1.00  0.00     0.144 A 
HETATM   12  O   UNL     1      -2.222   3.716 -31.241  1.00  0.00    -0.309 OA
HETATM   13  C   UNL     1      -1.549   4.821 -31.670  1.00  0.00     0.059 A 
HETATM   14  C   UNL     1      -1.828   5.071 -33.002  1.00  0.00    -0.029 A 
HETATM   15  C   UNL     1      -2.735   4.051 -33.400  1.00  0.00     0.052 A 
HETATM   16  C   UNL     1      -1.299   6.174 -33.841  1.00  0.00     0.050 C 
BRANCH  13  17
HETATM   17  C   UNL     1      -0.704   5.508 -30.658  1.00  0.00     0.061 C 
HETATM   18  C   UNL     1       0.769   5.182 -30.842  1.00  0.00     0.012 C 
ENDBRANCH  13  17
ENDBRANCH   8  11
ENDBRANCH   1   7
BRANCH   3  19
HETATM   19  C   UNL     1      -5.985  -2.716 -34.296  1.00  0.00     0.010 A 
HETATM   20  C   UNL     1      -6.780  -3.770 -34.809  1.00  0.00     0.152 A 
HETATM   21  N   UNL     1      -6.076  -4.876 -35.070  1.00  0.00    -0.187 NA
HETATM   22  N   UNL     1      -4.825  -4.536 -34.722  1.00  0.00    -0.289 N 
HETATM   23  H   UNL     1      -4.090  -5.227 -34.831  1.00  0.00     0.188 HD
HETATM   24  C   UNL     1      -4.716  -3.257 -34.260  1.00  0.00     0.123 A 
ENDBRANCH   3  19
TORSDOF 4
ENDMDL
MODEL 3
REMARK VINA RESULT:      -7.6      4.673      8.635
REMARK  4 active torsions:
REMARK  status: ('A' for Active; 'I' for Inactive)
REMARK    1  A    between atoms: C_2  and  C_3 
REMARK    2  A    between atoms: C_5  and  C_6 
REMARK       I    between atoms: C_6  and  N_7 
REMARK    3  A    between atoms: N_7  and  C_8 
REMARK    4  A    between atoms: C_10  and  C_11 
ROOT
HETATM    1  C   UNL     1      -5.337   1.310 -33.024  1.00  0.00     0.035 A 
HETATM    2  C   UNL     1      -6.713   1.518 -33.167  1.00  0.00     0.042 A 
HETATM    3  C   UNL     1      -7.613   0.438 -33.206  1.00  0.00    -0.021 A 
HETATM    4  C   UNL     1      -7.106  -0.864 -33.117  1.00  0.00     0.012 A 
HETATM    5  C   UNL     1      -5.735  -1.084 -32.984  1.00  0.00     0.003 A 
HETATM    6  C   UNL     1      -4.857  -0.000 -32.933  1.00  0.00     0.029 A 
ENDROOT
BRANCH   1   7
HETATM    7  N   UNL     1      -4.389   2.347 -32.946  1.00  0.00    -0.321 N 
HETATM    8  C   UNL     1      -3.817   2.911 -31.819  1.00  0.00     0.280 C 
HETATM    9  O   UNL     1      -4.098   2.628 -30.659  1.00  0.00    -0.265 OA
HETATM   10  H   UNL     1      -4.054   2.735 -33.822  1.00  0.00     0.169 HD
BRANCH   8  11
HETATM   11  C   UNL     1      -2.812   3.909 -32.144  1.00  0.00     0.144 A 
HETATM   12  O   UNL     1      -1.701   4.034 -31.352  1.00  0.00    -0.309 OA
HETATM   13  C   UNL     1      -0.954   5.055 -31.859  1.00  0.00     0.059 A 
HETATM   14  C   UNL     1      -1.559   5.587 -32.984  1.00  0.00    -0.029 A 
HETATM   15  C   UNL     1      -2.756   4.840 -33.162  1.00  0.00     0.052 A 
HETATM   16  C   UNL     1      -1.071   6.707 -33.825  1.00  0.00     0.050 C 
BRANCH  13  17
HETATM   17  C   UNL     1       0.294   5.382 -31.121  1.00  0.00     0.061 C 
HETATM   18  C   UNL     1       0.218   6.751 -30.467  1.00  0.00     0.012 C 
ENDBRANCH  13  17
ENDBRANCH   8  11
ENDBRANCH   1   7
BRANCH   3  19
HETATM   19  C   UNL     1      -9.048   0.657 -33.328  1.00  0.00     0.010 A 
HETATM   20  C   UNL     1      -9.779   1.668 -33.998  1.00  0.00     0.152 A 
HETATM   21  N   UNL     1     -11.102   1.511 -33.896  1.00  0.00    -0.187 NA
HETATM   22  N   UNL     1     -11.226   0.398 -33.156  1.00  0.00    -0.289 N 
HETATM   23  H   UNL     1     -12.159   0.066 -32.937  1.00  0.00     0.188 HD
HETATM   24  C   UNL     1     -10.031  -0.153 -32.797  1.00  0.00     0.123 A 
ENDBRANCH   3  19
TORSDOF 4
ENDMDL
MODEL 4
REMARK VINA RESULT:      -7.6      1.776      2.453
REMARK  4 active torsions:
REMARK  status: ('A' for Active; 'I' for Inactive)
REMARK    1  A    between atoms: C_2  and  C_3 
REMARK    2  A    between atoms: C_5  and  C_6 
REMARK       I    between atoms: C_6  and  N_7 
REMARK    3  A    between atoms: N_7  and  C_8 
REMARK    4  A    between atoms: C_10  and  C_11 
ROOT
HETATM    1  C   UNL     1      -8.668   0.386 -32.511  1.00  0.00     0.035 A 
HETATM    2  C   UNL     1      -7.959  -0.527 -33.299  1.00  0.00     0.042 A 
HETATM    3  C   UNL     1      -6.625  -0.862 -33.003  1.00  0.00    -0.021 A 
HETATM    4  C   UNL     1      -6.004  -0.249 -31.908  1.00  0.00     0.012 A 
HETATM    5  C   UNL     1      -6.699   0.670 -31.122  1.00  0.00     0.003 A 
HETATM    6  C   UNL     1      -8.026   0.981 -31.421  1.00  0.00     0.029 A 
ENDROOT
BRANCH   1   7
HETATM    7  N   UNL     1     -10.012   0.741 -32.734  1.00  0.00    -0.321 N 
HETATM    8  C   UNL     1     -10.521   1.706 -33.585  1.00  0.00     0.280 C 
HETATM    9  O   UNL     1      -9.855   2.477 -34.268  1.00  0.00    -0.265 OA
HETATM   10  H   UNL     1     -10.719   0.221 -32.223  1.00  0.00     0.169 HD
BRANCH   8  11
HETATM   11  C   UNL     1     -11.973   1.723 -33.602  1.00  0.00     0.144 A 
HETATM   12  O   UNL     1     -12.647   2.668 -32.873  1.00  0.00    -0.309 OA
HETATM   13  C   UNL     1     -13.980   2.434 -33.038  1.00  0.00     0.059 A 
HETATM   14  C   UNL     1     -14.182   1.356 -33.880  1.00  0.00    -0.029 A 
HETATM   15  C   UNL     1     -12.883   0.905 -34.242  1.00  0.00     0.052 A 
HETATM   16  C   UNL     1     -15.480   0.781 -34.313  1.00  0.00     0.050 C 
BRANCH  13  17
HETATM   17  C   UNL     1     -14.900   3.337 -32.298  1.00  0.00     0.061 C 
HETATM   18  C   UNL     1     -14.174   4.105 -31.205  1.00  0.00     0.012 C 
ENDBRANCH  13  17
ENDBRANCH   8  11
ENDBRANCH   1   7
BRANCH   3  19
HETATM   19  C   UNL     1      -5.896  -1.832 -33.808  1.00  0.00     0.010 A 
HETATM   20  C   UNL     1      -6.351  -2.781 -34.757  1.00  0.00     0.152 A 
HETATM   21  N   UNL     1      -5.358  -3.485 -35.309  1.00  0.00    -0.187 NA
HETATM   22  N   UNL     1      -4.261  -2.993 -34.712  1.00  0.00    -0.289 N 
HETATM   23  H   UNL     1      -3.358  -3.378 -34.971  1.00  0.00     0.188 HD
HETATM   24  C   UNL     1      -4.527  -2.001 -33.814  1.00  0.00     0.123 A 
ENDBRANCH   3  19
TORSDOF 4
ENDMDL
MODEL 5
REMARK VINA RESULT:      -7.6      3.782      6.527
REMARK  4 active torsions:
REMARK  status: ('A' for Active; 'I' for Inactive)
REMARK    1  A    between atoms: C_2  and  C_3 
REMARK    2  A    between atoms: C_5  and  C_6 
REMARK       I    between atoms: C_6  and  N_7 
REMARK    3  A    between atoms: N_7  and  C_8 
REMARK    4  A    between atoms: C_10  and  C_11 
ROOT
HETATM    1  C   UNL     1      -5.904   0.740 -33.764  1.00  0.00     0.035 A 
HETATM    2  C   UNL     1      -5.450  -0.583 -33.793  1.00  0.00     0.042 A 
HETATM    3  C   UNL     1      -6.185  -1.592 -34.441  1.00  0.00    -0.021 A 
HETATM    4  C   UNL     1      -7.401  -1.254 -35.048  1.00  0.00     0.012 A 
HETATM    5  C   UNL     1      -7.868   0.060 -35.018  1.00  0.00     0.003 A 
HETATM    6  C   UNL     1      -7.120   1.052 -34.382  1.00  0.00     0.029 A 
ENDROOT
BRANCH   1   7
HETATM    7  N   UNL     1      -5.202   1.800 -33.161  1.00  0.00    -0.321 N 
HETATM    8  C   UNL     1      -5.137   2.141 -31.822  1.00  0.00     0.280 C 
HETATM    9  O   UNL     1      -5.751   1.589 -30.914  1.00  0.00    -0.265 OA
HETATM   10  H   UNL     1      -4.651   2.396 -33.771  1.00  0.00     0.169 HD
BRANCH   8  11
HETATM   11  C   UNL     1      -4.240   3.257 -31.574  1.00  0.00     0.144 A 
HETATM   12  O   UNL     1      -4.734   4.417 -31.038  1.00  0.00    -0.309 OA
HETATM   13  C   UNL     1      -3.696   5.297 -30.947  1.00  0.00     0.059 A 
HETATM   14  C   UNL     1      -2.527   4.716 -31.405  1.00  0.00    -0.029 A 
HETATM   15  C   UNL     1      -2.886   3.399 -31.805  1.00  0.00     0.052 A 
HETATM   16  C   UNL     1      -1.181   5.336 -31.474  1.00  0.00     0.050 C 
BRANCH  13  17
HETATM   17  C   UNL     1      -4.026   6.644 -30.414  1.00  0.00     0.061 C 
HETATM   18  C   UNL     1      -4.843   7.457 -31.405  1.00  0.00     0.012 C 
ENDBRANCH  13  17
ENDBRANCH   8  11
ENDBRANCH   1   7
BRANCH   3  19
HETATM   19  C   UNL     1      -5.699  -2.964 -34.492  1.00  0.00     0.010 A 
HETATM   20  C   UNL     1      -6.326  -4.155 -34.933  1.00  0.00     0.152 A 
HETATM   21  N   UNL     1      -5.533  -5.227 -34.841  1.00  0.00    -0.187 NA
HETATM   22  N   UNL     1      -4.394  -4.728 -34.336  1.00  0.00    -0.289 N 
HETATM   23  H   UNL     1      -3.620  -5.363 -34.171  1.00  0.00     0.188 HD
HETATM   24  C   UNL     1      -4.439  -3.382 -34.117  1.00  0.00     0.123 A 
ENDBRANCH   3  19
TORSDOF 4
ENDMDL
MODEL 6
REMARK VINA RESULT:      -7.4      6.623      9.398
REMARK  4 active torsions:
REMARK  status: ('A' for Active; 'I' for Inactive)
REMARK    1  A    between atoms: C_2  and  C_3 
REMARK    2  A    between atoms: C_5  and  C_6 
REMARK       I    between atoms: C_6  and  N_7 
REMARK    3  A    between atoms: N_7  and  C_8 
REMARK    4  A    between atoms: C_10  and  C_11 
ROOT
HETATM    1  C   UNL     1      -1.999   4.493 -32.443  1.00  0.00     0.035 A 
HETATM    2  C   UNL     1      -1.377   4.869 -31.248  1.00  0.00     0.042 A 
HETATM    3  C   UNL     1      -0.722   6.108 -31.126  1.00  0.00    -0.021 A 
HETATM    4  C   UNL     1      -0.684   6.962 -32.235  1.00  0.00     0.012 A 
HETATM    5  C   UNL     1      -1.293   6.593 -33.434  1.00  0.00     0.003 A 
HETATM    6  C   UNL     1      -1.951   5.366 -33.535  1.00  0.00     0.029 A 
ENDROOT
BRANCH   1   7
HETATM    7  N   UNL     1      -2.697   3.284 -32.621  1.00  0.00    -0.321 N 
HETATM    8  C   UNL     1      -3.889   2.883 -32.045  1.00  0.00     0.280 C 
HETATM    9  O   UNL     1      -4.527   3.516 -31.210  1.00  0.00    -0.265 OA
HETATM   10  H   UNL     1      -2.297   2.609 -33.266  1.00  0.00     0.169 HD
BRANCH   8  11
HETATM   11  C   UNL     1      -4.339   1.592 -32.538  1.00  0.00     0.144 A 
HETATM   12  O   UNL     1      -5.609   1.464 -33.037  1.00  0.00    -0.309 OA
HETATM   13  C   UNL     1      -5.777   0.158 -33.390  1.00  0.00     0.059 A 
HETATM   14  C   UNL     1      -4.623  -0.563 -33.140  1.00  0.00    -0.029 A 
HETATM   15  C   UNL     1      -3.700   0.370 -32.594  1.00  0.00     0.052 A 
HETATM   16  C   UNL     1      -4.395  -2.009 -33.383  1.00  0.00     0.050 C 
BRANCH  13  17
HETATM   17  C   UNL     1      -7.112  -0.208 -33.932  1.00  0.00     0.061 C 
HETATM   18  C   UNL     1      -7.301   0.303 -35.351  1.00  0.00     0.012 C 
ENDBRANCH  13  17
ENDBRANCH   8  11
ENDBRANCH   1   7
BRANCH   3  19
HETATM   19  C   UNL     1      -0.097   6.509 -29.873  1.00  0.00     0.010 A 
HETATM   20  C   UNL     1       0.077   7.788 -29.289  1.00  0.00     0.152 A 
HETATM   21  N   UNL     1       0.690   7.741 -28.103  1.00  0.00    -0.187 NA
HETATM   22  N   UNL     1       0.916   6.430 -27.921  1.00  0.00    -0.289 N 
HETATM   23  H   UNL     1       1.383   6.135 -27.070  1.00  0.00     0.188 HD
HETATM   24  C   UNL     1       0.461   5.653 -28.945  1.00  0.00     0.123 A 
ENDBRANCH   3  19
TORSDOF 4
ENDMDL
MODEL 7
REMARK VINA RESULT:      -7.3      6.006      8.517
REMARK  4 active torsions:
REMARK  status: ('A' for Active; 'I' for Inactive)
REMARK    1  A    between atoms: C_2  and  C_3 
REMARK    2  A    between atoms: C_5  and  C_6 
REMARK       I    between atoms: C_6  and  N_7 
REMARK    3  A    between atoms: N_7  and  C_8 
REMARK    4  A    between atoms: C_10  and  C_11 
ROOT
HETATM    1  C   UNL     1      -2.864   3.959 -32.714  1.00  0.00     0.035 A 
HETATM    2  C   UNL     1      -2.186   4.373 -31.562  1.00  0.00     0.042 A 
HETATM    3  C   UNL     1      -1.155   5.328 -31.627  1.00  0.00    -0.021 A 
HETATM    4  C   UNL     1      -0.800   5.851 -32.877  1.00  0.00     0.012 A 
HETATM    5  C   UNL     1      -1.463   5.438 -34.033  1.00  0.00     0.003 A 
HETATM    6  C   UNL     1      -2.493   4.500 -33.949  1.00  0.00     0.029 A 
ENDROOT
BRANCH   1   7
HETATM    7  N   UNL     1      -3.924   3.033 -32.713  1.00  0.00    -0.321 N 
HETATM    8  C   UNL     1      -3.966   1.770 -32.149  1.00  0.00     0.280 C 
HETATM    9  O   UNL     1      -3.032   1.208 -31.587  1.00  0.00    -0.265 OA
HETATM   10  H   UNL     1      -4.787   3.316 -33.167  1.00  0.00     0.169 HD
BRANCH   8  11
HETATM   11  C   UNL     1      -5.270   1.143 -32.286  1.00  0.00     0.144 A 
HETATM   12  O   UNL     1      -5.421   0.072 -33.128  1.00  0.00    -0.309 OA
HETATM   13  C   UNL     1      -6.735  -0.291 -33.092  1.00  0.00     0.059 A 
HETATM   14  C   UNL     1      -7.438   0.523 -32.223  1.00  0.00    -0.029 A 
HETATM   15  C   UNL     1      -6.486   1.443 -31.705  1.00  0.00     0.052 A 
HETATM   16  C   UNL     1      -8.885   0.459 -31.901  1.00  0.00     0.050 C 
BRANCH  13  17
HETATM   17  C   UNL     1      -7.124  -1.426 -33.969  1.00  0.00     0.061 C 
HETATM   18  C   UNL     1      -5.912  -2.087 -34.603  1.00  0.00     0.012 C 
ENDBRANCH  13  17
ENDBRANCH   8  11
ENDBRANCH   1   7
BRANCH   3  19
HETATM   19  C   UNL     1      -0.468   5.777 -30.425  1.00  0.00     0.010 A 
HETATM   20  C   UNL     1      -0.514   7.014 -29.735  1.00  0.00     0.152 A 
HETATM   21  N   UNL     1       0.257   7.032 -28.644  1.00  0.00    -0.187 NA
HETATM   22  N   UNL     1       0.805   5.807 -28.630  1.00  0.00    -0.289 N 
HETATM   23  H   UNL     1       1.444   5.573 -27.878  1.00  0.00     0.188 HD
HETATM   24  C   UNL     1       0.400   5.018 -29.667  1.00  0.00     0.123 A 
ENDBRANCH   3  19
TORSDOF 4
ENDMDL
MODEL 8
REMARK VINA RESULT:      -7.2      1.318      2.281
REMARK  4 active torsions:
REMARK  status: ('A' for Active; 'I' for Inactive)
REMARK    1  A    between atoms: C_2  and  C_3 
REMARK    2  A    between atoms: C_5  and  C_6 
REMARK       I    between atoms: C_6  and  N_7 
REMARK    3  A    between atoms: N_7  and  C_8 
REMARK    4  A    between atoms: C_10  and  C_11 
ROOT
HETATM    1  C   UNL     1      -6.316   0.091 -33.641  1.00  0.00     0.035 A 
HETATM    2  C   UNL     1      -6.002  -1.257 -33.847  1.00  0.00     0.042 A 
HETATM    3  C   UNL     1      -4.735  -1.769 -33.514  1.00  0.00    -0.021 A 
HETATM    4  C   UNL     1      -3.774  -0.898 -32.986  1.00  0.00     0.012 A 
HETATM    5  C   UNL     1      -4.074   0.450 -32.786  1.00  0.00     0.003 A 
HETATM    6  C   UNL     1      -5.341   0.939 -33.108  1.00  0.00     0.029 A 
ENDROOT
BRANCH   1   7
HETATM    7  N   UNL     1      -7.574   0.657 -33.922  1.00  0.00    -0.321 N 
HETATM    8  C   UNL     1      -8.679   0.758 -33.095  1.00  0.00     0.280 C 
HETATM    9  O   UNL     1      -8.765   0.301 -31.960  1.00  0.00    -0.265 OA
HETATM   10  H   UNL     1      -7.702   1.066 -34.842  1.00  0.00     0.169 HD
BRANCH   8  11
HETATM   11  C   UNL     1      -9.774   1.484 -33.716  1.00  0.00     0.144 A 
HETATM   12  O   UNL     1      -9.531   2.694 -34.313  1.00  0.00    -0.309 OA
HETATM   13  C   UNL     1     -10.723   3.165 -34.775  1.00  0.00     0.059 A 
HETATM   14  C   UNL     1     -11.739   2.268 -34.500  1.00  0.00    -0.029 A 
HETATM   15  C   UNL     1     -11.117   1.185 -33.819  1.00  0.00     0.052 A 
HETATM   16  C   UNL     1     -13.178   2.405 -34.834  1.00  0.00     0.050 C 
BRANCH  13  17
HETATM   17  C   UNL     1     -10.689   4.496 -35.437  1.00  0.00     0.061 C 
HETATM   18  C   UNL     1     -10.124   5.566 -34.517  1.00  0.00     0.012 C 
ENDBRANCH  13  17
ENDBRANCH   8  11
ENDBRANCH   1   7
BRANCH   3  19
HETATM   19  C   UNL     1      -4.418  -3.177 -33.705  1.00  0.00     0.010 A 
HETATM   20  C   UNL     1      -3.454  -4.005 -33.079  1.00  0.00     0.152 A 
HETATM   21  N   UNL     1      -3.485  -5.267 -33.518  1.00  0.00    -0.187 NA
HETATM   22  N   UNL     1      -4.468  -5.253 -34.432  1.00  0.00    -0.289 N 
HETATM   23  H   UNL     1      -4.687  -6.117 -34.918  1.00  0.00     0.188 HD
HETATM   24  C   UNL     1      -5.060  -4.033 -34.577  1.00  0.00     0.123 A 
ENDBRANCH   3  19
TORSDOF 4
ENDMDL
MODEL 9
REMARK VINA RESULT:      -7.2      1.707      2.353
REMARK  4 active torsions:
REMARK  status: ('A' for Active; 'I' for Inactive)
REMARK    1  A    between atoms: C_2  and  C_3 
REMARK    2  A    between atoms: C_5  and  C_6 
REMARK       I    between atoms: C_6  and  N_7 
REMARK    3  A    between atoms: N_7  and  C_8 
REMARK    4  A    between atoms: C_10  and  C_11 
ROOT
HETATM    1  C   UNL     1      -6.508   0.449 -33.524  1.00  0.00     0.035 A 
HETATM    2  C   UNL     1      -6.633  -0.858 -34.009  1.00  0.00     0.042 A 
HETATM    3  C   UNL     1      -5.563  -1.767 -33.937  1.00  0.00    -0.021 A 
HETATM    4  C   UNL     1      -4.350  -1.337 -33.383  1.00  0.00     0.012 A 
HETATM    5  C   UNL     1      -4.212  -0.034 -32.905  1.00  0.00     0.003 A 
HETATM    6  C   UNL     1      -5.288   0.852 -32.972  1.00  0.00     0.029 A 
ENDROOT
BRANCH   1   7
HETATM    7  N   UNL     1      -7.549   1.396 -33.537  1.00  0.00    -0.321 N 
HETATM    8  C   UNL     1      -8.601   1.535 -32.649  1.00  0.00     0.280 C 
HETATM    9  O   UNL     1      -8.838   0.793 -31.702  1.00  0.00    -0.265 OA
HETATM   10  H   UNL     1      -7.536   2.088 -34.280  1.00  0.00     0.169 HD
BRANCH   8  11
HETATM   11  C   UNL     1      -9.433   2.688 -32.948  1.00  0.00     0.144 A 
HETATM   12  O   UNL     1     -10.024   2.795 -34.180  1.00  0.00    -0.309 OA
HETATM   13  C   UNL     1     -10.708   3.975 -34.201  1.00  0.00     0.059 A 
HETATM   14  C   UNL     1     -10.580   4.631 -32.990  1.00  0.00    -0.029 A 
HETATM   15  C   UNL     1      -9.760   3.793 -32.187  1.00  0.00     0.052 A 
HETATM   16  C   UNL     1     -11.169   5.938 -32.608  1.00  0.00     0.050 C 
BRANCH  13  17
HETATM   17  C   UNL     1     -11.404   4.305 -35.472  1.00  0.00     0.061 C 
HETATM   18  C   UNL     1     -12.355   3.197 -35.896  1.00  0.00     0.012 C 
ENDBRANCH  13  17
ENDBRANCH   8  11
ENDBRANCH   1   7
BRANCH   3  19
HETATM   19  C   UNL     1      -5.702  -3.134 -34.419  1.00  0.00     0.010 A 
HETATM   20  C   UNL     1      -4.791  -4.219 -34.411  1.00  0.00     0.152 A 
HETATM   21  N   UNL     1      -5.305  -5.336 -34.933  1.00  0.00    -0.187 NA
HETATM   22  N   UNL     1      -6.549  -4.972 -35.282  1.00  0.00    -0.289 N 
HETATM   23  H   UNL     1      -7.152  -5.666 -35.711  1.00  0.00     0.188 HD
HETATM   24  C   UNL     1      -6.837  -3.671 -34.991  1.00  0.00     0.123 A 
ENDBRANCH   3  19
TORSDOF 4
ENDMDL
MODEL 10
REMARK VINA RESULT:      -7.2      2.753      8.434
REMARK  4 active torsions:
REMARK  status: ('A' for Active; 'I' for Inactive)
REMARK    1  A    between atoms: C_2  and  C_3 
REMARK    2  A    between atoms: C_5  and  C_6 
REMARK       I    between atoms: C_6  and  N_7 
REMARK    3  A    between atoms: N_7  and  C_8 
REMARK    4  A    between atoms: C_10  and  C_11 
ROOT
HETATM    1  C   UNL     1     -10.034   2.077 -34.066  1.00  0.00     0.035 A 
HETATM    2  C   UNL     1     -11.332   1.715 -33.691  1.00  0.00     0.042 A 
HETATM    3  C   UNL     1     -12.390   2.641 -33.744  1.00  0.00    -0.021 A 
HETATM    4  C   UNL     1     -12.119   3.949 -34.162  1.00  0.00     0.012 A 
HETATM    5  C   UNL     1     -10.826   4.323 -34.530  1.00  0.00     0.003 A 
HETATM    6  C   UNL     1      -9.791   3.389 -34.485  1.00  0.00     0.029 A 
ENDROOT
BRANCH   1   7
HETATM    7  N   UNL     1      -8.940   1.191 -34.068  1.00  0.00    -0.321 N 
HETATM    8  C   UNL     1      -8.197   0.736 -32.993  1.00  0.00     0.280 C 
HETATM    9  O   UNL     1      -8.340   1.088 -31.826  1.00  0.00    -0.265 OA
HETATM   10  H   UNL     1      -8.651   0.813 -34.964  1.00  0.00     0.169 HD
BRANCH   8  11
HETATM   11  C   UNL     1      -7.191  -0.238 -33.383  1.00  0.00     0.144 A 
HETATM   12  O   UNL     1      -5.903  -0.096 -32.938  1.00  0.00    -0.309 OA
HETATM   13  C   UNL     1      -5.173  -1.113 -33.478  1.00  0.00     0.059 A 
HETATM   14  C   UNL     1      -5.976  -1.925 -34.259  1.00  0.00    -0.029 A 
HETATM   15  C   UNL     1      -7.277  -1.355 -34.190  1.00  0.00     0.052 A 
HETATM   16  C   UNL     1      -5.569  -3.133 -35.018  1.00  0.00     0.050 C 
BRANCH  13  17
HETATM   17  C   UNL     1      -3.725  -1.128 -33.144  1.00  0.00     0.061 C 
HETATM   18  C   UNL     1      -3.394  -2.208 -32.127  1.00  0.00     0.012 C 
ENDBRANCH  13  17
ENDBRANCH   8  11
ENDBRANCH   1   7
BRANCH   3  19
HETATM   19  C   UNL     1     -13.746   2.257 -33.378  1.00  0.00     0.010 A 
HETATM   20  C   UNL     1     -14.669   1.389 -34.013  1.00  0.00     0.152 A 
HETATM   21  N   UNL     1     -15.822   1.277 -33.347  1.00  0.00    -0.187 NA
HETATM   22  N   UNL     1     -15.646   2.075 -32.282  1.00  0.00    -0.289 N 
HETATM   23  H   UNL     1     -16.402   2.159 -31.612  1.00  0.00     0.188 HD
HETATM   24  C   UNL     1     -14.422   2.678 -32.251  1.00  0.00     0.123 A 
ENDBRANCH   3  19
TORSDOF 4
ENDMDL
