MODEL 1
REMARK VINA RESULT:      -9.4      0.000      0.000
REMARK  5 active torsions:
REMARK  status: ('A' for Active; 'I' for Inactive)
REMARK    1  A    between atoms: C_4  and  O_5 
REMARK    2  A    between atoms: O_5  and  C_6 
REMARK    3  A    between atoms: C_6  and  C_7 
REMARK       I    between atoms: C_7  and  N_8 
REMARK    4  A    between atoms: N_8  and  C_9 
REMARK    5  A    between atoms: C_12  and  C_13 
ROOT
HETATM    1  C   UNL     1      -4.193   3.542 -31.798  1.00  0.00     0.034 A 
HETATM    2  C   UNL     1      -3.258   2.653 -31.260  1.00  0.00     0.030 A 
HETATM    3  C   UNL     1      -3.321   1.285 -31.548  1.00  0.00     0.017 A 
HETATM    4  C   UNL     1      -4.325   0.787 -32.383  1.00  0.00     0.010 A 
HETATM    5  C   UNL     1      -5.296   1.659 -32.883  1.00  0.00     0.017 A 
HETATM    6  C   UNL     1      -5.225   3.029 -32.597  1.00  0.00     0.030 A 
ENDROOT
BRANCH   1   7
HETATM    7  N   UNL     1      -4.140   4.937 -31.603  1.00  0.00    -0.325 N 
HETATM    8  C   UNL     1      -3.762   5.897 -32.525  1.00  0.00     0.246 C 
HETATM    9  O   UNL     1      -3.314   5.690 -33.651  1.00  0.00    -0.271 OA
HETATM   10  H   UNL     1      -4.454   5.298 -30.708  1.00  0.00     0.169 HD
BRANCH   8  11
HETATM   11  C   UNL     1      -3.915   7.334 -32.023  1.00  0.00     0.278 C 
BRANCH  11  12
HETATM   12  O   UNL     1      -2.739   8.119 -32.186  1.00  0.00    -0.342 OA
BRANCH  12  13
HETATM   13  C   UNL     1      -1.731   7.869 -31.290  1.00  0.00     0.069 A 
HETATM   14  C   UNL     1      -1.736   8.221 -29.935  1.00  0.00     0.043 A 
HETATM   15  C   UNL     1      -0.650   7.899 -29.105  1.00  0.00    -0.059 A 
HETATM   16  C   UNL     1      -0.681   8.234 -27.642  1.00  0.00     0.048 C 
HETATM   17  C   UNL     1       0.441   7.210 -29.644  1.00  0.00     0.007 A 
HETATM   18  C   UNL     1       0.458   6.868 -30.996  1.00  0.00     0.003 A 
HETATM   19  C   UNL     1      -0.623   7.201 -31.815  1.00  0.00     0.037 A 
ENDBRANCH  12  13
ENDBRANCH  11  12
ENDBRANCH   8  11
ENDBRANCH   1   7
BRANCH   4  20
HETATM   20  C   UNL     1      -4.357  -0.648 -32.764  1.00  0.00     0.141 A 
HETATM   21  N   UNL     1      -5.108  -1.076 -33.727  1.00  0.00    -0.230 NA
HETATM   22  C   UNL     1      -5.079  -2.452 -34.029  1.00  0.00     0.074 A 
HETATM   23  C   UNL     1      -4.249  -3.354 -33.359  1.00  0.00     0.061 A 
HETATM   24  C   UNL     1      -5.913  -2.943 -35.036  1.00  0.00     0.032 A 
HETATM   25  C   UNL     1      -3.386  -2.819 -32.298  1.00  0.00     0.259 A 
HETATM   26  C   UNL     1      -4.233  -4.715 -33.681  1.00  0.00     0.019 A 
HETATM   27  O   UNL     1      -2.594  -3.519 -31.678  1.00  0.00    -0.267 OA
HETATM   28  N   UNL     1      -3.517  -1.477 -32.052  1.00  0.00    -0.307 N 
HETATM   29  H   UNL     1      -2.886  -1.112 -31.353  1.00  0.00     0.170 HD
HETATM   30  C   UNL     1      -5.068  -5.189 -34.691  1.00  0.00     0.001 A 
HETATM   31  C   UNL     1      -5.909  -4.303 -35.366  1.00  0.00     0.002 A 
ENDBRANCH   4  20
TORSDOF 5
ENDMDL
MODEL 2
REMARK VINA RESULT:      -9.3      1.938      2.673
REMARK  5 active torsions:
REMARK  status: ('A' for Active; 'I' for Inactive)
REMARK    1  A    between atoms: C_4  and  O_5 
REMARK    2  A    between atoms: O_5  and  C_6 
REMARK    3  A    between atoms: C_6  and  C_7 
REMARK       I    between atoms: C_7  and  N_8 
REMARK    4  A    between atoms: N_8  and  C_9 
REMARK    5  A    between atoms: C_12  and  C_13 
ROOT
HETATM    1  C   UNL     1      -3.534   3.611 -31.624  1.00  0.00     0.034 A 
HETATM    2  C   UNL     1      -2.990   2.389 -31.221  1.00  0.00     0.030 A 
HETATM    3  C   UNL     1      -3.474   1.182 -31.738  1.00  0.00     0.017 A 
HETATM    4  C   UNL     1      -4.515   1.184 -32.671  1.00  0.00     0.010 A 
HETATM    5  C   UNL     1      -5.103   2.398 -33.040  1.00  0.00     0.017 A 
HETATM    6  C   UNL     1      -4.609   3.604 -32.524  1.00  0.00     0.030 A 
ENDROOT
BRANCH   1   7
HETATM    7  N   UNL     1      -3.043   4.861 -31.194  1.00  0.00    -0.325 N 
HETATM    8  C   UNL     1      -1.800   5.408 -31.460  1.00  0.00     0.246 C 
HETATM    9  O   UNL     1      -0.869   4.855 -32.042  1.00  0.00    -0.271 OA
HETATM   10  H   UNL     1      -3.674   5.457 -30.668  1.00  0.00     0.169 HD
BRANCH   8  11
HETATM   11  C   UNL     1      -1.622   6.831 -30.927  1.00  0.00     0.278 C 
BRANCH  11  12
HETATM   12  O   UNL     1      -0.309   7.095 -30.446  1.00  0.00    -0.342 OA
BRANCH  12  13
HETATM   13  C   UNL     1      -0.190   7.206 -29.083  1.00  0.00     0.069 A 
HETATM   14  C   UNL     1      -1.122   6.756 -28.142  1.00  0.00     0.043 A 
HETATM   15  C   UNL     1      -0.886   6.911 -26.767  1.00  0.00    -0.059 A 
HETATM   16  C   UNL     1      -1.865   6.382 -25.759  1.00  0.00     0.048 C 
HETATM   17  C   UNL     1       0.302   7.513 -26.341  1.00  0.00     0.007 A 
HETATM   18  C   UNL     1       1.229   7.976 -27.274  1.00  0.00     0.003 A 
HETATM   19  C   UNL     1       0.980   7.826 -28.640  1.00  0.00     0.037 A 
ENDBRANCH  12  13
ENDBRANCH  11  12
ENDBRANCH   8  11
ENDBRANCH   1   7
BRANCH   4  20
HETATM   20  C   UNL     1      -4.985  -0.081 -33.290  1.00  0.00     0.141 A 
HETATM   21  N   UNL     1      -4.323  -1.185 -33.159  1.00  0.00    -0.230 NA
HETATM   22  C   UNL     1      -4.837  -2.344 -33.774  1.00  0.00     0.074 A 
HETATM   23  C   UNL     1      -6.043  -2.352 -34.479  1.00  0.00     0.061 A 
HETATM   24  C   UNL     1      -4.117  -3.537 -33.681  1.00  0.00     0.032 A 
HETATM   25  C   UNL     1      -6.780  -1.085 -34.571  1.00  0.00     0.259 A 
HETATM   26  C   UNL     1      -6.537  -3.516 -35.075  1.00  0.00     0.019 A 
HETATM   27  O   UNL     1      -7.866  -0.995 -35.133  1.00  0.00    -0.267 OA
HETATM   28  N   UNL     1      -6.178  -0.007 -33.977  1.00  0.00    -0.307 N 
HETATM   29  H   UNL     1      -6.715   0.847 -34.007  1.00  0.00     0.170 HD
HETATM   30  C   UNL     1      -5.809  -4.700 -34.971  1.00  0.00     0.001 A 
HETATM   31  C   UNL     1      -4.599  -4.709 -34.276  1.00  0.00     0.002 A 
ENDBRANCH   4  20
TORSDOF 5
ENDMDL
MODEL 3
REMARK VINA RESULT:      -9.2      1.607      2.058
REMARK  5 active torsions:
REMARK  status: ('A' for Active; 'I' for Inactive)
REMARK    1  A    between atoms: C_4  and  O_5 
REMARK    2  A    between atoms: O_5  and  C_6 
REMARK    3  A    between atoms: C_6  and  C_7 
REMARK       I    between atoms: C_7  and  N_8 
REMARK    4  A    between atoms: N_8  and  C_9 
REMARK    5  A    between atoms: C_12  and  C_13 
ROOT
HETATM    1  C   UNL     1      -4.209   3.785 -31.188  1.00  0.00     0.034 A 
HETATM    2  C   UNL     1      -3.162   3.045 -31.744  1.00  0.00     0.030 A 
HETATM    3  C   UNL     1      -3.395   1.789 -32.315  1.00  0.00     0.017 A 
HETATM    4  C   UNL     1      -4.687   1.255 -32.337  1.00  0.00     0.010 A 
HETATM    5  C   UNL     1      -5.731   1.963 -31.736  1.00  0.00     0.017 A 
HETATM    6  C   UNL     1      -5.493   3.224 -31.172  1.00  0.00     0.030 A 
ENDROOT
BRANCH   1   7
HETATM    7  N   UNL     1      -4.051   5.085 -30.664  1.00  0.00    -0.325 N 
HETATM    8  C   UNL     1      -4.412   6.279 -31.262  1.00  0.00     0.246 C 
HETATM    9  O   UNL     1      -4.852   6.419 -32.402  1.00  0.00    -0.271 OA
HETATM   10  H   UNL     1      -3.672   5.169 -29.726  1.00  0.00     0.169 HD
BRANCH   8  11
HETATM   11  C   UNL     1      -4.194   7.507 -30.378  1.00  0.00     0.278 C 
BRANCH  11  12
HETATM   12  O   UNL     1      -3.167   8.370 -30.851  1.00  0.00    -0.342 OA
BRANCH  12  13
HETATM   13  C   UNL     1      -1.883   7.926 -30.653  1.00  0.00     0.069 A 
HETATM   14  C   UNL     1      -1.183   7.965 -29.442  1.00  0.00     0.043 A 
HETATM   15  C   UNL     1       0.127   7.467 -29.354  1.00  0.00    -0.059 A 
HETATM   16  C   UNL     1       0.856   7.464 -28.042  1.00  0.00     0.048 C 
HETATM   17  C   UNL     1       0.727   6.918 -30.492  1.00  0.00     0.007 A 
HETATM   18  C   UNL     1       0.040   6.890 -31.705  1.00  0.00     0.003 A 
HETATM   19  C   UNL     1      -1.259   7.396 -31.784  1.00  0.00     0.037 A 
ENDBRANCH  12  13
ENDBRANCH  11  12
ENDBRANCH   8  11
ENDBRANCH   1   7
BRANCH   4  20
HETATM   20  C   UNL     1      -4.964  -0.038 -33.011  1.00  0.00     0.141 A 
HETATM   21  N   UNL     1      -4.235  -1.085 -32.792  1.00  0.00    -0.230 NA
HETATM   22  C   UNL     1      -4.565  -2.277 -33.467  1.00  0.00     0.074 A 
HETATM   23  C   UNL     1      -5.663  -2.378 -34.325  1.00  0.00     0.061 A 
HETATM   24  C   UNL     1      -3.766  -3.407 -33.279  1.00  0.00     0.032 A 
HETATM   25  C   UNL     1      -6.486  -1.176 -34.515  1.00  0.00     0.259 A 
HETATM   26  C   UNL     1      -5.976  -3.574 -34.979  1.00  0.00     0.019 A 
HETATM   27  O   UNL     1      -7.492  -1.171 -35.215  1.00  0.00    -0.267 OA
HETATM   28  N   UNL     1      -6.059  -0.057 -33.848  1.00  0.00    -0.307 N 
HETATM   29  H   UNL     1      -6.657   0.749 -33.950  1.00  0.00     0.170 HD
HETATM   30  C   UNL     1      -5.171  -4.694 -34.778  1.00  0.00     0.001 A 
HETATM   31  C   UNL     1      -4.067  -4.609 -33.931  1.00  0.00     0.002 A 
ENDBRANCH   4  20
TORSDOF 5
ENDMDL
MODEL 4
REMARK VINA RESULT:      -9.1      1.449      2.043
REMARK  5 active torsions:
REMARK  status: ('A' for Active; 'I' for Inactive)
REMARK    1  A    between atoms: C_4  and  O_5 
REMARK    2  A    between atoms: O_5  and  C_6 
REMARK    3  A    between atoms: C_6  and  C_7 
REMARK       I    between atoms: C_7  and  N_8 
REMARK    4  A    between atoms: N_8  and  C_9 
REMARK    5  A    between atoms: C_12  and  C_13 
ROOT
HETATM    1  C   UNL     1      -4.625   3.623 -31.942  1.00  0.00     0.034 A 
HETATM    2  C   UNL     1      -5.677   2.998 -32.617  1.00  0.00     0.030 A 
HETATM    3  C   UNL     1      -5.607   1.642 -32.956  1.00  0.00     0.017 A 
HETATM    4  C   UNL     1      -4.478   0.891 -32.621  1.00  0.00     0.010 A 
HETATM    5  C   UNL     1      -3.397   1.519 -31.995  1.00  0.00     0.017 A 
HETATM    6  C   UNL     1      -3.475   2.875 -31.652  1.00  0.00     0.030 A 
ENDROOT
BRANCH   1   7
HETATM    7  N   UNL     1      -4.665   4.965 -31.511  1.00  0.00    -0.325 N 
HETATM    8  C   UNL     1      -5.056   5.434 -30.269  1.00  0.00     0.246 C 
HETATM    9  O   UNL     1      -5.528   4.764 -29.353  1.00  0.00    -0.271 OA
HETATM   10  H   UNL     1      -4.331   5.675 -32.155  1.00  0.00     0.169 HD
BRANCH   8  11
HETATM   11  C   UNL     1      -4.885   6.944 -30.094  1.00  0.00     0.278 C 
BRANCH  11  12
HETATM   12  O   UNL     1      -3.635   7.308 -29.519  1.00  0.00    -0.342 OA
BRANCH  12  13
HETATM   13  C   UNL     1      -2.546   7.188 -30.345  1.00  0.00     0.069 A 
HETATM   14  C   UNL     1      -1.447   6.348 -30.131  1.00  0.00     0.043 A 
HETATM   15  C   UNL     1      -0.392   6.295 -31.055  1.00  0.00    -0.059 A 
HETATM   16  C   UNL     1       0.760   5.356 -30.847  1.00  0.00     0.048 C 
HETATM   17  C   UNL     1      -0.452   7.089 -32.205  1.00  0.00     0.007 A 
HETATM   18  C   UNL     1      -1.537   7.939 -32.417  1.00  0.00     0.003 A 
HETATM   19  C   UNL     1      -2.577   7.990 -31.487  1.00  0.00     0.037 A 
ENDBRANCH  12  13
ENDBRANCH  11  12
ENDBRANCH   8  11
ENDBRANCH   1   7
BRANCH   4  20
HETATM   20  C   UNL     1      -4.422  -0.566 -32.901  1.00  0.00     0.141 A 
HETATM   21  N   UNL     1      -5.144  -1.105 -33.831  1.00  0.00    -0.230 NA
HETATM   22  C   UNL     1      -5.032  -2.493 -34.037  1.00  0.00     0.074 A 
HETATM   23  C   UNL     1      -4.151  -3.296 -33.308  1.00  0.00     0.061 A 
HETATM   24  C   UNL     1      -5.833  -3.103 -35.006  1.00  0.00     0.032 A 
HETATM   25  C   UNL     1      -3.323  -2.637 -32.288  1.00  0.00     0.259 A 
HETATM   26  C   UNL     1      -4.051  -4.672 -33.535  1.00  0.00     0.019 A 
HETATM   27  O   UNL     1      -2.492  -3.244 -31.623  1.00  0.00    -0.267 OA
HETATM   28  N   UNL     1      -3.535  -1.292 -32.135  1.00  0.00    -0.307 N 
HETATM   29  H   UNL     1      -2.929  -0.843 -31.464  1.00  0.00     0.170 HD
HETATM   30  C   UNL     1      -4.854  -5.264 -34.508  1.00  0.00     0.001 A 
HETATM   31  C   UNL     1      -5.745  -4.480 -35.241  1.00  0.00     0.002 A 
ENDBRANCH   4  20
TORSDOF 5
ENDMDL
MODEL 5
REMARK VINA RESULT:      -9.1      2.123      2.975
REMARK  5 active torsions:
REMARK  status: ('A' for Active; 'I' for Inactive)
REMARK    1  A    between atoms: C_4  and  O_5 
REMARK    2  A    between atoms: O_5  and  C_6 
REMARK    3  A    between atoms: C_6  and  C_7 
REMARK       I    between atoms: C_7  and  N_8 
REMARK    4  A    between atoms: N_8  and  C_9 
REMARK    5  A    between atoms: C_12  and  C_13 
ROOT
HETATM    1  C   UNL     1      -3.722   4.369 -31.163  1.00  0.00     0.034 A 
HETATM    2  C   UNL     1      -5.071   4.049 -30.992  1.00  0.00     0.030 A 
HETATM    3  C   UNL     1      -5.616   2.901 -31.578  1.00  0.00     0.017 A 
HETATM    4  C   UNL     1      -4.812   2.055 -32.346  1.00  0.00     0.010 A 
HETATM    5  C   UNL     1      -3.475   2.394 -32.568  1.00  0.00     0.017 A 
HETATM    6  C   UNL     1      -2.932   3.541 -31.973  1.00  0.00     0.030 A 
ENDROOT
BRANCH   1   7
HETATM    7  N   UNL     1      -3.098   5.470 -30.540  1.00  0.00    -0.325 N 
HETATM    8  C   UNL     1      -2.965   6.752 -31.044  1.00  0.00     0.246 C 
HETATM    9  O   UNL     1      -3.287   7.130 -32.169  1.00  0.00    -0.271 OA
HETATM   10  H   UNL     1      -2.742   5.337 -29.599  1.00  0.00     0.169 HD
BRANCH   8  11
HETATM   11  C   UNL     1      -2.323   7.739 -30.068  1.00  0.00     0.278 C 
BRANCH  11  12
HETATM   12  O   UNL     1      -1.250   7.179 -29.320  1.00  0.00    -0.342 OA
BRANCH  12  13
HETATM   13  C   UNL     1      -0.538   8.064 -28.551  1.00  0.00     0.069 A 
HETATM   14  C   UNL     1      -1.064   9.183 -27.894  1.00  0.00     0.043 A 
HETATM   15  C   UNL     1      -0.239  10.014 -27.119  1.00  0.00    -0.059 A 
HETATM   16  C   UNL     1      -0.816  11.184 -26.376  1.00  0.00     0.048 C 
HETATM   17  C   UNL     1       1.120   9.708 -27.000  1.00  0.00     0.007 A 
HETATM   18  C   UNL     1       1.653   8.603 -27.664  1.00  0.00     0.003 A 
HETATM   19  C   UNL     1       0.826   7.789 -28.439  1.00  0.00     0.037 A 
ENDBRANCH  12  13
ENDBRANCH  11  12
ENDBRANCH   8  11
ENDBRANCH   1   7
BRANCH   4  20
HETATM   20  C   UNL     1      -5.355   0.792 -32.907  1.00  0.00     0.141 A 
HETATM   21  N   UNL     1      -4.580  -0.192 -33.234  1.00  0.00    -0.230 NA
HETATM   22  C   UNL     1      -5.173  -1.359 -33.756  1.00  0.00     0.074 A 
HETATM   23  C   UNL     1      -6.555  -1.504 -33.897  1.00  0.00     0.061 A 
HETATM   24  C   UNL     1      -4.352  -2.417 -34.155  1.00  0.00     0.032 A 
HETATM   25  C   UNL     1      -7.399  -0.377 -33.479  1.00  0.00     0.259 A 
HETATM   26  C   UNL     1      -7.121  -2.675 -34.412  1.00  0.00     0.019 A 
HETATM   27  O   UNL     1      -8.623  -0.420 -33.525  1.00  0.00    -0.267 OA
HETATM   28  N   UNL     1      -6.727   0.726 -33.023  1.00  0.00    -0.307 N 
HETATM   29  H   UNL     1      -7.319   1.477 -32.697  1.00  0.00     0.170 HD
HETATM   30  C   UNL     1      -6.289  -3.723 -34.802  1.00  0.00     0.001 A 
HETATM   31  C   UNL     1      -4.906  -3.592 -34.675  1.00  0.00     0.002 A 
ENDBRANCH   4  20
TORSDOF 5
ENDMDL
MODEL 6
REMARK VINA RESULT:      -9.0      2.399     10.709
REMARK  5 active torsions:
REMARK  status: ('A' for Active; 'I' for Inactive)
REMARK    1  A    between atoms: C_4  and  O_5 
REMARK    2  A    between atoms: O_5  and  C_6 
REMARK    3  A    between atoms: C_6  and  C_7 
REMARK       I    between atoms: C_7  and  N_8 
REMARK    4  A    between atoms: N_8  and  C_9 
REMARK    5  A    between atoms: C_12  and  C_13 
ROOT
HETATM    1  C   UNL     1      -4.422   3.297 -32.233  1.00  0.00     0.034 A 
HETATM    2  C   UNL     1      -3.028   3.388 -32.222  1.00  0.00     0.030 A 
HETATM    3  C   UNL     1      -2.382   4.421 -31.534  1.00  0.00     0.017 A 
HETATM    4  C   UNL     1      -3.127   5.381 -30.844  1.00  0.00     0.010 A 
HETATM    5  C   UNL     1      -4.523   5.330 -30.893  1.00  0.00     0.017 A 
HETATM    6  C   UNL     1      -5.165   4.289 -31.578  1.00  0.00     0.030 A 
ENDROOT
BRANCH   1   7
HETATM    7  N   UNL     1      -5.128   2.241 -32.847  1.00  0.00    -0.325 N 
HETATM    8  C   UNL     1      -5.461   1.020 -32.288  1.00  0.00     0.246 C 
HETATM    9  O   UNL     1      -5.114   0.606 -31.183  1.00  0.00    -0.271 OA
HETATM   10  H   UNL     1      -5.476   2.395 -33.788  1.00  0.00     0.169 HD
BRANCH   8  11
HETATM   11  C   UNL     1      -6.321   0.137 -33.193  1.00  0.00     0.278 C 
BRANCH  11  12
HETATM   12  O   UNL     1      -5.609  -0.399 -34.302  1.00  0.00    -0.342 OA
BRANCH  12  13
HETATM   13  C   UNL     1      -5.565  -1.769 -34.372  1.00  0.00     0.069 A 
HETATM   14  C   UNL     1      -4.451  -2.567 -34.085  1.00  0.00     0.043 A 
HETATM   15  C   UNL     1      -4.527  -3.965 -34.177  1.00  0.00    -0.059 A 
HETATM   16  C   UNL     1      -3.345  -4.820 -33.820  1.00  0.00     0.048 C 
HETATM   17  C   UNL     1      -5.736  -4.561 -34.550  1.00  0.00     0.007 A 
HETATM   18  C   UNL     1      -6.845  -3.771 -34.852  1.00  0.00     0.003 A 
HETATM   19  C   UNL     1      -6.757  -2.381 -34.766  1.00  0.00     0.037 A 
ENDBRANCH  12  13
ENDBRANCH  11  12
ENDBRANCH   8  11
ENDBRANCH   1   7
BRANCH   4  20
HETATM   20  C   UNL     1      -2.456   6.435 -30.043  1.00  0.00     0.141 A 
HETATM   21  N   UNL     1      -1.185   6.396 -29.802  1.00  0.00    -0.230 NA
HETATM   22  C   UNL     1      -0.622   7.436 -29.037  1.00  0.00     0.074 A 
HETATM   23  C   UNL     1      -1.371   8.517 -28.566  1.00  0.00     0.061 A 
HETATM   24  C   UNL     1       0.740   7.392 -28.729  1.00  0.00     0.032 A 
HETATM   25  C   UNL     1      -2.804   8.540 -28.894  1.00  0.00     0.259 A 
HETATM   26  C   UNL     1      -0.790   9.542 -27.814  1.00  0.00     0.019 A 
HETATM   27  O   UNL     1      -3.539   9.463 -28.562  1.00  0.00    -0.267 OA
HETATM   28  N   UNL     1      -3.263   7.464 -29.606  1.00  0.00    -0.307 N 
HETATM   29  H   UNL     1      -4.238   7.513 -29.865  1.00  0.00     0.170 HD
HETATM   30  C   UNL     1       0.571   9.485 -27.518  1.00  0.00     0.001 A 
HETATM   31  C   UNL     1       1.334   8.410 -27.974  1.00  0.00     0.002 A 
ENDBRANCH   4  20
TORSDOF 5
ENDMDL
MODEL 7
REMARK VINA RESULT:      -8.5      4.785      6.218
REMARK  5 active torsions:
REMARK  status: ('A' for Active; 'I' for Inactive)
REMARK    1  A    between atoms: C_4  and  O_5 
REMARK    2  A    between atoms: O_5  and  C_6 
REMARK    3  A    between atoms: C_6  and  C_7 
REMARK       I    between atoms: C_7  and  N_8 
REMARK    4  A    between atoms: N_8  and  C_9 
REMARK    5  A    between atoms: C_12  and  C_13 
ROOT
HETATM    1  C   UNL     1      -5.582   4.124 -33.567  1.00  0.00     0.034 A 
HETATM    2  C   UNL     1      -5.870   2.763 -33.702  1.00  0.00     0.030 A 
HETATM    3  C   UNL     1      -7.190   2.318 -33.833  1.00  0.00     0.017 A 
HETATM    4  C   UNL     1      -8.245   3.235 -33.832  1.00  0.00     0.010 A 
HETATM    5  C   UNL     1      -7.972   4.593 -33.643  1.00  0.00     0.017 A 
HETATM    6  C   UNL     1      -6.648   5.034 -33.519  1.00  0.00     0.030 A 
ENDROOT
BRANCH   1   7
HETATM    7  N   UNL     1      -4.271   4.640 -33.503  1.00  0.00    -0.325 N 
HETATM    8  C   UNL     1      -3.560   5.246 -34.523  1.00  0.00     0.246 C 
HETATM    9  O   UNL     1      -3.915   5.356 -35.695  1.00  0.00    -0.271 OA
HETATM   10  H   UNL     1      -3.800   4.611 -32.605  1.00  0.00     0.169 HD
BRANCH   8  11
HETATM   11  C   UNL     1      -2.195   5.786 -34.092  1.00  0.00     0.278 C 
BRANCH  11  12
HETATM   12  O   UNL     1      -2.280   6.907 -33.221  1.00  0.00    -0.342 OA
BRANCH  12  13
HETATM   13  C   UNL     1      -1.552   6.813 -32.061  1.00  0.00     0.069 A 
HETATM   14  C   UNL     1      -0.625   5.809 -31.757  1.00  0.00     0.043 A 
HETATM   15  C   UNL     1       0.075   5.823 -30.541  1.00  0.00    -0.059 A 
HETATM   16  C   UNL     1       1.104   4.773 -30.240  1.00  0.00     0.048 C 
HETATM   17  C   UNL     1      -0.155   6.861 -29.632  1.00  0.00     0.007 A 
HETATM   18  C   UNL     1      -1.087   7.856 -29.923  1.00  0.00     0.003 A 
HETATM   19  C   UNL     1      -1.785   7.829 -31.131  1.00  0.00     0.037 A 
ENDBRANCH  12  13
ENDBRANCH  11  12
ENDBRANCH   8  11
ENDBRANCH   1   7
BRANCH   4  20
HETATM   20  C   UNL     1      -9.643   2.787 -34.051  1.00  0.00     0.141 A 
HETATM   21  N   UNL     1     -10.073   1.658 -33.588  1.00  0.00    -0.230 NA
HETATM   22  C   UNL     1     -11.414   1.306 -33.836  1.00  0.00     0.074 A 
HETATM   23  C   UNL     1     -12.298   2.141 -34.523  1.00  0.00     0.061 A 
HETATM   24  C   UNL     1     -11.887   0.072 -33.382  1.00  0.00     0.032 A 
HETATM   25  C   UNL     1     -11.779   3.430 -34.999  1.00  0.00     0.259 A 
HETATM   26  C   UNL     1     -13.628   1.774 -34.751  1.00  0.00     0.019 A 
HETATM   27  O   UNL     1     -12.483   4.250 -35.577  1.00  0.00    -0.267 OA
HETATM   28  N   UNL     1     -10.453   3.662 -34.745  1.00  0.00    -0.307 N 
HETATM   29  H   UNL     1     -10.119   4.569 -35.036  1.00  0.00     0.170 HD
HETATM   30  C   UNL     1     -14.086   0.541 -34.289  1.00  0.00     0.001 A 
HETATM   31  C   UNL     1     -13.215  -0.309 -33.607  1.00  0.00     0.002 A 
ENDBRANCH   4  20
TORSDOF 5
ENDMDL
MODEL 8
REMARK VINA RESULT:      -8.3     16.516     18.549
REMARK  5 active torsions:
REMARK  status: ('A' for Active; 'I' for Inactive)
REMARK    1  A    between atoms: C_4  and  O_5 
REMARK    2  A    between atoms: O_5  and  C_6 
REMARK    3  A    between atoms: C_6  and  C_7 
REMARK       I    between atoms: C_7  and  N_8 
REMARK    4  A    between atoms: N_8  and  C_9 
REMARK    5  A    between atoms: C_12  and  C_13 
ROOT
HETATM    1  C   UNL     1      -4.970 -15.037 -32.202  1.00  0.00     0.034 A 
HETATM    2  C   UNL     1      -4.499 -15.771 -33.294  1.00  0.00     0.030 A 
HETATM    3  C   UNL     1      -4.679 -15.306 -34.601  1.00  0.00     0.017 A 
HETATM    4  C   UNL     1      -5.335 -14.095 -34.834  1.00  0.00     0.010 A 
HETATM    5  C   UNL     1      -5.858 -13.380 -33.752  1.00  0.00     0.017 A 
HETATM    6  C   UNL     1      -5.669 -13.846 -32.444  1.00  0.00     0.030 A 
ENDROOT
BRANCH   1   7
HETATM    7  N   UNL     1      -4.758 -15.416 -30.860  1.00  0.00    -0.325 N 
HETATM    8  C   UNL     1      -5.401 -16.422 -30.162  1.00  0.00     0.246 C 
HETATM    9  O   UNL     1      -6.342 -17.103 -30.566  1.00  0.00    -0.271 OA
HETATM   10  H   UNL     1      -4.023 -14.936 -30.349  1.00  0.00     0.169 HD
BRANCH   8  11
HETATM   11  C   UNL     1      -4.861 -16.640 -28.748  1.00  0.00     0.278 C 
BRANCH  11  12
HETATM   12  O   UNL     1      -3.861 -17.650 -28.674  1.00  0.00    -0.342 OA
BRANCH  12  13
HETATM   13  C   UNL     1      -2.610 -17.219 -28.312  1.00  0.00     0.069 A 
HETATM   14  C   UNL     1      -1.976 -16.062 -28.781  1.00  0.00     0.043 A 
HETATM   15  C   UNL     1      -0.695 -15.710 -28.328  1.00  0.00    -0.059 A 
HETATM   16  C   UNL     1      -0.040 -14.443 -28.795  1.00  0.00     0.048 C 
HETATM   17  C   UNL     1      -0.055 -16.526 -27.389  1.00  0.00     0.007 A 
HETATM   18  C   UNL     1      -0.674 -17.687 -26.929  1.00  0.00     0.003 A 
HETATM   19  C   UNL     1      -1.945 -18.033 -27.392  1.00  0.00     0.037 A 
ENDBRANCH  12  13
ENDBRANCH  11  12
ENDBRANCH   8  11
ENDBRANCH   1   7
BRANCH   4  20
HETATM   20  C   UNL     1      -5.462 -13.549 -36.209  1.00  0.00     0.141 A 
HETATM   21  N   UNL     1      -6.576 -13.620 -36.865  1.00  0.00    -0.230 NA
HETATM   22  C   UNL     1      -6.616 -13.075 -38.163  1.00  0.00     0.074 A 
HETATM   23  C   UNL     1      -5.521 -12.434 -38.747  1.00  0.00     0.061 A 
HETATM   24  C   UNL     1      -7.795 -13.178 -38.906  1.00  0.00     0.032 A 
HETATM   25  C   UNL     1      -4.288 -12.343 -37.952  1.00  0.00     0.259 A 
HETATM   26  C   UNL     1      -5.586 -11.894 -40.036  1.00  0.00     0.019 A 
HETATM   27  O   UNL     1      -3.286 -11.766 -38.357  1.00  0.00    -0.267 OA
HETATM   28  N   UNL     1      -4.336 -12.938 -36.719  1.00  0.00    -0.307 N 
HETATM   29  H   UNL     1      -3.500 -12.830 -36.165  1.00  0.00     0.170 HD
HETATM   30  C   UNL     1      -6.771 -12.002 -40.762  1.00  0.00     0.001 A 
HETATM   31  C   UNL     1      -7.872 -12.645 -40.198  1.00  0.00     0.002 A 
ENDBRANCH   4  20
TORSDOF 5
ENDMDL
MODEL 9
REMARK VINA RESULT:      -8.3     16.606     19.105
REMARK  5 active torsions:
REMARK  status: ('A' for Active; 'I' for Inactive)
REMARK    1  A    between atoms: C_4  and  O_5 
REMARK    2  A    between atoms: O_5  and  C_6 
REMARK    3  A    between atoms: C_6  and  C_7 
REMARK       I    between atoms: C_7  and  N_8 
REMARK    4  A    between atoms: N_8  and  C_9 
REMARK    5  A    between atoms: C_12  and  C_13 
ROOT
HETATM    1  C   UNL     1      -6.306 -13.653 -35.062  1.00  0.00     0.034 A 
HETATM    2  C   UNL     1      -5.757 -13.002 -33.955  1.00  0.00     0.030 A 
HETATM    3  C   UNL     1      -5.565 -13.680 -32.746  1.00  0.00     0.017 A 
HETATM    4  C   UNL     1      -5.922 -15.027 -32.631  1.00  0.00     0.010 A 
HETATM    5  C   UNL     1      -6.521 -15.673 -33.716  1.00  0.00     0.017 A 
HETATM    6  C   UNL     1      -6.705 -14.990 -34.926  1.00  0.00     0.030 A 
ENDROOT
BRANCH   1   7
HETATM    7  N   UNL     1      -6.458 -13.045 -36.326  1.00  0.00    -0.325 N 
HETATM    8  C   UNL     1      -5.616 -13.162 -37.418  1.00  0.00     0.246 C 
HETATM    9  O   UNL     1      -4.534 -13.745 -37.445  1.00  0.00    -0.271 OA
HETATM   10  H   UNL     1      -7.295 -12.493 -36.483  1.00  0.00     0.169 HD
BRANCH   8  11
HETATM   11  C   UNL     1      -6.125 -12.452 -38.673  1.00  0.00     0.278 C 
BRANCH  11  12
HETATM   12  O   UNL     1      -6.644 -13.341 -39.655  1.00  0.00    -0.342 OA
BRANCH  12  13
HETATM   13  C   UNL     1      -8.007 -13.319 -39.814  1.00  0.00     0.069 A 
HETATM   14  C   UNL     1      -8.779 -12.185 -40.087  1.00  0.00     0.043 A 
HETATM   15  C   UNL     1     -10.170 -12.284 -40.245  1.00  0.00    -0.059 A 
HETATM   16  C   UNL     1     -10.989 -11.073 -40.587  1.00  0.00     0.048 C 
HETATM   17  C   UNL     1     -10.782 -13.537 -40.135  1.00  0.00     0.007 A 
HETATM   18  C   UNL     1     -10.020 -14.669 -39.848  1.00  0.00     0.003 A 
HETATM   19  C   UNL     1      -8.639 -14.557 -39.685  1.00  0.00     0.037 A 
ENDBRANCH  12  13
ENDBRANCH  11  12
ENDBRANCH   8  11
ENDBRANCH   1   7
BRANCH   4  20
HETATM   20  C   UNL     1      -5.650 -15.782 -31.382  1.00  0.00     0.141 A 
HETATM   21  N   UNL     1      -4.469 -15.812 -30.852  1.00  0.00    -0.230 NA
HETATM   22  C   UNL     1      -4.293 -16.549 -29.665  1.00  0.00     0.074 A 
HETATM   23  C   UNL     1      -5.344 -17.209 -29.024  1.00  0.00     0.061 A 
HETATM   24  C   UNL     1      -3.018 -16.630 -29.099  1.00  0.00     0.032 A 
HETATM   25  C   UNL     1      -6.675 -17.117 -29.639  1.00  0.00     0.259 A 
HETATM   26  C   UNL     1      -5.147 -17.928 -27.840  1.00  0.00     0.019 A 
HETATM   27  O   UNL     1      -7.669 -17.627 -29.135  1.00  0.00    -0.267 OA
HETATM   28  N   UNL     1      -6.735 -16.414 -30.813  1.00  0.00    -0.307 N 
HETATM   29  H   UNL     1      -7.662 -16.319 -31.202  1.00  0.00     0.170 HD
HETATM   30  C   UNL     1      -3.870 -17.997 -27.287  1.00  0.00     0.001 A 
HETATM   31  C   UNL     1      -2.807 -17.349 -27.917  1.00  0.00     0.002 A 
ENDBRANCH   4  20
TORSDOF 5
ENDMDL
MODEL 10
REMARK VINA RESULT:      -8.2      2.382      3.397
REMARK  5 active torsions:
REMARK  status: ('A' for Active; 'I' for Inactive)
REMARK    1  A    between atoms: C_4  and  O_5 
REMARK    2  A    between atoms: O_5  and  C_6 
REMARK    3  A    between atoms: C_6  and  C_7 
REMARK       I    between atoms: C_7  and  N_8 
REMARK    4  A    between atoms: N_8  and  C_9 
REMARK    5  A    between atoms: C_12  and  C_13 
ROOT
HETATM    1  C   UNL     1      -5.067   5.206 -31.032  1.00  0.00     0.034 A 
HETATM    2  C   UNL     1      -6.341   4.642 -31.133  1.00  0.00     0.030 A 
HETATM    3  C   UNL     1      -6.541   3.438 -31.817  1.00  0.00     0.017 A 
HETATM    4  C   UNL     1      -5.461   2.780 -32.412  1.00  0.00     0.010 A 
HETATM    5  C   UNL     1      -4.192   3.362 -32.364  1.00  0.00     0.017 A 
HETATM    6  C   UNL     1      -3.996   4.565 -31.671  1.00  0.00     0.030 A 
ENDROOT
BRANCH   1   7
HETATM    7  N   UNL     1      -4.790   6.377 -30.297  1.00  0.00    -0.325 N 
HETATM    8  C   UNL     1      -4.821   6.530 -28.922  1.00  0.00     0.246 C 
HETATM    9  O   UNL     1      -5.190   5.689 -28.103  1.00  0.00    -0.271 OA
HETATM   10  H   UNL     1      -4.489   7.197 -30.815  1.00  0.00     0.169 HD
BRANCH   8  11
HETATM   11  C   UNL     1      -4.368   7.909 -28.439  1.00  0.00     0.278 C 
BRANCH  11  12
HETATM   12  O   UNL     1      -3.508   8.574 -29.357  1.00  0.00    -0.342 OA
BRANCH  12  13
HETATM   13  C   UNL     1      -2.180   8.239 -29.274  1.00  0.00     0.069 A 
HETATM   14  C   UNL     1      -1.440   7.582 -30.264  1.00  0.00     0.043 A 
HETATM   15  C   UNL     1      -0.077   7.303 -30.075  1.00  0.00    -0.059 A 
HETATM   16  C   UNL     1       0.725   6.642 -31.159  1.00  0.00     0.048 C 
HETATM   17  C   UNL     1       0.542   7.698 -28.885  1.00  0.00     0.007 A 
HETATM   18  C   UNL     1      -0.192   8.340 -27.890  1.00  0.00     0.003 A 
HETATM   19  C   UNL     1      -1.549   8.605 -28.084  1.00  0.00     0.037 A 
ENDBRANCH  12  13
ENDBRANCH  11  12
ENDBRANCH   8  11
ENDBRANCH   1   7
BRANCH   4  20
HETATM   20  C   UNL     1      -5.643   1.462 -33.071  1.00  0.00     0.141 A 
HETATM   21  N   UNL     1      -4.830   0.479 -32.854  1.00  0.00    -0.230 NA
HETATM   22  C   UNL     1      -5.072  -0.741 -33.515  1.00  0.00     0.074 A 
HETATM   23  C   UNL     1      -6.170  -0.938 -34.357  1.00  0.00     0.061 A 
HETATM   24  C   UNL     1      -4.183  -1.803 -33.329  1.00  0.00     0.032 A 
HETATM   25  C   UNL     1      -7.088   0.193 -34.546  1.00  0.00     0.259 A 
HETATM   26  C   UNL     1      -6.395  -2.161 -34.998  1.00  0.00     0.019 A 
HETATM   27  O   UNL     1      -8.100   0.111 -35.232  1.00  0.00    -0.267 OA
HETATM   28  N   UNL     1      -6.744   1.348 -33.894  1.00  0.00    -0.307 N 
HETATM   29  H   UNL     1      -7.406   2.104 -33.994  1.00  0.00     0.170 HD
HETATM   30  C   UNL     1      -5.500  -3.211 -34.799  1.00  0.00     0.001 A 
HETATM   31  C   UNL     1      -4.395  -3.030 -33.967  1.00  0.00     0.002 A 
ENDBRANCH   4  20
TORSDOF 5
ENDMDL
