MODEL 1
REMARK VINA RESULT:      -8.7      0.000      0.000
REMARK  5 active torsions:
REMARK  status: ('A' for Active; 'I' for Inactive)
REMARK    1  A    between atoms: C_2  and  C_3 
REMARK    2  A    between atoms: C_3  and  C_4 
REMARK    3  A    between atoms: C_3  and  C_29 
REMARK       I    between atoms: C_4  and  N_5 
REMARK    4  A    between atoms: N_5  and  C_6 
REMARK    5  A    between atoms: C_18  and  C_19 
ROOT
HETATM    1  C   UNL     1      -4.292   7.089 -30.955  1.00  0.00     0.088 C 
HETATM    2  C   UNL     1      -4.850   6.155 -29.898  1.00  0.00     0.060 C 
HETATM    3  C   UNL     1      -5.396   4.816 -30.433  1.00  0.00     0.181 C 
HETATM    4  N   UNL     1      -5.962   4.842 -31.791  1.00  0.00    -0.334 N 
HETATM    5  C   UNL     1      -6.235   3.657 -32.487  1.00  0.00     0.256 C 
HETATM    6  O   UNL     1      -6.479   3.662 -33.696  1.00  0.00    -0.267 OA
HETATM    7  C   UNL     1      -6.185   2.331 -31.821  1.00  0.00     0.059 A 
HETATM    8  C   UNL     1      -6.612   2.073 -30.517  1.00  0.00     0.050 A 
HETATM    9  N   UNL     1      -6.959   3.042 -29.573  1.00  0.00    -0.324 N 
HETATM   10  C   UNL     1      -6.469   4.308 -29.442  1.00  0.00     0.245 C 
HETATM   11  O   UNL     1      -6.815   4.935 -28.436  1.00  0.00    -0.271 OA
HETATM   12  C   UNL     1      -5.811   1.250 -32.647  1.00  0.00     0.031 A 
HETATM   13  C   UNL     1      -5.864  -0.073 -32.196  1.00  0.00    -0.024 A 
HETATM   14  C   UNL     1      -6.344  -0.320 -30.910  1.00  0.00     0.014 A 
HETATM   15  C   UNL     1      -6.725   0.741 -30.086  1.00  0.00     0.031 A 
HETATM   16  C   UNL     1      -5.716   5.983 -32.679  1.00  0.00     0.129 C 
HETATM   17  C   UNL     1      -5.364   7.296 -32.013  1.00  0.00     0.045 C 
HETATM   18  H   UNL     1      -7.484   2.755 -28.755  1.00  0.00     0.169 HD
ENDROOT
BRANCH   1  19
HETATM   19  N   UNL     1      -3.030   6.615 -31.507  1.00  0.00    -0.356 N 
HETATM   20  C   UNL     1      -2.128   7.490 -32.077  1.00  0.00     0.222 C 
HETATM   21  O   UNL     1      -2.295   8.706 -32.091  1.00  0.00    -0.273 OA
HETATM   22  H   UNL     1      -2.921   5.629 -31.702  1.00  0.00     0.162 HD
BRANCH  20  23
HETATM   23  C   UNL     1      -0.890   6.849 -32.707  1.00  0.00     0.077 C 
BRANCH  23  24
HETATM   24  C   UNL     1      -1.201   5.451 -33.270  1.00  0.00     0.009 C 
HETATM   25  C   UNL     1      -1.600   5.481 -34.740  1.00  0.00     0.006 C 
ENDBRANCH  23  24
BRANCH  23  26
HETATM   26  C   UNL     1       0.282   6.780 -31.711  1.00  0.00     0.009 C 
HETATM   27  C   UNL     1       0.424   5.408 -31.064  1.00  0.00     0.006 C 
ENDBRANCH  23  26
ENDBRANCH  20  23
ENDBRANCH   1  19
BRANCH  13  28
HETATM   28  C   UNL     1      -5.446  -1.163 -33.073  1.00  0.00    -0.019 A 
HETATM   29  C   UNL     1      -6.289  -1.702 -34.027  1.00  0.00     0.061 A 
HETATM   30  S   UNL     1      -5.567  -2.987 -34.899  1.00  0.00    -0.113 SA
HETATM   31  C   UNL     1      -4.118  -2.850 -34.005  1.00  0.00     0.050 A 
HETATM   32  C   UNL     1      -4.184  -1.844 -33.065  1.00  0.00     0.020 A 
ENDBRANCH  13  28
TORSDOF 5
ENDMDL
MODEL 2
REMARK VINA RESULT:      -8.1      3.198      7.648
REMARK  5 active torsions:
REMARK  status: ('A' for Active; 'I' for Inactive)
REMARK    1  A    between atoms: C_2  and  C_3 
REMARK    2  A    between atoms: C_3  and  C_4 
REMARK    3  A    between atoms: C_3  and  C_29 
REMARK       I    between atoms: C_4  and  N_5 
REMARK    4  A    between atoms: N_5  and  C_6 
REMARK    5  A    between atoms: C_18  and  C_19 
ROOT
HETATM    1  C   UNL     1      -8.452   1.112 -33.046  1.00  0.00     0.088 C 
HETATM    2  C   UNL     1      -8.137   2.370 -33.835  1.00  0.00     0.060 C 
HETATM    3  C   UNL     1      -7.143   3.334 -33.156  1.00  0.00     0.181 C 
HETATM    4  N   UNL     1      -7.156   3.349 -31.685  1.00  0.00    -0.334 N 
HETATM    5  C   UNL     1      -6.130   3.966 -30.956  1.00  0.00     0.256 C 
HETATM    6  O   UNL     1      -6.002   3.782 -29.743  1.00  0.00    -0.267 OA
HETATM    7  C   UNL     1      -5.110   4.821 -31.614  1.00  0.00     0.059 A 
HETATM    8  C   UNL     1      -5.361   5.699 -32.669  1.00  0.00     0.050 A 
HETATM    9  N   UNL     1      -6.549   5.766 -33.401  1.00  0.00    -0.324 N 
HETATM   10  C   UNL     1      -7.424   4.759 -33.685  1.00  0.00     0.245 C 
HETATM   11  O   UNL     1      -8.331   5.022 -34.481  1.00  0.00    -0.271 OA
HETATM   12  C   UNL     1      -3.838   4.828 -31.003  1.00  0.00     0.031 A 
HETATM   13  C   UNL     1      -2.825   5.697 -31.422  1.00  0.00    -0.024 A 
HETATM   14  C   UNL     1      -3.107   6.607 -32.442  1.00  0.00     0.014 A 
HETATM   15  C   UNL     1      -4.365   6.614 -33.048  1.00  0.00     0.031 A 
HETATM   16  C   UNL     1      -7.831   2.286 -30.934  1.00  0.00     0.129 C 
HETATM   17  C   UNL     1      -8.922   1.531 -31.662  1.00  0.00     0.045 C 
HETATM   18  H   UNL     1      -6.722   6.587 -33.970  1.00  0.00     0.169 HD
ENDROOT
BRANCH   1  19
HETATM   19  N   UNL     1      -7.331   0.182 -33.011  1.00  0.00    -0.356 N 
HETATM   20  C   UNL     1      -7.073  -0.663 -34.071  1.00  0.00     0.222 C 
HETATM   21  O   UNL     1      -7.712  -0.635 -35.118  1.00  0.00    -0.273 OA
HETATM   22  H   UNL     1      -6.898  -0.027 -32.122  1.00  0.00     0.162 HD
BRANCH  20  23
HETATM   23  C   UNL     1      -5.929  -1.656 -33.862  1.00  0.00     0.077 C 
BRANCH  23  24
HETATM   24  C   UNL     1      -4.595  -0.937 -33.595  1.00  0.00     0.009 C 
HETATM   25  C   UNL     1      -3.767  -1.611 -32.508  1.00  0.00     0.006 C 
ENDBRANCH  23  24
BRANCH  23  26
HETATM   26  C   UNL     1      -5.791  -2.623 -35.052  1.00  0.00     0.009 C 
HETATM   27  C   UNL     1      -6.557  -3.923 -34.845  1.00  0.00     0.006 C 
ENDBRANCH  23  26
ENDBRANCH  20  23
ENDBRANCH   1  19
BRANCH  13  28
HETATM   28  C   UNL     1      -1.514   5.657 -30.781  1.00  0.00    -0.019 A 
HETATM   29  C   UNL     1      -1.246   6.351 -29.615  1.00  0.00     0.061 A 
HETATM   30  S   UNL     1       0.373   6.163 -29.090  1.00  0.00    -0.113 SA
HETATM   31  C   UNL     1       0.744   5.158 -30.421  1.00  0.00     0.050 A 
HETATM   32  C   UNL     1      -0.344   4.969 -31.245  1.00  0.00     0.020 A 
ENDBRANCH  13  28
TORSDOF 5
ENDMDL
MODEL 3
REMARK VINA RESULT:      -7.6      3.102      5.767
REMARK  5 active torsions:
REMARK  status: ('A' for Active; 'I' for Inactive)
REMARK    1  A    between atoms: C_2  and  C_3 
REMARK    2  A    between atoms: C_3  and  C_4 
REMARK    3  A    between atoms: C_3  and  C_29 
REMARK       I    between atoms: C_4  and  N_5 
REMARK    4  A    between atoms: N_5  and  C_6 
REMARK    5  A    between atoms: C_18  and  C_19 
ROOT
HETATM    1  C   UNL     1      -7.803   5.007 -31.596  1.00  0.00     0.088 C 
HETATM    2  C   UNL     1      -6.317   4.822 -31.839  1.00  0.00     0.060 C 
HETATM    3  C   UNL     1      -5.839   3.357 -31.878  1.00  0.00     0.181 C 
HETATM    4  N   UNL     1      -6.590   2.408 -31.041  1.00  0.00    -0.334 N 
HETATM    5  C   UNL     1      -6.435   1.024 -31.196  1.00  0.00     0.256 C 
HETATM    6  O   UNL     1      -7.220   0.226 -30.678  1.00  0.00    -0.267 OA
HETATM    7  C   UNL     1      -5.355   0.448 -32.038  1.00  0.00     0.059 A 
HETATM    8  C   UNL     1      -4.059   0.954 -32.134  1.00  0.00     0.050 A 
HETATM    9  N   UNL     1      -3.630   2.182 -31.623  1.00  0.00    -0.324 N 
HETATM   10  C   UNL     1      -4.348   3.331 -31.469  1.00  0.00     0.245 C 
HETATM   11  O   UNL     1      -3.716   4.339 -31.138  1.00  0.00    -0.271 OA
HETATM   12  C   UNL     1      -5.659  -0.785 -32.654  1.00  0.00     0.031 A 
HETATM   13  C   UNL     1      -4.691  -1.516 -33.353  1.00  0.00    -0.024 A 
HETATM   14  C   UNL     1      -3.387  -1.024 -33.395  1.00  0.00     0.014 A 
HETATM   15  C   UNL     1      -3.073   0.191 -32.782  1.00  0.00     0.031 A 
HETATM   16  C   UNL     1      -7.893   2.777 -30.480  1.00  0.00     0.129 C 
HETATM   17  C   UNL     1      -8.167   4.258 -30.323  1.00  0.00     0.045 C 
HETATM   18  H   UNL     1      -2.634   2.345 -31.527  1.00  0.00     0.169 HD
ENDROOT
BRANCH   1  19
HETATM   19  N   UNL     1      -8.609   4.610 -32.742  1.00  0.00    -0.356 N 
HETATM   20  C   UNL     1      -9.893   5.086 -32.909  1.00  0.00     0.222 C 
HETATM   21  O   UNL     1     -10.402   5.913 -32.158  1.00  0.00    -0.273 OA
HETATM   22  H   UNL     1      -8.331   3.799 -33.277  1.00  0.00     0.162 HD
BRANCH  20  23
HETATM   23  C   UNL     1     -10.663   4.512 -34.100  1.00  0.00     0.077 C 
BRANCH  23  24
HETATM   24  C   UNL     1     -10.304   3.037 -34.349  1.00  0.00     0.009 C 
HETATM   25  C   UNL     1     -11.521   2.179 -34.672  1.00  0.00     0.006 C 
ENDBRANCH  23  24
BRANCH  23  26
HETATM   26  C   UNL     1     -10.437   5.344 -35.376  1.00  0.00     0.009 C 
HETATM   27  C   UNL     1     -11.360   6.553 -35.459  1.00  0.00     0.006 C 
ENDBRANCH  23  26
ENDBRANCH  20  23
ENDBRANCH   1  19
BRANCH  13  28
HETATM   28  C   UNL     1      -5.050  -2.775 -33.998  1.00  0.00    -0.019 A 
HETATM   29  C   UNL     1      -6.238  -2.934 -34.688  1.00  0.00     0.061 A 
HETATM   30  S   UNL     1      -6.431  -4.514 -35.319  1.00  0.00    -0.113 SA
HETATM   31  C   UNL     1      -4.933  -5.014 -34.668  1.00  0.00     0.050 A 
HETATM   32  C   UNL     1      -4.300  -3.997 -33.988  1.00  0.00     0.020 A 
ENDBRANCH  13  28
TORSDOF 5
ENDMDL
MODEL 4
REMARK VINA RESULT:      -7.5      4.664      6.387
REMARK  5 active torsions:
REMARK  status: ('A' for Active; 'I' for Inactive)
REMARK    1  A    between atoms: C_2  and  C_3 
REMARK    2  A    between atoms: C_3  and  C_4 
REMARK    3  A    between atoms: C_3  and  C_29 
REMARK       I    between atoms: C_4  and  N_5 
REMARK    4  A    between atoms: N_5  and  C_6 
REMARK    5  A    between atoms: C_18  and  C_19 
ROOT
HETATM    1  C   UNL     1      -4.533   1.811 -31.864  1.00  0.00     0.088 C 
HETATM    2  C   UNL     1      -5.391   0.917 -32.739  1.00  0.00     0.060 C 
HETATM    3  C   UNL     1      -6.900   1.234 -32.715  1.00  0.00     0.181 C 
HETATM    4  N   UNL     1      -7.426   1.789 -31.458  1.00  0.00    -0.334 N 
HETATM    5  C   UNL     1      -8.701   2.368 -31.398  1.00  0.00     0.256 C 
HETATM    6  O   UNL     1      -9.057   3.042 -30.428  1.00  0.00    -0.267 OA
HETATM    7  C   UNL     1      -9.667   2.250 -32.520  1.00  0.00     0.059 A 
HETATM    8  C   UNL     1      -9.839   1.114 -33.312  1.00  0.00     0.050 A 
HETATM    9  N   UNL     1      -9.005  -0.007 -33.312  1.00  0.00    -0.324 N 
HETATM   10  C   UNL     1      -7.666  -0.064 -33.062  1.00  0.00     0.245 C 
HETATM   11  O   UNL     1      -7.109  -1.146 -33.269  1.00  0.00    -0.271 OA
HETATM   12  C   UNL     1     -10.558   3.334 -32.670  1.00  0.00     0.031 A 
HETATM   13  C   UNL     1     -11.615   3.295 -33.587  1.00  0.00    -0.024 A 
HETATM   14  C   UNL     1     -11.807   2.133 -34.333  1.00  0.00     0.014 A 
HETATM   15  C   UNL     1     -10.936   1.051 -34.188  1.00  0.00     0.031 A 
HETATM   16  C   UNL     1      -6.515   2.306 -30.432  1.00  0.00     0.129 C 
HETATM   17  C   UNL     1      -5.099   1.771 -30.453  1.00  0.00     0.045 C 
HETATM   18  H   UNL     1      -9.347  -0.865 -33.730  1.00  0.00     0.169 HD
ENDROOT
BRANCH   1  19
HETATM   19  N   UNL     1      -4.417   3.163 -32.394  1.00  0.00    -0.356 N 
HETATM   20  C   UNL     1      -3.285   3.921 -32.171  1.00  0.00     0.222 C 
HETATM   21  O   UNL     1      -2.297   3.489 -31.587  1.00  0.00    -0.273 OA
HETATM   22  H   UNL     1      -5.252   3.640 -32.705  1.00  0.00     0.162 HD
BRANCH  20  23
HETATM   23  C   UNL     1      -3.336   5.357 -32.698  1.00  0.00     0.077 C 
BRANCH  23  24
HETATM   24  C   UNL     1      -4.352   5.505 -33.843  1.00  0.00     0.009 C 
HETATM   25  C   UNL     1      -3.744   5.225 -35.212  1.00  0.00     0.006 C 
ENDBRANCH  23  24
BRANCH  23  26
HETATM   26  C   UNL     1      -1.946   5.847 -33.143  1.00  0.00     0.009 C 
HETATM   27  C   UNL     1      -1.788   7.357 -33.016  1.00  0.00     0.006 C 
ENDBRANCH  23  26
ENDBRANCH  20  23
ENDBRANCH   1  19
BRANCH  13  28
HETATM   28  C   UNL     1     -12.501   4.446 -33.730  1.00  0.00    -0.019 A 
HETATM   29  C   UNL     1     -13.302   4.889 -32.693  1.00  0.00     0.061 A 
HETATM   30  S   UNL     1     -14.269   6.232 -33.131  1.00  0.00    -0.113 SA
HETATM   31  C   UNL     1     -13.640   6.235 -34.719  1.00  0.00     0.050 A 
HETATM   32  C   UNL     1     -12.711   5.236 -34.909  1.00  0.00     0.020 A 
ENDBRANCH  13  28
TORSDOF 5
ENDMDL
MODEL 5
REMARK VINA RESULT:      -7.2      4.114      7.485
REMARK  5 active torsions:
REMARK  status: ('A' for Active; 'I' for Inactive)
REMARK    1  A    between atoms: C_2  and  C_3 
REMARK    2  A    between atoms: C_3  and  C_4 
REMARK    3  A    between atoms: C_3  and  C_29 
REMARK       I    between atoms: C_4  and  N_5 
REMARK    4  A    between atoms: N_5  and  C_6 
REMARK    5  A    between atoms: C_18  and  C_19 
ROOT
HETATM    1  C   UNL     1      -3.780  -0.304 -32.129  1.00  0.00     0.088 C 
HETATM    2  C   UNL     1      -4.770  -0.089 -31.000  1.00  0.00     0.060 C 
HETATM    3  C   UNL     1      -5.839   0.991 -31.265  1.00  0.00     0.181 C 
HETATM    4  N   UNL     1      -5.432   2.106 -32.134  1.00  0.00    -0.334 N 
HETATM    5  C   UNL     1      -6.377   2.993 -32.667  1.00  0.00     0.256 C 
HETATM    6  O   UNL     1      -6.085   3.775 -33.576  1.00  0.00    -0.267 OA
HETATM    7  C   UNL     1      -7.790   2.996 -32.211  1.00  0.00     0.059 A 
HETATM    8  C   UNL     1      -8.206   2.797 -30.894  1.00  0.00     0.050 A 
HETATM    9  N   UNL     1      -7.391   2.368 -29.844  1.00  0.00    -0.324 N 
HETATM   10  C   UNL     1      -6.302   1.549 -29.899  1.00  0.00     0.245 C 
HETATM   11  O   UNL     1      -5.828   1.182 -28.820  1.00  0.00    -0.271 OA
HETATM   12  C   UNL     1      -8.741   3.378 -33.181  1.00  0.00     0.031 A 
HETATM   13  C   UNL     1     -10.088   3.569 -32.855  1.00  0.00    -0.024 A 
HETATM   14  C   UNL     1     -10.480   3.420 -31.525  1.00  0.00     0.014 A 
HETATM   15  C   UNL     1      -9.545   3.050 -30.554  1.00  0.00     0.031 A 
HETATM   16  C   UNL     1      -4.214   2.014 -32.945  1.00  0.00     0.129 C 
HETATM   17  C   UNL     1      -3.156   1.041 -32.470  1.00  0.00     0.045 C 
HETATM   18  H   UNL     1      -7.720   2.492 -28.893  1.00  0.00     0.169 HD
ENDROOT
BRANCH   1  19
HETATM   19  N   UNL     1      -4.383  -0.960 -33.282  1.00  0.00    -0.356 N 
HETATM   20  C   UNL     1      -4.284  -2.326 -33.456  1.00  0.00     0.222 C 
HETATM   21  O   UNL     1      -3.756  -3.067 -32.633  1.00  0.00    -0.273 OA
HETATM   22  H   UNL     1      -4.653  -0.399 -34.078  1.00  0.00     0.162 HD
BRANCH  20  23
HETATM   23  C   UNL     1      -4.875  -2.871 -34.757  1.00  0.00     0.077 C 
BRANCH  23  24
HETATM   24  C   UNL     1      -6.138  -2.098 -35.174  1.00  0.00     0.009 C 
HETATM   25  C   UNL     1      -7.109  -1.885 -34.020  1.00  0.00     0.006 C 
ENDBRANCH  23  24
BRANCH  23  26
HETATM   26  C   UNL     1      -5.175  -4.378 -34.656  1.00  0.00     0.009 C 
HETATM   27  C   UNL     1      -6.310  -4.813 -35.574  1.00  0.00     0.006 C 
ENDBRANCH  23  26
ENDBRANCH  20  23
ENDBRANCH   1  19
BRANCH  13  28
HETATM   28  C   UNL     1     -11.046   3.940 -33.892  1.00  0.00    -0.019 A 
HETATM   29  C   UNL     1     -11.709   5.154 -33.878  1.00  0.00     0.061 A 
HETATM   30  S   UNL     1     -12.800   5.327 -35.187  1.00  0.00    -0.113 SA
HETATM   31  C   UNL     1     -12.410   3.776 -35.787  1.00  0.00     0.050 A 
HETATM   32  C   UNL     1     -11.467   3.143 -35.007  1.00  0.00     0.020 A 
ENDBRANCH  13  28
TORSDOF 5
ENDMDL
MODEL 6
REMARK VINA RESULT:      -7.2     17.777     20.132
REMARK  5 active torsions:
REMARK  status: ('A' for Active; 'I' for Inactive)
REMARK    1  A    between atoms: C_2  and  C_3 
REMARK    2  A    between atoms: C_3  and  C_4 
REMARK    3  A    between atoms: C_3  and  C_29 
REMARK       I    between atoms: C_4  and  N_5 
REMARK    4  A    between atoms: N_5  and  C_6 
REMARK    5  A    between atoms: C_18  and  C_19 
ROOT
HETATM    1  C   UNL     1      -6.308 -13.130 -41.203  1.00  0.00     0.088 C 
HETATM    2  C   UNL     1      -5.019 -13.863 -41.526  1.00  0.00     0.060 C 
HETATM    3  C   UNL     1      -4.023 -13.980 -40.354  1.00  0.00     0.181 C 
HETATM    4  N   UNL     1      -4.042 -12.881 -39.375  1.00  0.00    -0.334 N 
HETATM    5  C   UNL     1      -3.393 -12.999 -38.139  1.00  0.00     0.256 C 
HETATM    6  O   UNL     1      -3.597 -12.196 -37.225  1.00  0.00    -0.267 OA
HETATM    7  C   UNL     1      -2.474 -14.128 -37.844  1.00  0.00     0.059 A 
HETATM    8  C   UNL     1      -1.586 -14.697 -38.757  1.00  0.00     0.050 A 
HETATM    9  N   UNL     1      -1.561 -14.439 -40.129  1.00  0.00    -0.324 N 
HETATM   10  C   UNL     1      -2.602 -14.112 -40.948  1.00  0.00     0.245 C 
HETATM   11  O   UNL     1      -2.366 -14.080 -42.159  1.00  0.00    -0.271 OA
HETATM   12  C   UNL     1      -2.420 -14.529 -36.491  1.00  0.00     0.031 A 
HETATM   13  C   UNL     1      -1.493 -15.476 -36.042  1.00  0.00    -0.024 A 
HETATM   14  C   UNL     1      -0.576 -15.996 -36.955  1.00  0.00     0.014 A 
HETATM   15  C   UNL     1      -0.616 -15.601 -38.294  1.00  0.00     0.031 A 
HETATM   16  C   UNL     1      -5.154 -11.925 -39.348  1.00  0.00     0.129 C 
HETATM   17  C   UNL     1      -5.944 -11.769 -40.630  1.00  0.00     0.045 C 
HETATM   18  H   UNL     1      -0.737 -14.704 -40.657  1.00  0.00     0.169 HD
ENDROOT
BRANCH   1  19
HETATM   19  N   UNL     1      -7.183 -13.901 -40.330  1.00  0.00    -0.356 N 
HETATM   20  C   UNL     1      -8.457 -13.461 -40.030  1.00  0.00     0.222 C 
HETATM   21  O   UNL     1      -8.949 -12.452 -40.525  1.00  0.00    -0.273 OA
HETATM   22  H   UNL     1      -6.780 -14.620 -39.745  1.00  0.00     0.162 HD
BRANCH  20  23
HETATM   23  C   UNL     1      -9.231 -14.314 -39.024  1.00  0.00     0.077 C 
BRANCH  23  24
HETATM   24  C   UNL     1      -8.366 -14.681 -37.806  1.00  0.00     0.009 C 
HETATM   25  C   UNL     1      -7.818 -13.459 -37.081  1.00  0.00     0.006 C 
ENDBRANCH  23  24
BRANCH  23  26
HETATM   26  C   UNL     1      -9.806 -15.584 -39.679  1.00  0.00     0.009 C 
HETATM   27  C   UNL     1      -9.463 -16.850 -38.905  1.00  0.00     0.006 C 
ENDBRANCH  23  26
ENDBRANCH  20  23
ENDBRANCH   1  19
BRANCH  13  28
HETATM   28  C   UNL     1      -1.484 -15.882 -34.640  1.00  0.00    -0.019 A 
HETATM   29  C   UNL     1      -2.641 -16.241 -33.972  1.00  0.00     0.061 A 
HETATM   30  S   UNL     1      -2.361 -16.642 -32.332  1.00  0.00    -0.113 SA
HETATM   31  C   UNL     1      -0.689 -16.331 -32.485  1.00  0.00     0.050 A 
HETATM   32  C   UNL     1      -0.353 -15.933 -33.761  1.00  0.00     0.020 A 
ENDBRANCH  13  28
TORSDOF 5
ENDMDL
MODEL 7
REMARK VINA RESULT:      -7.1      5.973      9.724
REMARK  5 active torsions:
REMARK  status: ('A' for Active; 'I' for Inactive)
REMARK    1  A    between atoms: C_2  and  C_3 
REMARK    2  A    between atoms: C_3  and  C_4 
REMARK    3  A    between atoms: C_3  and  C_29 
REMARK       I    between atoms: C_4  and  N_5 
REMARK    4  A    between atoms: N_5  and  C_6 
REMARK    5  A    between atoms: C_18  and  C_19 
ROOT
HETATM    1  C   UNL     1     -12.298   1.068 -33.959  1.00  0.00     0.088 C 
HETATM    2  C   UNL     1     -11.074   0.388 -33.372  1.00  0.00     0.060 C 
HETATM    3  C   UNL     1      -9.957   1.344 -32.909  1.00  0.00     0.181 C 
HETATM    4  N   UNL     1      -9.834   2.608 -33.653  1.00  0.00    -0.334 N 
HETATM    5  C   UNL     1      -9.053   3.664 -33.165  1.00  0.00     0.256 C 
HETATM    6  O   UNL     1      -9.131   4.797 -33.646  1.00  0.00    -0.267 OA
HETATM    7  C   UNL     1      -8.139   3.491 -32.008  1.00  0.00     0.059 A 
HETATM    8  C   UNL     1      -7.376   2.350 -31.755  1.00  0.00     0.050 A 
HETATM    9  N   UNL     1      -7.498   1.130 -32.424  1.00  0.00    -0.324 N 
HETATM   10  C   UNL     1      -8.615   0.578 -32.978  1.00  0.00     0.245 C 
HETATM   11  O   UNL     1      -8.517  -0.584 -33.384  1.00  0.00    -0.271 OA
HETATM   12  C   UNL     1      -7.943   4.639 -31.211  1.00  0.00     0.031 A 
HETATM   13  C   UNL     1      -6.998   4.665 -30.179  1.00  0.00    -0.024 A 
HETATM   14  C   UNL     1      -6.204   3.537 -29.973  1.00  0.00     0.014 A 
HETATM   15  C   UNL     1      -6.384   2.398 -30.761  1.00  0.00     0.031 A 
HETATM   16  C   UNL     1     -10.909   3.056 -34.544  1.00  0.00     0.129 C 
HETATM   17  C   UNL     1     -11.835   1.984 -35.080  1.00  0.00     0.045 C 
HETATM   18  H   UNL     1      -6.746   0.455 -32.341  1.00  0.00     0.169 HD
ENDROOT
BRANCH   1  19
HETATM   19  N   UNL     1     -13.090   1.757 -32.949  1.00  0.00    -0.356 N 
HETATM   20  C   UNL     1     -14.470   1.740 -32.992  1.00  0.00     0.222 C 
HETATM   21  O   UNL     1     -15.104   1.097 -33.823  1.00  0.00    -0.273 OA
HETATM   22  H   UNL     1     -12.643   2.452 -32.368  1.00  0.00     0.162 HD
BRANCH  20  23
HETATM   23  C   UNL     1     -15.175   2.585 -31.930  1.00  0.00     0.077 C 
BRANCH  23  24
HETATM   24  C   UNL     1     -16.705   2.533 -32.089  1.00  0.00     0.009 C 
HETATM   25  C   UNL     1     -17.361   3.900 -31.943  1.00  0.00     0.006 C 
ENDBRANCH  23  24
BRANCH  23  26
HETATM   26  C   UNL     1     -14.682   4.044 -31.946  1.00  0.00     0.009 C 
HETATM   27  C   UNL     1     -13.794   4.376 -30.753  1.00  0.00     0.006 C 
ENDBRANCH  23  26
ENDBRANCH  20  23
ENDBRANCH   1  19
BRANCH  13  28
HETATM   28  C   UNL     1      -6.842   5.864 -29.361  1.00  0.00    -0.019 A 
HETATM   29  C   UNL     1      -7.565   7.018 -29.604  1.00  0.00     0.061 A 
HETATM   30  S   UNL     1      -7.171   8.286 -28.524  1.00  0.00    -0.113 SA
HETATM   31  C   UNL     1      -6.018   7.315 -27.721  1.00  0.00     0.050 A 
HETATM   32  C   UNL     1      -5.938   6.052 -28.264  1.00  0.00     0.020 A 
ENDBRANCH  13  28
TORSDOF 5
ENDMDL
MODEL 8
REMARK VINA RESULT:      -7.1      4.334      8.700
REMARK  5 active torsions:
REMARK  status: ('A' for Active; 'I' for Inactive)
REMARK    1  A    between atoms: C_2  and  C_3 
REMARK    2  A    between atoms: C_3  and  C_4 
REMARK    3  A    between atoms: C_3  and  C_29 
REMARK       I    between atoms: C_4  and  N_5 
REMARK    4  A    between atoms: N_5  and  C_6 
REMARK    5  A    between atoms: C_18  and  C_19 
ROOT
HETATM    1  C   UNL     1      -7.824   0.055 -32.907  1.00  0.00     0.088 C 
HETATM    2  C   UNL     1      -7.458   0.416 -31.479  1.00  0.00     0.060 C 
HETATM    3  C   UNL     1      -6.821   1.809 -31.301  1.00  0.00     0.181 C 
HETATM    4  N   UNL     1      -6.024   2.308 -32.432  1.00  0.00    -0.334 N 
HETATM    5  C   UNL     1      -5.629   3.650 -32.506  1.00  0.00     0.256 C 
HETATM    6  O   UNL     1      -5.174   4.131 -33.547  1.00  0.00    -0.267 OA
HETATM    7  C   UNL     1      -5.791   4.576 -31.357  1.00  0.00     0.059 A 
HETATM    8  C   UNL     1      -5.601   4.232 -30.018  1.00  0.00     0.050 A 
HETATM    9  N   UNL     1      -5.430   2.934 -29.533  1.00  0.00    -0.324 N 
HETATM   10  C   UNL     1      -5.939   1.771 -30.031  1.00  0.00     0.245 C 
HETATM   11  O   UNL     1      -5.779   0.757 -29.346  1.00  0.00    -0.271 OA
HETATM   12  C   UNL     1      -6.010   5.929 -31.694  1.00  0.00     0.031 A 
HETATM   13  C   UNL     1      -6.033   6.935 -30.722  1.00  0.00    -0.024 A 
HETATM   14  C   UNL     1      -5.787   6.584 -29.394  1.00  0.00     0.014 A 
HETATM   15  C   UNL     1      -5.562   5.249 -29.050  1.00  0.00     0.031 A 
HETATM   16  C   UNL     1      -6.113   1.665 -33.748  1.00  0.00     0.129 C 
HETATM   17  C   UNL     1      -6.582   0.226 -33.768  1.00  0.00     0.045 C 
HETATM   18  H   UNL     1      -5.057   2.811 -28.598  1.00  0.00     0.169 HD
ENDROOT
BRANCH   1  19
HETATM   19  N   UNL     1      -8.967   0.813 -33.398  1.00  0.00    -0.356 N 
HETATM   20  C   UNL     1     -10.255   0.347 -33.233  1.00  0.00     0.222 C 
HETATM   21  O   UNL     1     -10.520  -0.678 -32.612  1.00  0.00    -0.273 OA
HETATM   22  H   UNL     1      -8.811   1.547 -34.076  1.00  0.00     0.162 HD
BRANCH  20  23
HETATM   23  C   UNL     1     -11.353   1.191 -33.883  1.00  0.00     0.077 C 
BRANCH  23  24
HETATM   24  C   UNL     1     -11.336   2.640 -33.364  1.00  0.00     0.009 C 
HETATM   25  C   UNL     1     -10.978   3.651 -34.446  1.00  0.00     0.006 C 
ENDBRANCH  23  24
BRANCH  23  26
HETATM   26  C   UNL     1     -12.744   0.564 -33.684  1.00  0.00     0.009 C 
HETATM   27  C   UNL     1     -13.821   1.249 -34.516  1.00  0.00     0.006 C 
ENDBRANCH  23  26
ENDBRANCH  20  23
ENDBRANCH   1  19
BRANCH  13  28
HETATM   28  C   UNL     1      -6.286   8.320 -31.107  1.00  0.00    -0.019 A 
HETATM   29  C   UNL     1      -5.413   9.343 -30.785  1.00  0.00     0.061 A 
HETATM   30  S   UNL     1      -5.958  10.873 -31.324  1.00  0.00    -0.113 SA
HETATM   31  C   UNL     1      -7.377  10.193 -31.988  1.00  0.00     0.050 A 
HETATM   32  C   UNL     1      -7.431   8.829 -31.804  1.00  0.00     0.020 A 
ENDBRANCH  13  28
TORSDOF 5
ENDMDL
MODEL 9
REMARK VINA RESULT:      -7.1     17.994     19.868
REMARK  5 active torsions:
REMARK  status: ('A' for Active; 'I' for Inactive)
REMARK    1  A    between atoms: C_2  and  C_3 
REMARK    2  A    between atoms: C_3  and  C_4 
REMARK    3  A    between atoms: C_3  and  C_29 
REMARK       I    between atoms: C_4  and  N_5 
REMARK    4  A    between atoms: N_5  and  C_6 
REMARK    5  A    between atoms: C_18  and  C_19 
ROOT
HETATM    1  C   UNL     1      -1.901 -15.541 -35.310  1.00  0.00     0.088 C 
HETATM    2  C   UNL     1      -1.772 -14.279 -36.144  1.00  0.00     0.060 C 
HETATM    3  C   UNL     1      -2.818 -14.130 -37.268  1.00  0.00     0.181 C 
HETATM    4  N   UNL     1      -3.312 -15.381 -37.864  1.00  0.00    -0.334 N 
HETATM    5  C   UNL     1      -4.446 -15.394 -38.688  1.00  0.00     0.256 C 
HETATM    6  O   UNL     1      -5.006 -16.449 -38.995  1.00  0.00    -0.267 OA
HETATM    7  C   UNL     1      -5.066 -14.139 -39.183  1.00  0.00     0.059 A 
HETATM    8  C   UNL     1      -4.363 -13.001 -39.579  1.00  0.00     0.050 A 
HETATM    9  N   UNL     1      -2.996 -12.786 -39.386  1.00  0.00    -0.324 N 
HETATM   10  C   UNL     1      -2.203 -13.243 -38.376  1.00  0.00     0.245 C 
HETATM   11  O   UNL     1      -1.053 -12.798 -38.329  1.00  0.00    -0.271 OA
HETATM   12  C   UNL     1      -6.461 -14.193 -39.393  1.00  0.00     0.031 A 
HETATM   13  C   UNL     1      -7.155 -13.138 -39.995  1.00  0.00    -0.024 A 
HETATM   14  C   UNL     1      -6.432 -12.029 -40.435  1.00  0.00     0.014 A 
HETATM   15  C   UNL     1      -5.050 -11.969 -40.240  1.00  0.00     0.031 A 
HETATM   16  C   UNL     1      -3.070 -16.668 -37.204  1.00  0.00     0.129 C 
HETATM   17  C   UNL     1      -1.892 -16.732 -36.256  1.00  0.00     0.045 C 
HETATM   18  H   UNL     1      -2.541 -12.054 -39.920  1.00  0.00     0.169 HD
ENDROOT
BRANCH   1  19
HETATM   19  N   UNL     1      -3.067 -15.514 -34.437  1.00  0.00    -0.356 N 
HETATM   20  C   UNL     1      -3.073 -16.195 -33.237  1.00  0.00     0.222 C 
HETATM   21  O   UNL     1      -2.094 -16.794 -32.804  1.00  0.00    -0.273 OA
HETATM   22  H   UNL     1      -3.954 -15.213 -34.816  1.00  0.00     0.162 HD
BRANCH  20  23
HETATM   23  C   UNL     1      -4.394 -16.166 -32.466  1.00  0.00     0.077 C 
BRANCH  23  24
HETATM   24  C   UNL     1      -5.424 -15.243 -33.141  1.00  0.00     0.009 C 
HETATM   25  C   UNL     1      -5.644 -13.944 -32.377  1.00  0.00     0.006 C 
ENDBRANCH  23  24
BRANCH  23  26
HETATM   26  C   UNL     1      -4.186 -15.756 -30.997  1.00  0.00     0.009 C 
HETATM   27  C   UNL     1      -4.707 -16.799 -30.017  1.00  0.00     0.006 C 
ENDBRANCH  23  26
ENDBRANCH  20  23
ENDBRANCH   1  19
BRANCH  13  28
HETATM   28  C   UNL     1      -8.602 -13.221 -40.172  1.00  0.00    -0.019 A 
HETATM   29  C   UNL     1      -9.224 -14.383 -40.591  1.00  0.00     0.061 A 
HETATM   30  S   UNL     1     -10.919 -14.206 -40.751  1.00  0.00    -0.113 SA
HETATM   31  C   UNL     1     -10.846 -12.567 -40.274  1.00  0.00     0.050 A 
HETATM   32  C   UNL     1      -9.557 -12.167 -39.997  1.00  0.00     0.020 A 
ENDBRANCH  13  28
TORSDOF 5
ENDMDL
MODEL 10
REMARK VINA RESULT:      -7.0     17.725     19.655
REMARK  5 active torsions:
REMARK  status: ('A' for Active; 'I' for Inactive)
REMARK    1  A    between atoms: C_2  and  C_3 
REMARK    2  A    between atoms: C_3  and  C_4 
REMARK    3  A    between atoms: C_3  and  C_29 
REMARK       I    between atoms: C_4  and  N_5 
REMARK    4  A    between atoms: N_5  and  C_6 
REMARK    5  A    between atoms: C_18  and  C_19 
ROOT
HETATM    1  C   UNL     1      -4.901 -14.009 -40.705  1.00  0.00     0.088 C 
HETATM    2  C   UNL     1      -5.666 -13.062 -39.798  1.00  0.00     0.060 C 
HETATM    3  C   UNL     1      -5.940 -13.598 -38.378  1.00  0.00     0.181 C 
HETATM    4  N   UNL     1      -6.100 -15.055 -38.254  1.00  0.00    -0.334 N 
HETATM    5  C   UNL     1      -6.078 -15.683 -37.002  1.00  0.00     0.256 C 
HETATM    6  O   UNL     1      -5.972 -16.908 -36.898  1.00  0.00    -0.267 OA
HETATM    7  C   UNL     1      -6.122 -14.906 -35.737  1.00  0.00     0.059 A 
HETATM    8  C   UNL     1      -6.879 -13.752 -35.532  1.00  0.00     0.050 A 
HETATM    9  N   UNL     1      -7.548 -13.036 -36.528  1.00  0.00    -0.324 N 
HETATM   10  C   UNL     1      -7.208 -12.895 -37.841  1.00  0.00     0.245 C 
HETATM   11  O   UNL     1      -7.868 -12.087 -38.501  1.00  0.00    -0.271 OA
HETATM   12  C   UNL     1      -5.453 -15.492 -34.641  1.00  0.00     0.031 A 
HETATM   13  C   UNL     1      -5.534 -14.949 -33.354  1.00  0.00    -0.024 A 
HETATM   14  C   UNL     1      -6.338 -13.827 -33.154  1.00  0.00     0.014 A 
HETATM   15  C   UNL     1      -7.011 -13.243 -34.230  1.00  0.00     0.031 A 
HETATM   16  C   UNL     1      -5.697 -15.945 -39.347  1.00  0.00     0.129 C 
HETATM   17  C   UNL     1      -5.644 -15.336 -40.732  1.00  0.00     0.045 C 
HETATM   18  H   UNL     1      -8.260 -12.370 -36.250  1.00  0.00     0.169 HD
ENDROOT
BRANCH   1  19
HETATM   19  N   UNL     1      -3.504 -14.146 -40.317  1.00  0.00    -0.356 N 
HETATM   20  C   UNL     1      -2.514 -14.305 -41.265  1.00  0.00     0.222 C 
HETATM   21  O   UNL     1      -2.733 -14.270 -42.472  1.00  0.00    -0.273 OA
HETATM   22  H   UNL     1      -3.284 -14.377 -39.358  1.00  0.00     0.162 HD
BRANCH  20  23
HETATM   23  C   UNL     1      -1.104 -14.537 -40.717  1.00  0.00     0.077 C 
BRANCH  23  24
HETATM   24  C   UNL     1      -0.914 -15.985 -40.235  1.00  0.00     0.009 C 
HETATM   25  C   UNL     1      -1.115 -17.009 -41.345  1.00  0.00     0.006 C 
ENDBRANCH  23  24
BRANCH  23  26
HETATM   26  C   UNL     1      -0.762 -13.545 -39.590  1.00  0.00     0.009 C 
HETATM   27  C   UNL     1      -0.099 -14.218 -38.396  1.00  0.00     0.006 C 
ENDBRANCH  23  26
ENDBRANCH  20  23
ENDBRANCH   1  19
BRANCH  13  28
HETATM   28  C   UNL     1      -4.807 -15.570 -32.251  1.00  0.00    -0.019 A 
HETATM   29  C   UNL     1      -3.574 -16.171 -32.430  1.00  0.00     0.061 A 
HETATM   30  S   UNL     1      -2.953 -16.850 -30.987  1.00  0.00    -0.113 SA
HETATM   31  C   UNL     1      -4.330 -16.363 -30.102  1.00  0.00     0.050 A 
HETATM   32  C   UNL     1      -5.241 -15.694 -30.890  1.00  0.00     0.020 A 
ENDBRANCH  13  28
TORSDOF 5
ENDMDL
