MODEL 1
REMARK VINA RESULT:      -9.3      0.000      0.000
REMARK  2 active torsions:
REMARK  status: ('A' for Active; 'I' for Inactive)
REMARK       I    between atoms: N_8  and  C_9 
REMARK    1  A    between atoms: C_9  and  C_10 
REMARK    2  A    between atoms: N_12  and  C_13 
ROOT
HETATM    1  C   UNL     1     -10.266  -0.398 -32.711  1.00  0.00     0.021 C 
HETATM    2  C   UNL     1      -9.794   0.748 -33.603  1.00  0.00     0.087 C 
HETATM    3  C   UNL     1     -10.981   1.546 -34.128  1.00  0.00     0.207 C 
HETATM    4  O   UNL     1     -12.127   1.427 -33.711  1.00  0.00    -0.279 OA
HETATM    5  N   UNL     1     -10.610   2.483 -35.086  1.00  0.00    -0.227 NA
HETATM    6  C   UNL     1     -10.220   3.739 -34.541  1.00  0.00     0.042 A 
HETATM    7  C   UNL     1      -8.944   3.879 -33.958  1.00  0.00     0.059 A 
HETATM    8  N   UNL     1      -8.173   2.704 -33.650  1.00  0.00    -0.309 N 
HETATM    9  C   UNL     1      -6.777   2.682 -33.872  1.00  0.00     0.298 C 
HETATM   10  O   UNL     1      -6.168   3.654 -34.325  1.00  0.00    -0.264 OA
HETATM   11  C   UNL     1      -8.893   1.707 -32.814  1.00  0.00     0.145 C 
HETATM   12  C   UNL     1     -11.057   4.837 -34.733  1.00  0.00     0.026 A 
HETATM   13  C   UNL     1     -10.614   6.104 -34.357  1.00  0.00     0.002 A 
HETATM   14  C   UNL     1      -9.340   6.266 -33.812  1.00  0.00     0.002 A 
HETATM   15  C   UNL     1      -8.505   5.160 -33.615  1.00  0.00     0.031 A 
HETATM   16  H   UNL     1      -9.794   2.115 -35.571  1.00  0.00     0.136 HD
ENDROOT
BRANCH   9  17
HETATM   17  C   UNL     1      -6.052   1.408 -33.613  1.00  0.00     0.239 A 
HETATM   18  N   UNL     1      -6.384   0.254 -34.218  1.00  0.00    -0.140 NA
HETATM   19  N   UNL     1      -5.534  -0.644 -33.673  1.00  0.00    -0.225 N 
HETATM   20  C   UNL     1      -4.731  -0.009 -32.762  1.00  0.00     0.237 A 
HETATM   21  N   UNL     1      -5.029   1.269 -32.693  1.00  0.00    -0.216 NA
BRANCH  19  22
HETATM   22  C   UNL     1      -5.543  -2.011 -34.057  1.00  0.00     0.059 A 
HETATM   23  C   UNL     1      -4.373  -2.773 -33.912  1.00  0.00     0.031 A 
HETATM   24  C   UNL     1      -4.360  -4.119 -34.281  1.00  0.00     0.002 A 
HETATM   25  C   UNL     1      -5.512  -4.713 -34.791  1.00  0.00     0.000 A 
HETATM   26  C   UNL     1      -6.678  -3.963 -34.936  1.00  0.00     0.002 A 
HETATM   27  C   UNL     1      -6.699  -2.613 -34.572  1.00  0.00     0.031 A 
ENDBRANCH  19  22
ENDBRANCH   9  17
TORSDOF 2
ENDMDL
MODEL 2
REMARK VINA RESULT:      -9.1      4.278      6.269
REMARK  2 active torsions:
REMARK  status: ('A' for Active; 'I' for Inactive)
REMARK       I    between atoms: N_8  and  C_9 
REMARK    1  A    between atoms: C_9  and  C_10 
REMARK    2  A    between atoms: N_12  and  C_13 
ROOT
HETATM    1  C   UNL     1      -1.801   5.011 -34.956  1.00  0.00     0.021 C 
HETATM    2  C   UNL     1      -2.180   5.386 -33.525  1.00  0.00     0.087 C 
HETATM    3  C   UNL     1      -1.821   6.839 -33.235  1.00  0.00     0.207 C 
HETATM    4  O   UNL     1      -1.490   7.648 -34.094  1.00  0.00    -0.279 OA
HETATM    5  N   UNL     1      -1.981   7.169 -31.895  1.00  0.00    -0.227 NA
HETATM    6  C   UNL     1      -3.295   7.603 -31.562  1.00  0.00     0.042 A 
HETATM    7  C   UNL     1      -4.326   6.652 -31.417  1.00  0.00     0.059 A 
HETATM    8  N   UNL     1      -4.123   5.308 -31.889  1.00  0.00    -0.309 N 
HETATM    9  C   UNL     1      -4.600   4.206 -31.144  1.00  0.00     0.298 C 
HETATM   10  O   UNL     1      -5.206   4.344 -30.080  1.00  0.00    -0.264 OA
HETATM   11  C   UNL     1      -3.691   5.223 -33.309  1.00  0.00     0.145 C 
HETATM   12  C   UNL     1      -3.493   8.945 -31.244  1.00  0.00     0.026 A 
HETATM   13  C   UNL     1      -4.732   9.353 -30.753  1.00  0.00     0.002 A 
HETATM   14  C   UNL     1      -5.753   8.419 -30.569  1.00  0.00     0.002 A 
HETATM   15  C   UNL     1      -5.552   7.073 -30.895  1.00  0.00     0.031 A 
HETATM   16  H   UNL     1      -1.812   6.325 -31.351  1.00  0.00     0.136 HD
ENDROOT
BRANCH   9  17
HETATM   17  C   UNL     1      -4.282   2.840 -31.644  1.00  0.00     0.239 A 
HETATM   18  N   UNL     1      -5.139   2.131 -32.399  1.00  0.00    -0.140 NA
HETATM   19  N   UNL     1      -4.499   0.955 -32.586  1.00  0.00    -0.225 N 
HETATM   20  C   UNL     1      -3.291   0.993 -31.938  1.00  0.00     0.237 A 
HETATM   21  N   UNL     1      -3.125   2.149 -31.336  1.00  0.00    -0.216 NA
BRANCH  19  22
HETATM   22  C   UNL     1      -5.067  -0.093 -33.356  1.00  0.00     0.059 A 
HETATM   23  C   UNL     1      -4.369  -1.303 -33.490  1.00  0.00     0.031 A 
HETATM   24  C   UNL     1      -4.911  -2.348 -34.241  1.00  0.00     0.002 A 
HETATM   25  C   UNL     1      -6.150  -2.193 -34.859  1.00  0.00     0.000 A 
HETATM   26  C   UNL     1      -6.849  -0.994 -34.729  1.00  0.00     0.002 A 
HETATM   27  C   UNL     1      -6.313   0.058 -33.980  1.00  0.00     0.031 A 
ENDBRANCH  19  22
ENDBRANCH   9  17
TORSDOF 2
ENDMDL
MODEL 3
REMARK VINA RESULT:      -9.0      1.477      2.256
REMARK  2 active torsions:
REMARK  status: ('A' for Active; 'I' for Inactive)
REMARK       I    between atoms: N_8  and  C_9 
REMARK    1  A    between atoms: C_9  and  C_10 
REMARK    2  A    between atoms: N_12  and  C_13 
ROOT
HETATM    1  C   UNL     1     -11.939   0.106 -33.458  1.00  0.00     0.021 C 
HETATM    2  C   UNL     1     -11.402   1.286 -34.267  1.00  0.00     0.087 C 
HETATM    3  C   UNL     1     -12.502   1.889 -35.133  1.00  0.00     0.207 C 
HETATM    4  O   UNL     1     -13.691   1.615 -35.023  1.00  0.00    -0.279 OA
HETATM    5  N   UNL     1     -12.017   2.845 -36.018  1.00  0.00    -0.227 NA
HETATM    6  C   UNL     1     -11.959   4.158 -35.471  1.00  0.00     0.042 A 
HETATM    7  C   UNL     1     -10.916   4.497 -34.585  1.00  0.00     0.059 A 
HETATM    8  N   UNL     1     -10.105   3.455 -34.012  1.00  0.00    -0.309 N 
HETATM    9  C   UNL     1      -8.711   3.632 -33.860  1.00  0.00     0.298 C 
HETATM   10  O   UNL     1      -8.139   4.670 -34.199  1.00  0.00    -0.264 OA
HETATM   11  C   UNL     1     -10.882   2.386 -33.332  1.00  0.00     0.145 C 
HETATM   12  C   UNL     1     -12.852   5.117 -35.944  1.00  0.00     0.026 A 
HETATM   13  C   UNL     1     -12.701   6.444 -35.546  1.00  0.00     0.002 A 
HETATM   14  C   UNL     1     -11.652   6.804 -34.698  1.00  0.00     0.002 A 
HETATM   15  C   UNL     1     -10.760   5.837 -34.220  1.00  0.00     0.031 A 
HETATM   16  H   UNL     1     -11.060   2.588 -36.249  1.00  0.00     0.136 HD
ENDROOT
BRANCH   9  17
HETATM   17  C   UNL     1      -7.918   2.484 -33.341  1.00  0.00     0.239 A 
HETATM   18  N   UNL     1      -7.554   1.449 -34.118  1.00  0.00    -0.140 NA
HETATM   19  N   UNL     1      -6.912   0.622 -33.263  1.00  0.00    -0.225 N 
HETATM   20  C   UNL     1      -6.917   1.178 -32.010  1.00  0.00     0.237 A 
HETATM   21  N   UNL     1      -7.540   2.335 -32.019  1.00  0.00    -0.216 NA
BRANCH  19  22
HETATM   22  C   UNL     1      -6.347  -0.607 -33.693  1.00  0.00     0.059 A 
HETATM   23  C   UNL     1      -7.187  -1.606 -34.210  1.00  0.00     0.031 A 
HETATM   24  C   UNL     1      -6.653  -2.822 -34.640  1.00  0.00     0.002 A 
HETATM   25  C   UNL     1      -5.280  -3.047 -34.560  1.00  0.00     0.000 A 
HETATM   26  C   UNL     1      -4.440  -2.059 -34.049  1.00  0.00     0.002 A 
HETATM   27  C   UNL     1      -4.967  -0.839 -33.614  1.00  0.00     0.031 A 
ENDBRANCH  19  22
ENDBRANCH   9  17
TORSDOF 2
ENDMDL
MODEL 4
REMARK VINA RESULT:      -9.0      2.553      7.322
REMARK  2 active torsions:
REMARK  status: ('A' for Active; 'I' for Inactive)
REMARK       I    between atoms: N_8  and  C_9 
REMARK    1  A    between atoms: C_9  and  C_10 
REMARK    2  A    between atoms: N_12  and  C_13 
ROOT
HETATM    1  C   UNL     1      -7.820   3.174 -30.151  1.00  0.00     0.021 C 
HETATM    2  C   UNL     1      -7.168   2.646 -31.427  1.00  0.00     0.087 C 
HETATM    3  C   UNL     1      -5.670   2.452 -31.225  1.00  0.00     0.207 C 
HETATM    4  O   UNL     1      -5.112   2.493 -30.135  1.00  0.00    -0.279 OA
HETATM    5  N   UNL     1      -5.009   2.147 -32.410  1.00  0.00    -0.227 NA
HETATM    6  C   UNL     1      -4.980   0.757 -32.711  1.00  0.00     0.042 A 
HETATM    7  C   UNL     1      -6.132   0.132 -33.232  1.00  0.00     0.059 A 
HETATM    8  N   UNL     1      -7.396   0.817 -33.176  1.00  0.00    -0.309 N 
HETATM    9  C   UNL     1      -8.299   0.748 -34.261  1.00  0.00     0.298 C 
HETATM   10  O   UNL     1      -8.051   0.104 -35.283  1.00  0.00    -0.264 OA
HETATM   11  C   UNL     1      -7.771   1.290 -31.817  1.00  0.00     0.145 C 
HETATM   12  C   UNL     1      -3.764   0.081 -32.621  1.00  0.00     0.026 A 
HETATM   13  C   UNL     1      -3.681  -1.235 -33.072  1.00  0.00     0.002 A 
HETATM   14  C   UNL     1      -4.802  -1.857 -33.624  1.00  0.00     0.002 A 
HETATM   15  C   UNL     1      -6.023  -1.177 -33.708  1.00  0.00     0.031 A 
HETATM   16  H   UNL     1      -5.522   2.593 -33.168  1.00  0.00     0.136 HD
ENDROOT
BRANCH   9  17
HETATM   17  C   UNL     1      -9.550   1.549 -34.175  1.00  0.00     0.239 A 
HETATM   18  N   UNL     1     -10.736   1.001 -33.858  1.00  0.00    -0.140 NA
HETATM   19  N   UNL     1     -11.598   2.039 -33.944  1.00  0.00    -0.225 N 
HETATM   20  C   UNL     1     -10.909   3.165 -34.313  1.00  0.00     0.237 A 
HETATM   21  N   UNL     1      -9.633   2.897 -34.472  1.00  0.00    -0.216 NA
BRANCH  19  22
HETATM   22  C   UNL     1     -12.982   1.888 -33.667  1.00  0.00     0.059 A 
HETATM   23  C   UNL     1     -13.559   2.629 -32.624  1.00  0.00     0.031 A 
HETATM   24  C   UNL     1     -14.919   2.497 -32.336  1.00  0.00     0.002 A 
HETATM   25  C   UNL     1     -15.710   1.630 -33.087  1.00  0.00     0.000 A 
HETATM   26  C   UNL     1     -15.143   0.892 -34.125  1.00  0.00     0.002 A 
HETATM   27  C   UNL     1     -13.782   1.016 -34.419  1.00  0.00     0.031 A 
ENDBRANCH  19  22
ENDBRANCH   9  17
TORSDOF 2
ENDMDL
MODEL 5
REMARK VINA RESULT:      -8.9      2.557      7.591
REMARK  2 active torsions:
REMARK  status: ('A' for Active; 'I' for Inactive)
REMARK       I    between atoms: N_8  and  C_9 
REMARK    1  A    between atoms: C_9  and  C_10 
REMARK    2  A    between atoms: N_12  and  C_13 
ROOT
HETATM    1  C   UNL     1      -6.810   1.699 -30.092  1.00  0.00     0.021 C 
HETATM    2  C   UNL     1      -6.443   1.291 -31.517  1.00  0.00     0.087 C 
HETATM    3  C   UNL     1      -5.054   0.662 -31.556  1.00  0.00     0.207 C 
HETATM    4  O   UNL     1      -4.424   0.326 -30.559  1.00  0.00    -0.279 OA
HETATM    5  N   UNL     1      -4.606   0.443 -32.853  1.00  0.00    -0.227 NA
HETATM    6  C   UNL     1      -5.006  -0.811 -33.394  1.00  0.00     0.042 A 
HETATM    7  C   UNL     1      -6.327  -0.981 -33.857  1.00  0.00     0.059 A 
HETATM    8  N   UNL     1      -7.329  -0.008 -33.512  1.00  0.00    -0.309 N 
HETATM    9  C   UNL     1      -8.296   0.394 -34.462  1.00  0.00     0.298 C 
HETATM   10  O   UNL     1      -8.328  -0.068 -35.605  1.00  0.00    -0.264 OA
HETATM   11  C   UNL     1      -7.442   0.258 -32.054  1.00  0.00     0.145 C 
HETATM   12  C   UNL     1      -4.036  -1.793 -33.588  1.00  0.00     0.026 A 
HETATM   13  C   UNL     1      -4.374  -2.960 -34.271  1.00  0.00     0.002 A 
HETATM   14  C   UNL     1      -5.668  -3.129 -34.768  1.00  0.00     0.002 A 
HETATM   15  C   UNL     1      -6.641  -2.144 -34.565  1.00  0.00     0.031 A 
HETATM   16  H   UNL     1      -5.026   1.157 -33.445  1.00  0.00     0.136 HD
ENDROOT
BRANCH   9  17
HETATM   17  C   UNL     1      -9.250   1.467 -34.070  1.00  0.00     0.239 A 
HETATM   18  N   UNL     1     -10.498   1.202 -33.645  1.00  0.00    -0.140 NA
HETATM   19  N   UNL     1     -11.033   2.427 -33.450  1.00  0.00    -0.225 N 
HETATM   20  C   UNL     1     -10.101   3.381 -33.768  1.00  0.00     0.237 A 
HETATM   21  N   UNL     1      -8.981   2.820 -34.163  1.00  0.00    -0.216 NA
BRANCH  19  22
HETATM   22  C   UNL     1     -12.362   2.598 -32.980  1.00  0.00     0.059 A 
HETATM   23  C   UNL     1     -13.354   1.688 -33.377  1.00  0.00     0.031 A 
HETATM   24  C   UNL     1     -14.666   1.837 -32.925  1.00  0.00     0.002 A 
HETATM   25  C   UNL     1     -14.996   2.888 -32.073  1.00  0.00     0.000 A 
HETATM   26  C   UNL     1     -14.015   3.795 -31.673  1.00  0.00     0.002 A 
HETATM   27  C   UNL     1     -12.699   3.656 -32.123  1.00  0.00     0.031 A 
ENDBRANCH  19  22
ENDBRANCH   9  17
TORSDOF 2
ENDMDL
MODEL 6
REMARK VINA RESULT:      -8.7      4.336      5.497
REMARK  2 active torsions:
REMARK  status: ('A' for Active; 'I' for Inactive)
REMARK       I    between atoms: N_8  and  C_9 
REMARK    1  A    between atoms: C_9  and  C_10 
REMARK    2  A    between atoms: N_12  and  C_13 
ROOT
HETATM    1  C   UNL     1      -2.450   4.109 -33.476  1.00  0.00     0.021 C 
HETATM    2  C   UNL     1      -3.076   4.014 -32.086  1.00  0.00     0.087 C 
HETATM    3  C   UNL     1      -3.266   5.403 -31.486  1.00  0.00     0.207 C 
HETATM    4  O   UNL     1      -3.147   6.446 -32.117  1.00  0.00    -0.279 OA
HETATM    5  N   UNL     1      -3.662   5.356 -30.154  1.00  0.00    -0.227 NA
HETATM    6  C   UNL     1      -5.072   5.269 -29.977  1.00  0.00     0.042 A 
HETATM    7  C   UNL     1      -5.725   4.036 -30.180  1.00  0.00     0.059 A 
HETATM    8  N   UNL     1      -5.028   2.966 -30.844  1.00  0.00    -0.309 N 
HETATM    9  C   UNL     1      -5.172   1.632 -30.400  1.00  0.00     0.298 C 
HETATM   10  O   UNL     1      -5.892   1.330 -29.446  1.00  0.00    -0.264 OA
HETATM   11  C   UNL     1      -4.453   3.342 -32.162  1.00  0.00     0.145 C 
HETATM   12  C   UNL     1      -5.748   6.374 -29.462  1.00  0.00     0.026 A 
HETATM   13  C   UNL     1      -7.094   6.252 -29.124  1.00  0.00     0.002 A 
HETATM   14  C   UNL     1      -7.747   5.028 -29.284  1.00  0.00     0.002 A 
HETATM   15  C   UNL     1      -7.067   3.923 -29.808  1.00  0.00     0.031 A 
HETATM   16  H   UNL     1      -3.271   4.508 -29.749  1.00  0.00     0.136 HD
ENDROOT
BRANCH   9  17
HETATM   17  C   UNL     1      -4.358   0.584 -31.074  1.00  0.00     0.239 A 
HETATM   18  N   UNL     1      -4.914  -0.454 -31.722  1.00  0.00    -0.140 NA
HETATM   19  N   UNL     1      -3.848  -1.179 -32.132  1.00  0.00    -0.225 N 
HETATM   20  C   UNL     1      -2.697  -0.561 -31.715  1.00  0.00     0.237 A 
HETATM   21  N   UNL     1      -2.976   0.536 -31.048  1.00  0.00    -0.216 NA
BRANCH  19  22
HETATM   22  C   UNL     1      -4.000  -2.376 -32.880  1.00  0.00     0.059 A 
HETATM   23  C   UNL     1      -4.843  -2.383 -34.002  1.00  0.00     0.031 A 
HETATM   24  C   UNL     1      -5.005  -3.549 -34.752  1.00  0.00     0.002 A 
HETATM   25  C   UNL     1      -4.326  -4.711 -34.391  1.00  0.00     0.000 A 
HETATM   26  C   UNL     1      -3.485  -4.710 -33.279  1.00  0.00     0.002 A 
HETATM   27  C   UNL     1      -3.319  -3.547 -32.520  1.00  0.00     0.031 A 
ENDBRANCH  19  22
ENDBRANCH   9  17
TORSDOF 2
ENDMDL
MODEL 7
REMARK VINA RESULT:      -8.7      3.363      6.637
REMARK  2 active torsions:
REMARK  status: ('A' for Active; 'I' for Inactive)
REMARK       I    between atoms: N_8  and  C_9 
REMARK    1  A    between atoms: C_9  and  C_10 
REMARK    2  A    between atoms: N_12  and  C_13 
ROOT
HETATM    1  C   UNL     1      -5.342   0.233 -31.206  1.00  0.00     0.021 C 
HETATM    2  C   UNL     1      -5.160   1.729 -31.454  1.00  0.00     0.087 C 
HETATM    3  C   UNL     1      -3.701   2.131 -31.276  1.00  0.00     0.207 C 
HETATM    4  O   UNL     1      -2.776   1.333 -31.176  1.00  0.00    -0.279 OA
HETATM    5  N   UNL     1      -3.520   3.509 -31.314  1.00  0.00    -0.227 NA
HETATM    6  C   UNL     1      -3.329   4.028 -32.625  1.00  0.00     0.042 A 
HETATM    7  C   UNL     1      -4.439   4.183 -33.482  1.00  0.00     0.059 A 
HETATM    8  N   UNL     1      -5.687   3.550 -33.146  1.00  0.00    -0.309 N 
HETATM    9  C   UNL     1      -6.913   4.220 -33.362  1.00  0.00     0.298 C 
HETATM   10  O   UNL     1      -6.967   5.353 -33.845  1.00  0.00    -0.264 OA
HETATM   11  C   UNL     1      -5.577   2.091 -32.886  1.00  0.00     0.145 C 
HETATM   12  C   UNL     1      -2.069   4.508 -32.975  1.00  0.00     0.026 A 
HETATM   13  C   UNL     1      -1.905   5.172 -34.189  1.00  0.00     0.002 A 
HETATM   14  C   UNL     1      -3.000   5.366 -35.033  1.00  0.00     0.002 A 
HETATM   15  C   UNL     1      -4.264   4.877 -34.682  1.00  0.00     0.031 A 
HETATM   16  H   UNL     1      -4.372   3.937 -30.958  1.00  0.00     0.136 HD
ENDROOT
BRANCH   9  17
HETATM   17  C   UNL     1      -8.161   3.545 -32.914  1.00  0.00     0.239 A 
HETATM   18  N   UNL     1      -9.078   3.077 -33.779  1.00  0.00    -0.140 NA
HETATM   19  N   UNL     1     -10.055   2.599 -32.977  1.00  0.00    -0.225 N 
HETATM   20  C   UNL     1      -9.701   2.800 -31.668  1.00  0.00     0.237 A 
HETATM   21  N   UNL     1      -8.531   3.392 -31.590  1.00  0.00    -0.216 NA
BRANCH  19  22
HETATM   22  C   UNL     1     -11.227   1.994 -33.503  1.00  0.00     0.059 A 
HETATM   23  C   UNL     1     -12.131   2.774 -34.242  1.00  0.00     0.031 A 
HETATM   24  C   UNL     1     -13.288   2.199 -34.769  1.00  0.00     0.002 A 
HETATM   25  C   UNL     1     -13.549   0.846 -34.567  1.00  0.00     0.000 A 
HETATM   26  C   UNL     1     -12.655   0.065 -33.836  1.00  0.00     0.002 A 
HETATM   27  C   UNL     1     -11.494   0.633 -33.302  1.00  0.00     0.031 A 
ENDBRANCH  19  22
ENDBRANCH   9  17
TORSDOF 2
ENDMDL
MODEL 8
REMARK VINA RESULT:      -8.6      2.809      4.537
REMARK  2 active torsions:
REMARK  status: ('A' for Active; 'I' for Inactive)
REMARK       I    between atoms: N_8  and  C_9 
REMARK    1  A    between atoms: C_9  and  C_10 
REMARK    2  A    between atoms: N_12  and  C_13 
ROOT
HETATM    1  C   UNL     1      -3.469   3.316 -33.134  1.00  0.00     0.021 C 
HETATM    2  C   UNL     1      -4.568   3.060 -32.104  1.00  0.00     0.087 C 
HETATM    3  C   UNL     1      -4.371   3.942 -30.877  1.00  0.00     0.207 C 
HETATM    4  O   UNL     1      -3.583   4.879 -30.823  1.00  0.00    -0.279 OA
HETATM    5  N   UNL     1      -5.239   3.613 -29.842  1.00  0.00    -0.227 NA
HETATM    6  C   UNL     1      -6.495   4.279 -29.912  1.00  0.00     0.042 A 
HETATM    7  C   UNL     1      -7.470   3.832 -30.827  1.00  0.00     0.059 A 
HETATM    8  N   UNL     1      -7.094   2.919 -31.873  1.00  0.00    -0.309 N 
HETATM    9  C   UNL     1      -7.952   1.858 -32.243  1.00  0.00     0.298 C 
HETATM   10  O   UNL     1      -9.043   1.674 -31.699  1.00  0.00    -0.264 OA
HETATM   11  C   UNL     1      -5.946   3.380 -32.698  1.00  0.00     0.145 C 
HETATM   12  C   UNL     1      -6.781   5.264 -28.967  1.00  0.00     0.026 A 
HETATM   13  C   UNL     1      -8.064   5.805 -28.915  1.00  0.00     0.002 A 
HETATM   14  C   UNL     1      -9.052   5.348 -29.789  1.00  0.00     0.002 A 
HETATM   15  C   UNL     1      -8.760   4.364 -30.740  1.00  0.00     0.031 A 
HETATM   16  H   UNL     1      -5.438   2.618 -29.916  1.00  0.00     0.136 HD
ENDROOT
BRANCH   9  17
HETATM   17  C   UNL     1      -7.466   0.899 -33.272  1.00  0.00     0.239 A 
HETATM   18  N   UNL     1      -6.976  -0.312 -32.956  1.00  0.00    -0.140 NA
HETATM   19  N   UNL     1      -6.607  -0.827 -34.150  1.00  0.00    -0.225 N 
HETATM   20  C   UNL     1      -6.877   0.087 -35.136  1.00  0.00     0.237 A 
HETATM   21  N   UNL     1      -7.407   1.175 -34.626  1.00  0.00    -0.216 NA
BRANCH  19  22
HETATM   22  C   UNL     1      -6.041  -2.124 -34.264  1.00  0.00     0.059 A 
HETATM   23  C   UNL     1      -4.701  -2.324 -33.896  1.00  0.00     0.031 A 
HETATM   24  C   UNL     1      -4.126  -3.592 -33.999  1.00  0.00     0.002 A 
HETATM   25  C   UNL     1      -4.882  -4.665 -34.464  1.00  0.00     0.000 A 
HETATM   26  C   UNL     1      -6.214  -4.474 -34.829  1.00  0.00     0.002 A 
HETATM   27  C   UNL     1      -6.798  -3.207 -34.732  1.00  0.00     0.031 A 
ENDBRANCH  19  22
ENDBRANCH   9  17
TORSDOF 2
ENDMDL
MODEL 9
REMARK VINA RESULT:      -8.6      2.484      7.674
REMARK  2 active torsions:
REMARK  status: ('A' for Active; 'I' for Inactive)
REMARK       I    between atoms: N_8  and  C_9 
REMARK    1  A    between atoms: C_9  and  C_10 
REMARK    2  A    between atoms: N_12  and  C_13 
ROOT
HETATM    1  C   UNL     1      -4.283   0.326 -30.605  1.00  0.00     0.021 C 
HETATM    2  C   UNL     1      -4.552  -0.125 -32.039  1.00  0.00     0.087 C 
HETATM    3  C   UNL     1      -3.646  -1.292 -32.415  1.00  0.00     0.207 C 
HETATM    4  O   UNL     1      -2.968  -1.922 -31.612  1.00  0.00    -0.279 OA
HETATM    5  N   UNL     1      -3.729  -1.616 -33.764  1.00  0.00    -0.227 NA
HETATM    6  C   UNL     1      -4.766  -2.540 -34.072  1.00  0.00     0.042 A 
HETATM    7  C   UNL     1      -6.102  -2.092 -34.132  1.00  0.00     0.059 A 
HETATM    8  N   UNL     1      -6.441  -0.800 -33.598  1.00  0.00    -0.309 N 
HETATM    9  C   UNL     1      -7.367   0.033 -34.268  1.00  0.00     0.298 C 
HETATM   10  O   UNL     1      -7.919  -0.307 -35.316  1.00  0.00    -0.264 OA
HETATM   11  C   UNL     1      -6.006  -0.590 -32.192  1.00  0.00     0.145 C 
HETATM   12  C   UNL     1      -4.415  -3.834 -34.452  1.00  0.00     0.026 A 
HETATM   13  C   UNL     1      -5.403  -4.699 -34.918  1.00  0.00     0.002 A 
HETATM   14  C   UNL     1      -6.725  -4.261 -35.018  1.00  0.00     0.002 A 
HETATM   15  C   UNL     1      -7.075  -2.963 -34.630  1.00  0.00     0.031 A 
HETATM   16  H   UNL     1      -3.949  -0.760 -34.270  1.00  0.00     0.136 HD
ENDROOT
BRANCH   9  17
HETATM   17  C   UNL     1      -7.608   1.392 -33.710  1.00  0.00     0.239 A 
HETATM   18  N   UNL     1      -6.615   2.276 -33.509  1.00  0.00    -0.140 NA
HETATM   19  N   UNL     1      -7.243   3.335 -32.952  1.00  0.00    -0.225 N 
HETATM   20  C   UNL     1      -8.579   3.054 -32.831  1.00  0.00     0.237 A 
HETATM   21  N   UNL     1      -8.842   1.850 -33.286  1.00  0.00    -0.216 NA
BRANCH  19  22
HETATM   22  C   UNL     1      -6.542   4.515 -32.590  1.00  0.00     0.059 A 
HETATM   23  C   UNL     1      -5.244   4.410 -32.065  1.00  0.00     0.031 A 
HETATM   24  C   UNL     1      -4.536   5.557 -31.704  1.00  0.00     0.002 A 
HETATM   25  C   UNL     1      -5.115   6.814 -31.867  1.00  0.00     0.000 A 
HETATM   26  C   UNL     1      -6.403   6.926 -32.389  1.00  0.00     0.002 A 
HETATM   27  C   UNL     1      -7.120   5.782 -32.751  1.00  0.00     0.031 A 
ENDBRANCH  19  22
ENDBRANCH   9  17
TORSDOF 2
ENDMDL
MODEL 10
REMARK VINA RESULT:      -8.5      4.769      6.957
REMARK  2 active torsions:
REMARK  status: ('A' for Active; 'I' for Inactive)
REMARK       I    between atoms: N_8  and  C_9 
REMARK    1  A    between atoms: C_9  and  C_10 
REMARK    2  A    between atoms: N_12  and  C_13 
ROOT
HETATM    1  C   UNL     1      -3.513   5.226 -35.341  1.00  0.00     0.021 C 
HETATM    2  C   UNL     1      -3.141   5.066 -33.868  1.00  0.00     0.087 C 
HETATM    3  C   UNL     1      -1.749   5.628 -33.601  1.00  0.00     0.207 C 
HETATM    4  O   UNL     1      -1.120   6.312 -34.399  1.00  0.00    -0.279 OA
HETATM    5  N   UNL     1      -1.298   5.340 -32.318  1.00  0.00    -0.227 NA
HETATM    6  C   UNL     1      -1.690   6.299 -31.342  1.00  0.00     0.042 A 
HETATM    7  C   UNL     1      -3.009   6.286 -30.844  1.00  0.00     0.059 A 
HETATM    8  N   UNL     1      -4.017   5.519 -31.527  1.00  0.00    -0.309 N 
HETATM    9  C   UNL     1      -4.984   4.792 -30.795  1.00  0.00     0.298 C 
HETATM   10  O   UNL     1      -5.011   4.789 -29.563  1.00  0.00    -0.264 OA
HETATM   11  C   UNL     1      -4.134   5.824 -32.977  1.00  0.00     0.145 C 
HETATM   12  C   UNL     1      -0.714   7.131 -30.795  1.00  0.00     0.026 A 
HETATM   13  C   UNL     1      -1.046   7.955 -29.722  1.00  0.00     0.002 A 
HETATM   14  C   UNL     1      -2.338   7.929 -29.193  1.00  0.00     0.002 A 
HETATM   15  C   UNL     1      -3.316   7.097 -29.748  1.00  0.00     0.031 A 
HETATM   16  H   UNL     1      -1.719   4.457 -32.037  1.00  0.00     0.136 HD
ENDROOT
BRANCH   9  17
HETATM   17  C   UNL     1      -5.944   3.950 -31.560  1.00  0.00     0.239 A 
HETATM   18  N   UNL     1      -5.603   2.758 -32.080  1.00  0.00    -0.140 NA
HETATM   19  N   UNL     1      -6.723   2.362 -32.725  1.00  0.00    -0.225 N 
HETATM   20  C   UNL     1      -7.690   3.324 -32.580  1.00  0.00     0.237 A 
HETATM   21  N   UNL     1      -7.239   4.330 -31.866  1.00  0.00    -0.216 NA
BRANCH  19  22
HETATM   22  C   UNL     1      -6.792   1.122 -33.413  1.00  0.00     0.059 A 
HETATM   23  C   UNL     1      -6.129   0.004 -32.882  1.00  0.00     0.031 A 
HETATM   24  C   UNL     1      -6.185  -1.225 -33.541  1.00  0.00     0.002 A 
HETATM   25  C   UNL     1      -6.904  -1.347 -34.728  1.00  0.00     0.000 A 
HETATM   26  C   UNL     1      -7.565  -0.242 -35.260  1.00  0.00     0.002 A 
HETATM   27  C   UNL     1      -7.512   0.994 -34.608  1.00  0.00     0.031 A 
ENDBRANCH  19  22
ENDBRANCH   9  17
TORSDOF 2
ENDMDL
