MODEL 1
REMARK VINA RESULT:      -9.2      0.000      0.000
REMARK  8 active torsions:
REMARK  status: ('A' for Active; 'I' for Inactive)
REMARK    1  A    between atoms: C_2  and  C_3 
REMARK    2  A    between atoms: C_3  and  O_4 
REMARK    3  A    between atoms: O_4  and  C_5 
REMARK    4  A    between atoms: C_8  and  C_9 
REMARK       I    between atoms: C_9  and  N_10 
REMARK    5  A    between atoms: N_10  and  C_11 
REMARK    6  A    between atoms: N_12  and  C_13 
REMARK    7  A    between atoms: C_15  and  C_16 
REMARK    8  A    between atoms: C_27  and  O_28 
ROOT
HETATM    1  C   UNL     1      -8.542   4.021 -32.213  1.00  0.00     0.035 A 
HETATM    2  C   UNL     1      -7.204   4.432 -32.294  1.00  0.00     0.048 A 
HETATM    3  C   UNL     1      -6.398   4.596 -31.149  1.00  0.00     0.052 A 
HETATM    4  C   UNL     1      -6.972   4.311 -29.904  1.00  0.00     0.080 A 
HETATM    5  C   UNL     1      -8.307   3.901 -29.809  1.00  0.00     0.040 A 
HETATM    6  C   UNL     1      -9.091   3.770 -30.959  1.00  0.00     0.032 A 
ENDROOT
BRANCH   1   7
HETATM    7  N   UNL     1      -9.267   3.992 -33.423  1.00  0.00    -0.333 N 
HETATM    8  C   UNL     1      -9.655   2.966 -34.209  1.00  0.00     0.179 C 
HETATM    9  S   UNL     1     -11.105   3.100 -35.038  1.00  0.00    -0.040 SA
HETATM   10  H   UNL     1      -9.761   4.853 -33.632  1.00  0.00     0.168 HD
BRANCH   8  11
HETATM   11  N   UNL     1      -8.928   1.835 -34.396  1.00  0.00    -0.299 N 
HETATM   12  C   UNL     1      -9.002   0.676 -33.630  1.00  0.00     0.257 C 
HETATM   13  O   UNL     1      -9.935   0.315 -32.928  1.00  0.00    -0.267 OA
HETATM   14  H   UNL     1      -7.986   2.071 -34.681  1.00  0.00     0.171 HD
BRANCH  12  15
HETATM   15  C   UNL     1      -7.769  -0.161 -33.678  1.00  0.00     0.032 A 
HETATM   16  C   UNL     1      -6.882  -0.097 -32.598  1.00  0.00     0.020 A 
HETATM   17  C   UNL     1      -5.674  -0.796 -32.650  1.00  0.00     0.038 A 
HETATM   18  C   UNL     1      -5.364  -1.586 -33.757  1.00  0.00     0.068 A 
HETATM   19  C   UNL     1      -6.257  -1.668 -34.827  1.00  0.00     0.038 A 
HETATM   20  C   UNL     1      -7.463  -0.958 -34.788  1.00  0.00     0.020 A 
BRANCH  18  21
HETATM   21  O   UNL     1      -4.131  -2.176 -33.743  1.00  0.00    -0.351 OA
BRANCH  21  22
HETATM   22  C   UNL     1      -3.537  -2.295 -32.448  1.00  0.00     0.175 C 
BRANCH  22  23
HETATM   23  C   UNL     1      -3.257  -3.771 -32.168  1.00  0.00     0.022 C 
HETATM   24  C   UNL     1      -3.443  -4.650 -33.397  1.00  0.00     0.007 C 
ENDBRANCH  22  23
ENDBRANCH  21  22
ENDBRANCH  18  21
ENDBRANCH  12  15
ENDBRANCH   8  11
ENDBRANCH   1   7
BRANCH   3  25
HETATM   25  C   UNL     1      -5.025   5.069 -31.348  1.00  0.00     0.183 A 
HETATM   26  O   UNL     1      -4.474   4.933 -32.597  1.00  0.00    -0.288 OA
HETATM   27  C   UNL     1      -3.193   5.387 -32.455  1.00  0.00     0.112 A 
HETATM   28  C   UNL     1      -3.031   5.765 -31.135  1.00  0.00     0.094 A 
HETATM   29  C   UNL     1      -2.205   5.458 -33.437  1.00  0.00    -0.025 A 
HETATM   30  N   UNL     1      -4.193   5.552 -30.438  1.00  0.00    -0.221 NA
HETATM   31  C   UNL     1      -1.791   6.266 -30.716  1.00  0.00     0.041 A 
HETATM   32  C   UNL     1      -0.752   6.364 -31.659  1.00  0.00    -0.059 A 
HETATM   33  C   UNL     1      -0.967   5.963 -32.991  1.00  0.00     0.016 A 
HETATM   34  C   UNL     1       0.587   6.888 -31.224  1.00  0.00     0.048 C 
HETATM   35  C   UNL     1      -2.401   5.036 -34.857  1.00  0.00     0.051 C 
ENDBRANCH   3  25
BRANCH   4  36
HETATM   36  O   UNL     1      -6.240   4.424 -28.754  1.00  0.00    -0.360 OA
HETATM   37  H   UNL     1      -6.674   5.047 -28.150  1.00  0.00     0.217 HD
ENDBRANCH   4  36
TORSDOF 8
ENDMDL
MODEL 2
REMARK VINA RESULT:      -9.1      2.557      4.398
REMARK  8 active torsions:
REMARK  status: ('A' for Active; 'I' for Inactive)
REMARK    1  A    between atoms: C_2  and  C_3 
REMARK    2  A    between atoms: C_3  and  O_4 
REMARK    3  A    between atoms: O_4  and  C_5 
REMARK    4  A    between atoms: C_8  and  C_9 
REMARK       I    between atoms: C_9  and  N_10 
REMARK    5  A    between atoms: N_10  and  C_11 
REMARK    6  A    between atoms: N_12  and  C_13 
REMARK    7  A    between atoms: C_15  and  C_16 
REMARK    8  A    between atoms: C_27  and  O_28 
ROOT
HETATM    1  C   UNL     1      -5.002   5.467 -33.693  1.00  0.00     0.035 A 
HETATM    2  C   UNL     1      -4.208   6.001 -32.668  1.00  0.00     0.048 A 
HETATM    3  C   UNL     1      -2.808   6.113 -32.783  1.00  0.00     0.052 A 
HETATM    4  C   UNL     1      -2.218   5.689 -33.980  1.00  0.00     0.080 A 
HETATM    5  C   UNL     1      -2.999   5.152 -35.011  1.00  0.00     0.040 A 
HETATM    6  C   UNL     1      -4.384   5.030 -34.860  1.00  0.00     0.032 A 
ENDROOT
BRANCH   1   7
HETATM    7  N   UNL     1      -6.377   5.317 -33.413  1.00  0.00    -0.333 N 
HETATM    8  C   UNL     1      -7.048   4.392 -32.697  1.00  0.00     0.179 C 
HETATM    9  S   UNL     1      -8.424   4.869 -31.867  1.00  0.00    -0.040 SA
HETATM   10  H   UNL     1      -6.932   6.147 -33.597  1.00  0.00     0.168 HD
BRANCH   8  11
HETATM   11  N   UNL     1      -6.697   3.083 -32.627  1.00  0.00    -0.299 N 
HETATM   12  C   UNL     1      -5.627   2.557 -31.909  1.00  0.00     0.257 C 
HETATM   13  O   UNL     1      -5.059   3.067 -30.954  1.00  0.00    -0.267 OA
HETATM   14  H   UNL     1      -6.838   2.637 -33.525  1.00  0.00     0.171 HD
BRANCH  12  15
HETATM   15  C   UNL     1      -5.136   1.248 -32.425  1.00  0.00     0.032 A 
HETATM   16  C   UNL     1      -6.078   0.315 -32.871  1.00  0.00     0.020 A 
HETATM   17  C   UNL     1      -5.660  -0.955 -33.274  1.00  0.00     0.038 A 
HETATM   18  C   UNL     1      -4.305  -1.287 -33.267  1.00  0.00     0.068 A 
HETATM   19  C   UNL     1      -3.361  -0.351 -32.841  1.00  0.00     0.038 A 
HETATM   20  C   UNL     1      -3.774   0.919 -32.422  1.00  0.00     0.020 A 
BRANCH  18  21
HETATM   21  O   UNL     1      -4.004  -2.574 -33.613  1.00  0.00    -0.351 OA
BRANCH  21  22
HETATM   22  C   UNL     1      -4.598  -3.023 -34.833  1.00  0.00     0.175 C 
BRANCH  22  23
HETATM   23  C   UNL     1      -5.231  -4.394 -34.598  1.00  0.00     0.022 C 
HETATM   24  C   UNL     1      -6.720  -4.418 -34.913  1.00  0.00     0.007 C 
ENDBRANCH  22  23
ENDBRANCH  21  22
ENDBRANCH  18  21
ENDBRANCH  12  15
ENDBRANCH   8  11
ENDBRANCH   1   7
BRANCH   3  25
HETATM   25  C   UNL     1      -2.074   6.650 -31.634  1.00  0.00     0.183 A 
HETATM   26  O   UNL     1      -2.650   7.672 -30.925  1.00  0.00    -0.288 OA
HETATM   27  C   UNL     1      -1.718   7.999 -29.980  1.00  0.00     0.112 A 
HETATM   28  C   UNL     1      -0.629   7.168 -30.168  1.00  0.00     0.094 A 
HETATM   29  C   UNL     1      -1.814   8.988 -29.001  1.00  0.00    -0.025 A 
HETATM   30  N   UNL     1      -0.858   6.323 -31.223  1.00  0.00    -0.221 NA
HETATM   31  C   UNL     1       0.484   7.301 -29.326  1.00  0.00     0.041 A 
HETATM   32  C   UNL     1       0.451   8.281 -28.317  1.00  0.00    -0.059 A 
HETATM   33  C   UNL     1      -0.682   9.103 -28.169  1.00  0.00     0.016 A 
HETATM   34  C   UNL     1       1.639   8.444 -27.414  1.00  0.00     0.048 C 
HETATM   35  C   UNL     1      -3.000   9.880 -28.822  1.00  0.00     0.051 C 
ENDBRANCH   3  25
BRANCH   4  36
HETATM   36  O   UNL     1      -0.868   5.792 -34.170  1.00  0.00    -0.360 OA
HETATM   37  H   UNL     1      -0.581   6.701 -33.987  1.00  0.00     0.217 HD
ENDBRANCH   4  36
TORSDOF 8
ENDMDL
MODEL 3
REMARK VINA RESULT:      -9.1      4.165      9.843
REMARK  8 active torsions:
REMARK  status: ('A' for Active; 'I' for Inactive)
REMARK    1  A    between atoms: C_2  and  C_3 
REMARK    2  A    between atoms: C_3  and  O_4 
REMARK    3  A    between atoms: O_4  and  C_5 
REMARK    4  A    between atoms: C_8  and  C_9 
REMARK       I    between atoms: C_9  and  N_10 
REMARK    5  A    between atoms: N_10  and  C_11 
REMARK    6  A    between atoms: N_12  and  C_13 
REMARK    7  A    between atoms: C_15  and  C_16 
REMARK    8  A    between atoms: C_27  and  O_28 
ROOT
HETATM    1  C   UNL     1      -4.301   4.731 -31.352  1.00  0.00     0.035 A 
HETATM    2  C   UNL     1      -4.218   3.429 -31.866  1.00  0.00     0.048 A 
HETATM    3  C   UNL     1      -4.871   2.338 -31.257  1.00  0.00     0.052 A 
HETATM    4  C   UNL     1      -5.639   2.595 -30.115  1.00  0.00     0.080 A 
HETATM    5  C   UNL     1      -5.729   3.890 -29.590  1.00  0.00     0.040 A 
HETATM    6  C   UNL     1      -5.051   4.950 -30.200  1.00  0.00     0.032 A 
ENDROOT
BRANCH   1   7
HETATM    7  N   UNL     1      -3.521   5.715 -31.996  1.00  0.00    -0.333 N 
HETATM    8  C   UNL     1      -2.242   6.102 -31.812  1.00  0.00     0.179 C 
HETATM    9  S   UNL     1      -1.366   6.623 -33.143  1.00  0.00    -0.040 SA
HETATM   10  H   UNL     1      -3.905   6.040 -32.877  1.00  0.00     0.168 HD
BRANCH   8  11
HETATM   11  N   UNL     1      -1.620   6.126 -30.606  1.00  0.00    -0.299 N 
HETATM   12  C   UNL     1      -1.918   6.977 -29.546  1.00  0.00     0.257 C 
HETATM   13  O   UNL     1      -2.970   7.569 -29.349  1.00  0.00    -0.267 OA
HETATM   14  H   UNL     1      -0.629   5.959 -30.722  1.00  0.00     0.171 HD
BRANCH  12  15
HETATM   15  C   UNL     1      -0.786   7.186 -28.600  1.00  0.00     0.032 A 
HETATM   16  C   UNL     1      -0.874   6.620 -27.324  1.00  0.00     0.020 A 
HETATM   17  C   UNL     1       0.125   6.872 -26.381  1.00  0.00     0.038 A 
HETATM   18  C   UNL     1       1.229   7.656 -26.717  1.00  0.00     0.068 A 
HETATM   19  C   UNL     1       1.330   8.205 -27.996  1.00  0.00     0.038 A 
HETATM   20  C   UNL     1       0.325   7.969 -28.941  1.00  0.00     0.020 A 
BRANCH  18  21
HETATM   21  O   UNL     1       2.117   7.900 -25.706  1.00  0.00    -0.351 OA
BRANCH  21  22
HETATM   22  C   UNL     1       1.790   9.016 -24.876  1.00  0.00     0.175 C 
BRANCH  22  23
HETATM   23  C   UNL     1       3.085   9.700 -24.437  1.00  0.00     0.022 C 
HETATM   24  C   UNL     1       3.168   9.897 -22.930  1.00  0.00     0.007 C 
ENDBRANCH  22  23
ENDBRANCH  21  22
ENDBRANCH  18  21
ENDBRANCH  12  15
ENDBRANCH   8  11
ENDBRANCH   1   7
BRANCH   3  25
HETATM   25  C   UNL     1      -4.683   1.015 -31.858  1.00  0.00     0.183 A 
HETATM   26  O   UNL     1      -5.520   0.649 -32.880  1.00  0.00    -0.288 OA
HETATM   27  C   UNL     1      -5.154  -0.633 -33.178  1.00  0.00     0.112 A 
HETATM   28  C   UNL     1      -4.126  -0.981 -32.322  1.00  0.00     0.094 A 
HETATM   29  C   UNL     1      -5.703  -1.467 -34.153  1.00  0.00    -0.025 A 
HETATM   30  N   UNL     1      -3.839   0.065 -31.482  1.00  0.00    -0.221 NA
HETATM   31  C   UNL     1      -3.565  -2.262 -32.412  1.00  0.00     0.041 A 
HETATM   32  C   UNL     1      -4.074  -3.152 -33.375  1.00  0.00    -0.059 A 
HETATM   33  C   UNL     1      -5.124  -2.751 -34.223  1.00  0.00     0.016 A 
HETATM   34  C   UNL     1      -3.493  -4.533 -33.478  1.00  0.00     0.048 C 
HETATM   35  C   UNL     1      -6.820  -1.072 -35.063  1.00  0.00     0.051 C 
ENDBRANCH   3  25
BRANCH   4  36
HETATM   36  O   UNL     1      -6.321   1.589 -29.488  1.00  0.00    -0.360 OA
HETATM   37  H   UNL     1      -6.420   1.798 -28.546  1.00  0.00     0.217 HD
ENDBRANCH   4  36
TORSDOF 8
ENDMDL
MODEL 4
REMARK VINA RESULT:      -8.9      3.484      9.336
REMARK  8 active torsions:
REMARK  status: ('A' for Active; 'I' for Inactive)
REMARK    1  A    between atoms: C_2  and  C_3 
REMARK    2  A    between atoms: C_3  and  O_4 
REMARK    3  A    between atoms: O_4  and  C_5 
REMARK    4  A    between atoms: C_8  and  C_9 
REMARK       I    between atoms: C_9  and  N_10 
REMARK    5  A    between atoms: N_10  and  C_11 
REMARK    6  A    between atoms: N_12  and  C_13 
REMARK    7  A    between atoms: C_15  and  C_16 
REMARK    8  A    between atoms: C_27  and  O_28 
ROOT
HETATM    1  C   UNL     1      -4.915   5.169 -33.774  1.00  0.00     0.035 A 
HETATM    2  C   UNL     1      -5.039   3.783 -33.947  1.00  0.00     0.048 A 
HETATM    3  C   UNL     1      -6.113   3.051 -33.403  1.00  0.00     0.052 A 
HETATM    4  C   UNL     1      -7.087   3.760 -32.688  1.00  0.00     0.080 A 
HETATM    5  C   UNL     1      -6.974   5.143 -32.506  1.00  0.00     0.040 A 
HETATM    6  C   UNL     1      -5.884   5.841 -33.036  1.00  0.00     0.032 A 
ENDROOT
BRANCH   1   7
HETATM    7  N   UNL     1      -3.742   5.766 -34.283  1.00  0.00    -0.333 N 
HETATM    8  C   UNL     1      -2.551   6.030 -33.707  1.00  0.00     0.179 C 
HETATM    9  S   UNL     1      -1.171   5.948 -34.655  1.00  0.00    -0.040 SA
HETATM   10  H   UNL     1      -3.706   5.815 -35.296  1.00  0.00     0.168 HD
BRANCH   8  11
HETATM   11  N   UNL     1      -2.398   6.388 -32.408  1.00  0.00    -0.299 N 
HETATM   12  C   UNL     1      -1.891   7.598 -31.944  1.00  0.00     0.257 C 
HETATM   13  O   UNL     1      -1.846   8.659 -32.551  1.00  0.00    -0.267 OA
HETATM   14  H   UNL     1      -2.100   5.591 -31.860  1.00  0.00     0.171 HD
BRANCH  12  15
HETATM   15  C   UNL     1      -1.320   7.530 -30.569  1.00  0.00     0.032 A 
HETATM   16  C   UNL     1      -0.100   6.869 -30.390  1.00  0.00     0.020 A 
HETATM   17  C   UNL     1       0.418   6.706 -29.103  1.00  0.00     0.038 A 
HETATM   18  C   UNL     1      -0.256   7.229 -28.000  1.00  0.00     0.068 A 
HETATM   19  C   UNL     1      -1.463   7.907 -28.178  1.00  0.00     0.038 A 
HETATM   20  C   UNL     1      -1.996   8.061 -29.463  1.00  0.00     0.020 A 
BRANCH  18  21
HETATM   21  O   UNL     1       0.297   6.958 -26.779  1.00  0.00    -0.351 OA
BRANCH  21  22
HETATM   22  C   UNL     1       0.571   8.108 -25.975  1.00  0.00     0.175 C 
BRANCH  22  23
HETATM   23  C   UNL     1       2.000   8.574 -26.252  1.00  0.00     0.022 C 
HETATM   24  C   UNL     1       2.756   8.942 -24.984  1.00  0.00     0.007 C 
ENDBRANCH  22  23
ENDBRANCH  21  22
ENDBRANCH  18  21
ENDBRANCH  12  15
ENDBRANCH   8  11
ENDBRANCH   1   7
BRANCH   3  25
HETATM   25  C   UNL     1      -6.121   1.601 -33.613  1.00  0.00     0.183 A 
HETATM   26  O   UNL     1      -5.085   0.870 -33.091  1.00  0.00    -0.288 OA
HETATM   27  C   UNL     1      -5.329  -0.410 -33.502  1.00  0.00     0.112 A 
HETATM   28  C   UNL     1      -6.489  -0.390 -34.254  1.00  0.00     0.094 A 
HETATM   29  C   UNL     1      -4.564  -1.546 -33.238  1.00  0.00    -0.025 A 
HETATM   30  N   UNL     1      -6.980   0.889 -34.327  1.00  0.00    -0.221 NA
HETATM   31  C   UNL     1      -6.965  -1.586 -34.808  1.00  0.00     0.041 A 
HETATM   32  C   UNL     1      -6.239  -2.769 -34.578  1.00  0.00    -0.059 A 
HETATM   33  C   UNL     1      -5.061  -2.736 -33.808  1.00  0.00     0.016 A 
HETATM   34  C   UNL     1      -6.728  -4.057 -35.175  1.00  0.00     0.048 C 
HETATM   35  C   UNL     1      -3.308  -1.542 -32.429  1.00  0.00     0.051 C 
ENDBRANCH   3  25
BRANCH   4  36
HETATM   36  O   UNL     1      -8.170   3.117 -32.154  1.00  0.00    -0.360 OA
HETATM   37  H   UNL     1      -8.919   3.176 -32.768  1.00  0.00     0.217 HD
ENDBRANCH   4  36
TORSDOF 8
ENDMDL
MODEL 5
REMARK VINA RESULT:      -8.9      2.378      3.898
REMARK  8 active torsions:
REMARK  status: ('A' for Active; 'I' for Inactive)
REMARK    1  A    between atoms: C_2  and  C_3 
REMARK    2  A    between atoms: C_3  and  O_4 
REMARK    3  A    between atoms: O_4  and  C_5 
REMARK    4  A    between atoms: C_8  and  C_9 
REMARK       I    between atoms: C_9  and  N_10 
REMARK    5  A    between atoms: N_10  and  C_11 
REMARK    6  A    between atoms: N_12  and  C_13 
REMARK    7  A    between atoms: C_15  and  C_16 
REMARK    8  A    between atoms: C_27  and  O_28 
ROOT
HETATM    1  C   UNL     1      -5.821   5.486 -32.975  1.00  0.00     0.035 A 
HETATM    2  C   UNL     1      -4.836   5.985 -32.111  1.00  0.00     0.048 A 
HETATM    3  C   UNL     1      -3.479   6.060 -32.484  1.00  0.00     0.052 A 
HETATM    4  C   UNL     1      -3.134   5.637 -33.774  1.00  0.00     0.080 A 
HETATM    5  C   UNL     1      -4.108   5.136 -34.645  1.00  0.00     0.040 A 
HETATM    6  C   UNL     1      -5.444   5.049 -34.240  1.00  0.00     0.032 A 
ENDROOT
BRANCH   1   7
HETATM    7  N   UNL     1      -7.124   5.370 -32.445  1.00  0.00    -0.333 N 
HETATM    8  C   UNL     1      -7.748   4.349 -31.823  1.00  0.00     0.179 C 
HETATM    9  S   UNL     1      -8.871   4.706 -30.631  1.00  0.00    -0.040 SA
HETATM   10  H   UNL     1      -7.602   6.256 -32.317  1.00  0.00     0.168 HD
BRANCH   8  11
HETATM   11  N   UNL     1      -7.547   3.040 -32.122  1.00  0.00    -0.299 N 
HETATM   12  C   UNL     1      -6.619   2.195 -31.522  1.00  0.00     0.257 C 
HETATM   13  O   UNL     1      -6.100   2.331 -30.424  1.00  0.00    -0.267 OA
HETATM   14  H   UNL     1      -7.642   2.892 -33.118  1.00  0.00     0.171 HD
BRANCH  12  15
HETATM   15  C   UNL     1      -6.220   1.035 -32.369  1.00  0.00     0.032 A 
HETATM   16  C   UNL     1      -6.630   1.017 -33.706  1.00  0.00     0.020 A 
HETATM   17  C   UNL     1      -6.353  -0.096 -34.502  1.00  0.00     0.038 A 
HETATM   18  C   UNL     1      -5.638  -1.175 -33.982  1.00  0.00     0.068 A 
HETATM   19  C   UNL     1      -5.209  -1.151 -32.654  1.00  0.00     0.038 A 
HETATM   20  C   UNL     1      -5.496  -0.045 -31.845  1.00  0.00     0.020 A 
BRANCH  18  21
HETATM   21  O   UNL     1      -5.477  -2.244 -34.819  1.00  0.00    -0.351 OA
BRANCH  21  22
HETATM   22  C   UNL     1      -4.636  -3.283 -34.312  1.00  0.00     0.175 C 
BRANCH  22  23
HETATM   23  C   UNL     1      -5.241  -4.635 -34.690  1.00  0.00     0.022 C 
HETATM   24  C   UNL     1      -6.670  -4.520 -35.201  1.00  0.00     0.007 C 
ENDBRANCH  22  23
ENDBRANCH  21  22
ENDBRANCH  18  21
ENDBRANCH  12  15
ENDBRANCH   8  11
ENDBRANCH   1   7
BRANCH   3  25
HETATM   25  C   UNL     1      -2.528   6.562 -31.488  1.00  0.00     0.183 A 
HETATM   26  O   UNL     1      -1.500   5.737 -31.109  1.00  0.00    -0.288 OA
HETATM   27  C   UNL     1      -0.840   6.439 -30.140  1.00  0.00     0.112 A 
HETATM   28  C   UNL     1      -1.502   7.642 -29.976  1.00  0.00     0.094 A 
HETATM   29  C   UNL     1       0.288   6.039 -29.424  1.00  0.00    -0.025 A 
HETATM   30  N   UNL     1      -2.575   7.709 -30.827  1.00  0.00    -0.221 NA
HETATM   31  C   UNL     1      -1.029   8.557 -29.026  1.00  0.00     0.041 A 
HETATM   32  C   UNL     1       0.107   8.215 -28.269  1.00  0.00    -0.059 A 
HETATM   33  C   UNL     1       0.743   6.975 -28.473  1.00  0.00     0.016 A 
HETATM   34  C   UNL     1       0.620   9.179 -27.239  1.00  0.00     0.048 C 
HETATM   35  C   UNL     1       0.982   4.730 -29.612  1.00  0.00     0.051 C 
ENDBRANCH   3  25
BRANCH   4  36
HETATM   36  O   UNL     1      -1.841   5.707 -34.212  1.00  0.00    -0.360 OA
HETATM   37  H   UNL     1      -1.388   6.447 -33.777  1.00  0.00     0.217 HD
ENDBRANCH   4  36
TORSDOF 8
ENDMDL
MODEL 6
REMARK VINA RESULT:      -8.8      2.867      6.913
REMARK  8 active torsions:
REMARK  status: ('A' for Active; 'I' for Inactive)
REMARK    1  A    between atoms: C_2  and  C_3 
REMARK    2  A    between atoms: C_3  and  O_4 
REMARK    3  A    between atoms: O_4  and  C_5 
REMARK    4  A    between atoms: C_8  and  C_9 
REMARK       I    between atoms: C_9  and  N_10 
REMARK    5  A    between atoms: N_10  and  C_11 
REMARK    6  A    between atoms: N_12  and  C_13 
REMARK    7  A    between atoms: C_15  and  C_16 
REMARK    8  A    between atoms: C_27  and  O_28 
ROOT
HETATM    1  C   UNL     1      -6.085   5.413 -31.505  1.00  0.00     0.035 A 
HETATM    2  C   UNL     1      -6.070   4.117 -32.040  1.00  0.00     0.048 A 
HETATM    3  C   UNL     1      -4.925   3.297 -31.991  1.00  0.00     0.052 A 
HETATM    4  C   UNL     1      -3.784   3.811 -31.362  1.00  0.00     0.080 A 
HETATM    5  C   UNL     1      -3.785   5.104 -30.825  1.00  0.00     0.040 A 
HETATM    6  C   UNL     1      -4.928   5.905 -30.909  1.00  0.00     0.032 A 
ENDROOT
BRANCH   1   7
HETATM    7  N   UNL     1      -7.261   6.167 -31.708  1.00  0.00    -0.333 N 
HETATM    8  C   UNL     1      -8.557   5.800 -31.771  1.00  0.00     0.179 C 
HETATM    9  S   UNL     1      -9.717   6.867 -31.201  1.00  0.00    -0.040 SA
HETATM   10  H   UNL     1      -7.143   7.166 -31.575  1.00  0.00     0.168 HD
BRANCH   8  11
HETATM   11  N   UNL     1      -8.991   4.626 -32.295  1.00  0.00    -0.299 N 
HETATM   12  C   UNL     1      -9.151   4.340 -33.648  1.00  0.00     0.257 C 
HETATM   13  O   UNL     1      -8.608   4.903 -34.588  1.00  0.00    -0.267 OA
HETATM   14  H   UNL     1      -9.718   4.232 -31.712  1.00  0.00     0.171 HD
BRANCH  12  15
HETATM   15  C   UNL     1     -10.127   3.249 -33.926  1.00  0.00     0.032 A 
HETATM   16  C   UNL     1     -11.060   3.439 -34.951  1.00  0.00     0.020 A 
HETATM   17  C   UNL     1     -12.047   2.478 -35.178  1.00  0.00     0.038 A 
HETATM   18  C   UNL     1     -12.087   1.313 -34.411  1.00  0.00     0.068 A 
HETATM   19  C   UNL     1     -11.145   1.112 -33.401  1.00  0.00     0.038 A 
HETATM   20  C   UNL     1     -10.161   2.078 -33.158  1.00  0.00     0.020 A 
BRANCH  18  21
HETATM   21  O   UNL     1     -13.130   0.467 -34.665  1.00  0.00    -0.351 OA
BRANCH  21  22
HETATM   22  C   UNL     1     -14.023   0.267 -33.566  1.00  0.00     0.175 C 
BRANCH  22  23
HETATM   23  C   UNL     1     -15.051   1.398 -33.555  1.00  0.00     0.022 C 
HETATM   24  C   UNL     1     -15.045   2.187 -32.253  1.00  0.00     0.007 C 
ENDBRANCH  22  23
ENDBRANCH  21  22
ENDBRANCH  18  21
ENDBRANCH  12  15
ENDBRANCH   8  11
ENDBRANCH   1   7
BRANCH   3  25
HETATM   25  C   UNL     1      -5.010   1.975 -32.616  1.00  0.00     0.183 A 
HETATM   26  O   UNL     1      -6.089   1.714 -33.422  1.00  0.00    -0.288 OA
HETATM   27  C   UNL     1      -5.929   0.409 -33.793  1.00  0.00     0.112 A 
HETATM   28  C   UNL     1      -4.773  -0.055 -33.192  1.00  0.00     0.094 A 
HETATM   29  C   UNL     1      -6.763  -0.347 -34.616  1.00  0.00    -0.025 A 
HETATM   30  N   UNL     1      -4.202   0.940 -32.441  1.00  0.00    -0.221 NA
HETATM   31  C   UNL     1      -4.378  -1.382 -33.405  1.00  0.00     0.041 A 
HETATM   32  C   UNL     1      -5.177  -2.198 -34.227  1.00  0.00    -0.059 A 
HETATM   33  C   UNL     1      -6.346  -1.679 -34.814  1.00  0.00     0.016 A 
HETATM   34  C   UNL     1      -4.774  -3.626 -34.456  1.00  0.00     0.048 C 
HETATM   35  C   UNL     1      -8.013   0.174 -35.250  1.00  0.00     0.051 C 
ENDBRANCH   3  25
BRANCH   4  36
HETATM   36  O   UNL     1      -2.645   3.061 -31.255  1.00  0.00    -0.360 OA
HETATM   37  H   UNL     1      -2.873   2.118 -31.277  1.00  0.00     0.217 HD
ENDBRANCH   4  36
TORSDOF 8
ENDMDL
MODEL 7
REMARK VINA RESULT:      -8.7      2.093      2.850
REMARK  8 active torsions:
REMARK  status: ('A' for Active; 'I' for Inactive)
REMARK    1  A    between atoms: C_2  and  C_3 
REMARK    2  A    between atoms: C_3  and  O_4 
REMARK    3  A    between atoms: O_4  and  C_5 
REMARK    4  A    between atoms: C_8  and  C_9 
REMARK       I    between atoms: C_9  and  N_10 
REMARK    5  A    between atoms: N_10  and  C_11 
REMARK    6  A    between atoms: N_12  and  C_13 
REMARK    7  A    between atoms: C_15  and  C_16 
REMARK    8  A    between atoms: C_27  and  O_28 
ROOT
HETATM    1  C   UNL     1      -7.102   5.586 -30.847  1.00  0.00     0.035 A 
HETATM    2  C   UNL     1      -5.780   5.997 -30.624  1.00  0.00     0.048 A 
HETATM    3  C   UNL     1      -5.238   6.114 -29.329  1.00  0.00     0.052 A 
HETATM    4  C   UNL     1      -6.062   5.780 -28.247  1.00  0.00     0.080 A 
HETATM    5  C   UNL     1      -7.384   5.370 -28.455  1.00  0.00     0.040 A 
HETATM    6  C   UNL     1      -7.904   5.287 -29.751  1.00  0.00     0.032 A 
ENDROOT
BRANCH   1   7
HETATM    7  N   UNL     1      -7.552   5.608 -32.185  1.00  0.00    -0.333 N 
HETATM    8  C   UNL     1      -8.084   4.644 -32.964  1.00  0.00     0.179 C 
HETATM    9  S   UNL     1      -9.230   5.084 -34.106  1.00  0.00    -0.040 SA
HETATM   10  H   UNL     1      -7.700   6.540 -32.559  1.00  0.00     0.168 HD
BRANCH   8  11
HETATM   11  N   UNL     1      -7.728   3.336 -32.905  1.00  0.00    -0.299 N 
HETATM   12  C   UNL     1      -6.497   2.803 -33.272  1.00  0.00     0.257 C 
HETATM   13  O   UNL     1      -5.430   3.396 -33.348  1.00  0.00    -0.267 OA
HETATM   14  H   UNL     1      -8.513   2.751 -33.163  1.00  0.00     0.171 HD
BRANCH  12  15
HETATM   15  C   UNL     1      -6.545   1.359 -33.637  1.00  0.00     0.032 A 
HETATM   16  C   UNL     1      -5.853   0.447 -32.834  1.00  0.00     0.020 A 
HETATM   17  C   UNL     1      -5.801  -0.900 -33.199  1.00  0.00     0.038 A 
HETATM   18  C   UNL     1      -6.466  -1.347 -34.341  1.00  0.00     0.068 A 
HETATM   19  C   UNL     1      -7.175  -0.443 -35.133  1.00  0.00     0.038 A 
HETATM   20  C   UNL     1      -7.219   0.911 -34.782  1.00  0.00     0.020 A 
BRANCH  18  21
HETATM   21  O   UNL     1      -6.298  -2.668 -34.650  1.00  0.00    -0.351 OA
BRANCH  21  22
HETATM   22  C   UNL     1      -4.941  -3.075 -34.836  1.00  0.00     0.175 C 
BRANCH  22  23
HETATM   23  C   UNL     1      -4.788  -4.517 -34.351  1.00  0.00     0.022 C 
HETATM   24  C   UNL     1      -3.462  -4.764 -33.646  1.00  0.00     0.007 C 
ENDBRANCH  22  23
ENDBRANCH  21  22
ENDBRANCH  18  21
ENDBRANCH  12  15
ENDBRANCH   8  11
ENDBRANCH   1   7
BRANCH   3  25
HETATM   25  C   UNL     1      -3.857   6.590 -29.211  1.00  0.00     0.183 A 
HETATM   26  O   UNL     1      -2.984   6.284 -30.223  1.00  0.00    -0.288 OA
HETATM   27  C   UNL     1      -1.786   6.791 -29.805  1.00  0.00     0.112 A 
HETATM   28  C   UNL     1      -1.990   7.367 -28.565  1.00  0.00     0.094 A 
HETATM   29  C   UNL     1      -0.564   6.743 -30.476  1.00  0.00    -0.025 A 
HETATM   30  N   UNL     1      -3.302   7.228 -28.191  1.00  0.00    -0.221 NA
HETATM   31  C   UNL     1      -0.908   7.961 -27.902  1.00  0.00     0.041 A 
HETATM   32  C   UNL     1       0.353   7.947 -28.525  1.00  0.00    -0.059 A 
HETATM   33  C   UNL     1       0.509   7.344 -29.788  1.00  0.00     0.016 A 
HETATM   34  C   UNL     1       1.526   8.568 -27.823  1.00  0.00     0.048 C 
HETATM   35  C   UNL     1      -0.365   6.106 -31.814  1.00  0.00     0.051 C 
ENDBRANCH   3  25
BRANCH   4  36
HETATM   36  O   UNL     1      -5.594   5.844 -26.963  1.00  0.00    -0.360 OA
HETATM   37  H   UNL     1      -6.322   5.687 -26.342  1.00  0.00     0.217 HD
ENDBRANCH   4  36
TORSDOF 8
ENDMDL
MODEL 8
REMARK VINA RESULT:      -8.5      2.330      7.393
REMARK  8 active torsions:
REMARK  status: ('A' for Active; 'I' for Inactive)
REMARK    1  A    between atoms: C_2  and  C_3 
REMARK    2  A    between atoms: C_3  and  O_4 
REMARK    3  A    between atoms: O_4  and  C_5 
REMARK    4  A    between atoms: C_8  and  C_9 
REMARK       I    between atoms: C_9  and  N_10 
REMARK    5  A    between atoms: N_10  and  C_11 
REMARK    6  A    between atoms: N_12  and  C_13 
REMARK    7  A    between atoms: C_15  and  C_16 
REMARK    8  A    between atoms: C_27  and  O_28 
ROOT
HETATM    1  C   UNL     1      -9.469   3.737 -31.023  1.00  0.00     0.035 A 
HETATM    2  C   UNL     1      -8.694   2.670 -31.500  1.00  0.00     0.048 A 
HETATM    3  C   UNL     1      -9.139   1.822 -32.534  1.00  0.00     0.052 A 
HETATM    4  C   UNL     1     -10.392   2.090 -33.101  1.00  0.00     0.080 A 
HETATM    5  C   UNL     1     -11.176   3.150 -32.632  1.00  0.00     0.040 A 
HETATM    6  C   UNL     1     -10.720   3.961 -31.588  1.00  0.00     0.032 A 
ENDROOT
BRANCH   1   7
HETATM    7  N   UNL     1      -8.953   4.447 -29.917  1.00  0.00    -0.333 N 
HETATM    8  C   UNL     1      -7.913   5.298 -29.809  1.00  0.00     0.179 C 
HETATM    9  S   UNL     1      -8.024   6.558 -28.709  1.00  0.00    -0.040 SA
HETATM   10  H   UNL     1      -9.583   4.496 -29.124  1.00  0.00     0.168 HD
BRANCH   8  11
HETATM   11  N   UNL     1      -6.760   5.185 -30.517  1.00  0.00    -0.299 N 
HETATM   12  C   UNL     1      -5.755   4.246 -30.305  1.00  0.00     0.257 C 
HETATM   13  O   UNL     1      -5.863   3.168 -29.739  1.00  0.00    -0.267 OA
HETATM   14  H   UNL     1      -6.409   6.103 -30.758  1.00  0.00     0.171 HD
BRANCH  12  15
HETATM   15  C   UNL     1      -4.417   4.667 -30.806  1.00  0.00     0.032 A 
HETATM   16  C   UNL     1      -3.991   5.974 -30.547  1.00  0.00     0.020 A 
HETATM   17  C   UNL     1      -2.784   6.430 -31.080  1.00  0.00     0.038 A 
HETATM   18  C   UNL     1      -1.983   5.579 -31.841  1.00  0.00     0.068 A 
HETATM   19  C   UNL     1      -2.395   4.267 -32.085  1.00  0.00     0.038 A 
HETATM   20  C   UNL     1      -3.611   3.808 -31.566  1.00  0.00     0.020 A 
BRANCH  18  21
HETATM   21  O   UNL     1      -0.856   6.138 -32.375  1.00  0.00    -0.351 OA
BRANCH  21  22
HETATM   22  C   UNL     1       0.089   6.617 -31.416  1.00  0.00     0.175 C 
BRANCH  22  23
HETATM   23  C   UNL     1       0.796   5.420 -30.780  1.00  0.00     0.022 C 
HETATM   24  C   UNL     1       0.598   5.352 -29.272  1.00  0.00     0.007 C 
ENDBRANCH  22  23
ENDBRANCH  21  22
ENDBRANCH  18  21
ENDBRANCH  12  15
ENDBRANCH   8  11
ENDBRANCH   1   7
BRANCH   3  25
HETATM   25  C   UNL     1      -8.263   0.715 -32.927  1.00  0.00     0.183 A 
HETATM   26  O   UNL     1      -6.919   0.843 -32.689  1.00  0.00    -0.288 OA
HETATM   27  C   UNL     1      -6.370  -0.291 -33.216  1.00  0.00     0.112 A 
HETATM   28  C   UNL     1      -7.401  -1.042 -33.750  1.00  0.00     0.094 A 
HETATM   29  C   UNL     1      -5.022  -0.650 -33.236  1.00  0.00    -0.025 A 
HETATM   30  N   UNL     1      -8.596  -0.394 -33.572  1.00  0.00    -0.221 NA
HETATM   31  C   UNL     1      -7.106  -2.265 -34.367  1.00  0.00     0.041 A 
HETATM   32  C   UNL     1      -5.765  -2.686 -34.420  1.00  0.00    -0.059 A 
HETATM   33  C   UNL     1      -4.751  -1.883 -33.863  1.00  0.00     0.016 A 
HETATM   34  C   UNL     1      -5.430  -3.989 -35.087  1.00  0.00     0.048 C 
HETATM   35  C   UNL     1      -3.923   0.181 -32.659  1.00  0.00     0.051 C 
ENDBRANCH   3  25
BRANCH   4  36
HETATM   36  O   UNL     1     -10.874   1.324 -34.126  1.00  0.00    -0.360 OA
HETATM   37  H   UNL     1     -10.173   0.740 -34.455  1.00  0.00     0.217 HD
ENDBRANCH   4  36
TORSDOF 8
ENDMDL
MODEL 9
REMARK VINA RESULT:      -8.4      3.451      7.265
REMARK  8 active torsions:
REMARK  status: ('A' for Active; 'I' for Inactive)
REMARK    1  A    between atoms: C_2  and  C_3 
REMARK    2  A    between atoms: C_3  and  O_4 
REMARK    3  A    between atoms: O_4  and  C_5 
REMARK    4  A    between atoms: C_8  and  C_9 
REMARK       I    between atoms: C_9  and  N_10 
REMARK    5  A    between atoms: N_10  and  C_11 
REMARK    6  A    between atoms: N_12  and  C_13 
REMARK    7  A    between atoms: C_15  and  C_16 
REMARK    8  A    between atoms: C_27  and  O_28 
ROOT
HETATM    1  C   UNL     1      -7.571   6.246 -30.281  1.00  0.00     0.035 A 
HETATM    2  C   UNL     1      -8.464   5.276 -30.758  1.00  0.00     0.048 A 
HETATM    3  C   UNL     1      -9.098   5.389 -32.011  1.00  0.00     0.052 A 
HETATM    4  C   UNL     1      -8.790   6.508 -32.797  1.00  0.00     0.080 A 
HETATM    5  C   UNL     1      -7.901   7.484 -32.332  1.00  0.00     0.040 A 
HETATM    6  C   UNL     1      -7.305   7.358 -31.073  1.00  0.00     0.032 A 
ENDROOT
BRANCH   1   7
HETATM    7  N   UNL     1      -7.082   6.064 -28.970  1.00  0.00    -0.333 N 
HETATM    8  C   UNL     1      -6.067   5.317 -28.490  1.00  0.00     0.179 C 
HETATM    9  S   UNL     1      -5.216   5.886 -27.163  1.00  0.00    -0.040 SA
HETATM   10  H   UNL     1      -7.402   6.762 -28.307  1.00  0.00     0.168 HD
BRANCH   8  11
HETATM   11  N   UNL     1      -5.705   4.111 -28.996  1.00  0.00    -0.299 N 
HETATM   12  C   UNL     1      -5.096   3.886 -30.226  1.00  0.00     0.257 C 
HETATM   13  O   UNL     1      -4.455   4.690 -30.889  1.00  0.00    -0.267 OA
HETATM   14  H   UNL     1      -6.395   3.411 -28.754  1.00  0.00     0.171 HD
BRANCH  12  15
HETATM   15  C   UNL     1      -5.311   2.515 -30.768  1.00  0.00     0.032 A 
HETATM   16  C   UNL     1      -4.622   2.143 -31.927  1.00  0.00     0.020 A 
HETATM   17  C   UNL     1      -4.869   0.900 -32.514  1.00  0.00     0.038 A 
HETATM   18  C   UNL     1      -5.774   0.013 -31.930  1.00  0.00     0.068 A 
HETATM   19  C   UNL     1      -6.447   0.372 -30.762  1.00  0.00     0.038 A 
HETATM   20  C   UNL     1      -6.216   1.623 -30.177  1.00  0.00     0.020 A 
BRANCH  18  21
HETATM   21  O   UNL     1      -5.997  -1.149 -32.616  1.00  0.00    -0.351 OA
BRANCH  21  22
HETATM   22  C   UNL     1      -5.533  -1.147 -33.968  1.00  0.00     0.175 C 
BRANCH  22  23
HETATM   23  C   UNL     1      -6.740  -1.210 -34.904  1.00  0.00     0.022 C 
HETATM   24  C   UNL     1      -7.153   0.159 -35.426  1.00  0.00     0.007 C 
ENDBRANCH  22  23
ENDBRANCH  21  22
ENDBRANCH  18  21
ENDBRANCH  12  15
ENDBRANCH   8  11
ENDBRANCH   1   7
BRANCH   3  25
HETATM   25  C   UNL     1     -10.043   4.336 -32.391  1.00  0.00     0.183 A 
HETATM   26  O   UNL     1      -9.588   3.044 -32.419  1.00  0.00    -0.288 OA
HETATM   27  C   UNL     1     -10.653   2.316 -32.867  1.00  0.00     0.112 A 
HETATM   28  C   UNL     1     -11.693   3.199 -33.094  1.00  0.00     0.094 A 
HETATM   29  C   UNL     1     -10.712   0.938 -33.076  1.00  0.00    -0.025 A 
HETATM   30  N   UNL     1     -11.296   4.478 -32.799  1.00  0.00    -0.221 NA
HETATM   31  C   UNL     1     -12.915   2.707 -33.570  1.00  0.00     0.041 A 
HETATM   32  C   UNL     1     -13.040   1.325 -33.802  1.00  0.00    -0.059 A 
HETATM   33  C   UNL     1     -11.950   0.468 -33.558  1.00  0.00     0.016 A 
HETATM   34  C   UNL     1     -14.339   0.783 -34.324  1.00  0.00     0.048 C 
HETATM   35  C   UNL     1      -9.572   0.003 -32.832  1.00  0.00     0.051 C 
ENDBRANCH   3  25
BRANCH   4  36
HETATM   36  O   UNL     1      -9.348   6.669 -34.035  1.00  0.00    -0.360 OA
HETATM   37  H   UNL     1      -8.860   6.138 -34.685  1.00  0.00     0.217 HD
ENDBRANCH   4  36
TORSDOF 8
ENDMDL
MODEL 10
REMARK VINA RESULT:      -8.3      3.353      5.422
REMARK  8 active torsions:
REMARK  status: ('A' for Active; 'I' for Inactive)
REMARK    1  A    between atoms: C_2  and  C_3 
REMARK    2  A    between atoms: C_3  and  O_4 
REMARK    3  A    between atoms: O_4  and  C_5 
REMARK    4  A    between atoms: C_8  and  C_9 
REMARK       I    between atoms: C_9  and  N_10 
REMARK    5  A    between atoms: N_10  and  C_11 
REMARK    6  A    between atoms: N_12  and  C_13 
REMARK    7  A    between atoms: C_15  and  C_16 
REMARK    8  A    between atoms: C_27  and  O_28 
ROOT
HETATM    1  C   UNL     1      -3.476   6.044 -32.163  1.00  0.00     0.035 A 
HETATM    2  C   UNL     1      -2.797   6.513 -31.029  1.00  0.00     0.048 A 
HETATM    3  C   UNL     1      -1.482   6.110 -30.720  1.00  0.00     0.052 A 
HETATM    4  C   UNL     1      -0.848   5.227 -31.604  1.00  0.00     0.080 A 
HETATM    5  C   UNL     1      -1.515   4.750 -32.738  1.00  0.00     0.040 A 
HETATM    6  C   UNL     1      -2.829   5.148 -33.008  1.00  0.00     0.032 A 
ENDROOT
BRANCH   1   7
HETATM    7  N   UNL     1      -4.821   6.445 -32.304  1.00  0.00    -0.333 N 
HETATM    8  C   UNL     1      -5.975   5.847 -31.942  1.00  0.00     0.179 C 
HETATM    9  S   UNL     1      -7.261   6.813 -31.472  1.00  0.00    -0.040 SA
HETATM   10  H   UNL     1      -4.942   7.430 -32.517  1.00  0.00     0.168 HD
BRANCH   8  11
HETATM   11  N   UNL     1      -6.174   4.504 -31.961  1.00  0.00    -0.299 N 
HETATM   12  C   UNL     1      -5.870   3.615 -30.935  1.00  0.00     0.257 C 
HETATM   13  O   UNL     1      -5.733   3.877 -29.749  1.00  0.00    -0.267 OA
HETATM   14  H   UNL     1      -5.979   4.138 -32.884  1.00  0.00     0.171 HD
BRANCH  12  15
HETATM   15  C   UNL     1      -5.660   2.212 -31.392  1.00  0.00     0.032 A 
HETATM   16  C   UNL     1      -4.979   1.332 -30.545  1.00  0.00     0.020 A 
HETATM   17  C   UNL     1      -4.684   0.038 -30.978  1.00  0.00     0.038 A 
HETATM   18  C   UNL     1      -5.098  -0.394 -32.239  1.00  0.00     0.068 A 
HETATM   19  C   UNL     1      -5.796   0.474 -33.078  1.00  0.00     0.038 A 
HETATM   20  C   UNL     1      -6.082   1.778 -32.656  1.00  0.00     0.020 A 
BRANCH  18  21
HETATM   21  O   UNL     1      -4.703  -1.653 -32.597  1.00  0.00    -0.351 OA
BRANCH  21  22
HETATM   22  C   UNL     1      -4.419  -1.821 -33.987  1.00  0.00     0.175 C 
BRANCH  22  23
HETATM   23  C   UNL     1      -5.133  -3.077 -34.488  1.00  0.00     0.022 C 
HETATM   24  C   UNL     1      -6.627  -2.866 -34.687  1.00  0.00     0.007 C 
ENDBRANCH  22  23
ENDBRANCH  21  22
ENDBRANCH  18  21
ENDBRANCH  12  15
ENDBRANCH   8  11
ENDBRANCH   1   7
BRANCH   3  25
HETATM   25  C   UNL     1      -0.884   6.632 -29.489  1.00  0.00     0.183 A 
HETATM   26  O   UNL     1      -1.667   7.411 -28.675  1.00  0.00    -0.288 OA
HETATM   27  C   UNL     1      -0.830   7.797 -27.667  1.00  0.00     0.112 A 
HETATM   28  C   UNL     1       0.411   7.244 -27.922  1.00  0.00     0.094 A 
HETATM   29  C   UNL     1      -1.137   8.607 -26.573  1.00  0.00    -0.025 A 
HETATM   30  N   UNL     1       0.371   6.515 -29.083  1.00  0.00    -0.221 NA
HETATM   31  C   UNL     1       1.466   7.494 -27.034  1.00  0.00     0.041 A 
HETATM   32  C   UNL     1       1.222   8.304 -25.910  1.00  0.00    -0.059 A 
HETATM   33  C   UNL     1      -0.060   8.846 -25.696  1.00  0.00     0.016 A 
HETATM   34  C   UNL     1       2.344   8.592 -24.955  1.00  0.00     0.048 C 
HETATM   35  C   UNL     1      -2.485   9.202 -26.321  1.00  0.00     0.051 C 
ENDBRANCH   3  25
BRANCH   4  36
HETATM   36  O   UNL     1       0.436   4.815 -31.380  1.00  0.00    -0.360 OA
HETATM   37  H   UNL     1       0.785   5.250 -30.586  1.00  0.00     0.217 HD
ENDBRANCH   4  36
TORSDOF 8
ENDMDL
