MODEL 1
REMARK VINA RESULT:      -9.2      0.000      0.000
REMARK  4 active torsions:
REMARK  status: ('A' for Active; 'I' for Inactive)
REMARK    1  A    between atoms: C_2  and  O_3 
REMARK    2  A    between atoms: O_3  and  C_4 
REMARK    3  A    between atoms: C_9  and  N_10 
REMARK       I    between atoms: N_10  and  C_11 
REMARK       I    between atoms: C_11  and  N_12 
REMARK       I    between atoms: N_12  and  C_13 
REMARK    4  A    between atoms: C_13  and  C_14 
ROOT
HETATM    1  N   UNL     1      -2.884   3.106 -31.252  1.00  0.00    -0.019 N 
HETATM    2  C   UNL     1      -2.146   4.216 -31.640  1.00  0.00     0.693 C 
HETATM    3  N   UNL     1      -1.673   5.084 -30.696  1.00  0.00    -0.155 N 
HETATM    4  C   UNL     1      -0.964   6.285 -30.982  1.00  0.00     0.269 C 
HETATM    5  O   UNL     1      -0.544   6.497 -32.110  1.00  0.00    -0.267 OA
HETATM    6  N   UNL     1      -1.935   4.463 -32.952  1.00  0.00    -0.234 N 
HETATM    7  H   UNL     1      -2.379   3.853 -33.641  1.00  0.00     0.174 HD
HETATM    8  H   UNL     1      -1.371   5.253 -33.265  1.00  0.00     0.174 HD
HETATM    9  H   UNL     1      -3.012   2.889 -30.277  1.00  0.00     0.203 HD
HETATM   10  H   UNL     1      -1.872   4.869 -29.731  1.00  0.00     0.187 HD
ENDROOT
BRANCH   1  11
HETATM   11  C   UNL     1      -3.730   2.343 -32.038  1.00  0.00     0.742 A 
HETATM   12  N   UNL     1      -3.353   1.086 -32.270  1.00  0.00    -0.062 NA
HETATM   13  C   UNL     1      -4.212   0.285 -32.915  1.00  0.00     0.088 A 
HETATM   14  C   UNL     1      -5.479   0.713 -33.331  1.00  0.00     0.021 A 
HETATM   15  C   UNL     1      -3.850  -1.034 -33.167  1.00  0.00     0.036 A 
HETATM   16  C   UNL     1      -6.362  -0.202 -33.951  1.00  0.00     0.052 A 
HETATM   17  C   UNL     1      -5.765   2.056 -33.068  1.00  0.00     0.062 A 
HETATM   18  C   UNL     1      -5.997  -1.532 -34.149  1.00  0.00     0.069 A 
HETATM   19  C   UNL     1      -4.724  -1.942 -33.780  1.00  0.00     0.039 A 
HETATM   20  N   UNL     1      -4.894   2.876 -32.432  1.00  0.00    -0.066 NA
HETATM   21  C   UNL     1      -7.084   2.672 -33.440  1.00  0.00     0.072 C 
BRANCH  18  22
HETATM   22  O   UNL     1      -6.963  -2.315 -34.710  1.00  0.00    -0.351 OA
BRANCH  22  23
HETATM   23  C   UNL     1      -6.986  -3.689 -34.321  1.00  0.00     0.171 C 
HETATM   24  C   UNL     1      -6.515  -4.517 -35.503  1.00  0.00     0.034 C 
ENDBRANCH  22  23
ENDBRANCH  18  22
ENDBRANCH   1  11
BRANCH   4  25
HETATM   25  C   UNL     1      -0.808   7.264 -29.882  1.00  0.00     0.032 A 
HETATM   26  C   UNL     1      -1.794   8.222 -29.613  1.00  0.00     0.017 A 
HETATM   27  C   UNL     1      -1.572   9.187 -28.626  1.00  0.00     0.007 A 
HETATM   28  C   UNL     1      -0.372   9.207 -27.906  1.00  0.00    -0.062 A 
HETATM   29  C   UNL     1      -0.107  10.272 -26.880  1.00  0.00     0.048 C 
HETATM   30  C   UNL     1       0.608   8.247 -28.182  1.00  0.00     0.007 A 
HETATM   31  C   UNL     1       0.396   7.282 -29.168  1.00  0.00     0.017 A 
ENDBRANCH   4  25
TORSDOF 4
ENDMDL
MODEL 2
REMARK VINA RESULT:      -9.1      1.138      2.206
REMARK  4 active torsions:
REMARK  status: ('A' for Active; 'I' for Inactive)
REMARK    1  A    between atoms: C_2  and  O_3 
REMARK    2  A    between atoms: O_3  and  C_4 
REMARK    3  A    between atoms: C_9  and  N_10 
REMARK       I    between atoms: N_10  and  C_11 
REMARK       I    between atoms: C_11  and  N_12 
REMARK       I    between atoms: N_12  and  C_13 
REMARK    4  A    between atoms: C_13  and  C_14 
ROOT
HETATM    1  N   UNL     1      -2.933   3.045 -30.945  1.00  0.00    -0.019 N 
HETATM    2  C   UNL     1      -2.461   4.160 -31.624  1.00  0.00     0.693 C 
HETATM    3  N   UNL     1      -2.251   5.330 -30.951  1.00  0.00    -0.155 N 
HETATM    4  C   UNL     1      -1.833   6.550 -31.556  1.00  0.00     0.269 C 
HETATM    5  O   UNL     1      -1.423   6.556 -32.709  1.00  0.00    -0.267 OA
HETATM    6  N   UNL     1      -2.254   4.101 -32.960  1.00  0.00    -0.234 N 
HETATM    7  H   UNL     1      -2.509   3.244 -33.455  1.00  0.00     0.174 HD
HETATM    8  H   UNL     1      -1.879   4.894 -33.479  1.00  0.00     0.174 HD
HETATM    9  H   UNL     1      -3.051   3.066 -29.945  1.00  0.00     0.203 HD
HETATM   10  H   UNL     1      -2.437   5.333 -29.961  1.00  0.00     0.187 HD
ENDROOT
BRANCH   1  11
HETATM   11  C   UNL     1      -3.538   1.924 -31.486  1.00  0.00     0.742 A 
HETATM   12  N   UNL     1      -4.613   2.137 -32.243  1.00  0.00    -0.062 NA
HETATM   13  C   UNL     1      -5.142   1.087 -32.887  1.00  0.00     0.088 A 
HETATM   14  C   UNL     1      -4.599  -0.201 -32.806  1.00  0.00     0.021 A 
HETATM   15  C   UNL     1      -6.262   1.278 -33.689  1.00  0.00     0.036 A 
HETATM   16  C   UNL     1      -5.169  -1.252 -33.561  1.00  0.00     0.052 A 
HETATM   17  C   UNL     1      -3.492  -0.324 -31.961  1.00  0.00     0.062 A 
HETATM   18  C   UNL     1      -6.261  -1.028 -34.398  1.00  0.00     0.069 A 
HETATM   19  C   UNL     1      -6.826   0.239 -34.440  1.00  0.00     0.039 A 
HETATM   20  N   UNL     1      -2.964   0.729 -31.294  1.00  0.00    -0.066 NA
HETATM   21  C   UNL     1      -2.785  -1.637 -31.770  1.00  0.00     0.072 C 
BRANCH  18  22
HETATM   22  O   UNL     1      -6.676  -2.118 -35.106  1.00  0.00    -0.351 OA
BRANCH  22  23
HETATM   23  C   UNL     1      -5.793  -3.240 -35.137  1.00  0.00     0.171 C 
HETATM   24  C   UNL     1      -6.638  -4.500 -35.081  1.00  0.00     0.034 C 
ENDBRANCH  22  23
ENDBRANCH  18  22
ENDBRANCH   1  11
BRANCH   4  25
HETATM   25  C   UNL     1      -1.963   7.789 -30.757  1.00  0.00     0.032 A 
HETATM   26  C   UNL     1      -2.544   8.946 -31.293  1.00  0.00     0.017 A 
HETATM   27  C   UNL     1      -2.568  10.123 -30.538  1.00  0.00     0.007 A 
HETATM   28  C   UNL     1      -2.015  10.157 -29.253  1.00  0.00    -0.062 A 
HETATM   29  C   UNL     1      -1.992  11.432 -28.458  1.00  0.00     0.048 C 
HETATM   30  C   UNL     1      -1.436   8.997 -28.726  1.00  0.00     0.007 A 
HETATM   31  C   UNL     1      -1.405   7.819 -29.473  1.00  0.00     0.017 A 
ENDBRANCH   4  25
TORSDOF 4
ENDMDL
MODEL 3
REMARK VINA RESULT:      -9.0      1.879      2.530
REMARK  4 active torsions:
REMARK  status: ('A' for Active; 'I' for Inactive)
REMARK    1  A    between atoms: C_2  and  O_3 
REMARK    2  A    between atoms: O_3  and  C_4 
REMARK    3  A    between atoms: C_9  and  N_10 
REMARK       I    between atoms: N_10  and  C_11 
REMARK       I    between atoms: C_11  and  N_12 
REMARK       I    between atoms: N_12  and  C_13 
REMARK    4  A    between atoms: C_13  and  C_14 
ROOT
HETATM    1  N   UNL     1      -2.440   3.621 -31.209  1.00  0.00    -0.019 N 
HETATM    2  C   UNL     1      -1.638   4.747 -31.348  1.00  0.00     0.693 C 
HETATM    3  N   UNL     1      -0.879   5.176 -30.296  1.00  0.00    -0.155 N 
HETATM    4  C   UNL     1      -0.073   6.351 -30.305  1.00  0.00     0.269 C 
HETATM    5  O   UNL     1       0.153   6.934 -31.355  1.00  0.00    -0.267 OA
HETATM    6  N   UNL     1      -1.645   5.443 -32.507  1.00  0.00    -0.234 N 
HETATM    7  H   UNL     1      -2.293   5.157 -33.244  1.00  0.00     0.174 HD
HETATM    8  H   UNL     1      -1.044   6.255 -32.648  1.00  0.00     0.174 HD
HETATM    9  H   UNL     1      -2.412   3.072 -30.366  1.00  0.00     0.203 HD
HETATM   10  H   UNL     1      -0.921   4.637 -29.446  1.00  0.00     0.187 HD
ENDROOT
BRANCH   1  11
HETATM   11  C   UNL     1      -3.518   3.255 -31.996  1.00  0.00     0.742 A 
HETATM   12  N   UNL     1      -3.742   1.949 -32.126  1.00  0.00    -0.062 NA
HETATM   13  C   UNL     1      -4.853   1.566 -32.771  1.00  0.00     0.088 A 
HETATM   14  C   UNL     1      -5.779   2.479 -33.289  1.00  0.00     0.021 A 
HETATM   15  C   UNL     1      -5.118   0.208 -32.918  1.00  0.00     0.036 A 
HETATM   16  C   UNL     1      -6.963   2.008 -33.904  1.00  0.00     0.052 A 
HETATM   17  C   UNL     1      -5.435   3.825 -33.129  1.00  0.00     0.062 A 
HETATM   18  C   UNL     1      -7.232   0.644 -33.995  1.00  0.00     0.069 A 
HETATM   19  C   UNL     1      -6.290  -0.261 -33.524  1.00  0.00     0.039 A 
HETATM   20  N   UNL     1      -4.305   4.218 -32.494  1.00  0.00    -0.066 NA
HETATM   21  C   UNL     1      -6.325   4.933 -33.619  1.00  0.00     0.072 C 
BRANCH  18  22
HETATM   22  O   UNL     1      -8.432   0.332 -34.565  1.00  0.00    -0.351 OA
BRANCH  22  23
HETATM   23  C   UNL     1      -9.548   1.145 -34.200  1.00  0.00     0.171 C 
HETATM   24  C   UNL     1     -10.336   0.404 -33.134  1.00  0.00     0.034 C 
ENDBRANCH  22  23
ENDBRANCH  18  22
ENDBRANCH   1  11
BRANCH   4  25
HETATM   25  C   UNL     1       0.423   6.847 -29.001  1.00  0.00     0.032 A 
HETATM   26  C   UNL     1       0.129   6.179 -27.806  1.00  0.00     0.017 A 
HETATM   27  C   UNL     1       0.538   6.727 -26.586  1.00  0.00     0.007 A 
HETATM   28  C   UNL     1       1.238   7.938 -26.549  1.00  0.00    -0.062 A 
HETATM   29  C   UNL     1       1.636   8.558 -25.239  1.00  0.00     0.048 C 
HETATM   30  C   UNL     1       1.527   8.600 -27.747  1.00  0.00     0.007 A 
HETATM   31  C   UNL     1       1.119   8.061 -28.969  1.00  0.00     0.017 A 
ENDBRANCH   4  25
TORSDOF 4
ENDMDL
MODEL 4
REMARK VINA RESULT:      -8.9      5.935      9.998
REMARK  4 active torsions:
REMARK  status: ('A' for Active; 'I' for Inactive)
REMARK    1  A    between atoms: C_2  and  O_3 
REMARK    2  A    between atoms: O_3  and  C_4 
REMARK    3  A    between atoms: C_9  and  N_10 
REMARK       I    between atoms: N_10  and  C_11 
REMARK       I    between atoms: C_11  and  N_12 
REMARK       I    between atoms: N_12  and  C_13 
REMARK    4  A    between atoms: C_13  and  C_14 
ROOT
HETATM    1  N   UNL     1      -9.517   1.650 -31.759  1.00  0.00    -0.019 N 
HETATM    2  C   UNL     1     -10.384   2.162 -32.715  1.00  0.00     0.693 C 
HETATM    3  N   UNL     1     -11.633   2.578 -32.349  1.00  0.00    -0.155 N 
HETATM    4  C   UNL     1     -12.625   3.058 -33.252  1.00  0.00     0.269 C 
HETATM    5  O   UNL     1     -12.325   3.330 -34.406  1.00  0.00    -0.267 OA
HETATM    6  N   UNL     1     -10.009   2.207 -34.013  1.00  0.00    -0.234 N 
HETATM    7  H   UNL     1      -9.108   1.802 -34.275  1.00  0.00     0.174 HD
HETATM    8  H   UNL     1     -10.612   2.606 -34.732  1.00  0.00     0.174 HD
HETATM    9  H   UNL     1      -9.770   1.650 -30.784  1.00  0.00     0.203 HD
HETATM   10  H   UNL     1     -11.876   2.508 -31.374  1.00  0.00     0.187 HD
ENDROOT
BRANCH   1  11
HETATM   11  C   UNL     1      -8.398   0.865 -31.974  1.00  0.00     0.742 A 
HETATM   12  N   UNL     1      -8.503  -0.075 -32.912  1.00  0.00    -0.062 NA
HETATM   13  C   UNL     1      -7.398  -0.763 -33.235  1.00  0.00     0.088 A 
HETATM   14  C   UNL     1      -6.155  -0.516 -32.641  1.00  0.00     0.021 A 
HETATM   15  C   UNL     1      -7.475  -1.747 -34.214  1.00  0.00     0.036 A 
HETATM   16  C   UNL     1      -5.015  -1.235 -33.074  1.00  0.00     0.052 A 
HETATM   17  C   UNL     1      -6.157   0.468 -31.648  1.00  0.00     0.062 A 
HETATM   18  C   UNL     1      -5.105  -2.182 -34.091  1.00  0.00     0.069 A 
HETATM   19  C   UNL     1      -6.347  -2.459 -34.645  1.00  0.00     0.039 A 
HETATM   20  N   UNL     1      -7.274   1.153 -31.304  1.00  0.00    -0.066 NA
HETATM   21  C   UNL     1      -4.903   0.860 -30.919  1.00  0.00     0.072 C 
BRANCH  18  22
HETATM   22  O   UNL     1      -3.921  -2.761 -34.443  1.00  0.00    -0.351 OA
BRANCH  22  23
HETATM   23  C   UNL     1      -3.850  -4.186 -34.358  1.00  0.00     0.171 C 
HETATM   24  C   UNL     1      -3.365  -4.547 -32.965  1.00  0.00     0.034 C 
ENDBRANCH  22  23
ENDBRANCH  18  22
ENDBRANCH   1  11
BRANCH   4  25
HETATM   25  C   UNL     1     -14.014   3.159 -32.750  1.00  0.00     0.032 A 
HETATM   26  C   UNL     1     -14.870   2.050 -32.742  1.00  0.00     0.017 A 
HETATM   27  C   UNL     1     -16.202   2.205 -32.346  1.00  0.00     0.007 A 
HETATM   28  C   UNL     1     -16.688   3.459 -31.959  1.00  0.00    -0.062 A 
HETATM   29  C   UNL     1     -18.131   3.642 -31.581  1.00  0.00     0.048 C 
HETATM   30  C   UNL     1     -15.827   4.561 -31.971  1.00  0.00     0.007 A 
HETATM   31  C   UNL     1     -14.497   4.416 -32.368  1.00  0.00     0.017 A 
ENDBRANCH   4  25
TORSDOF 4
ENDMDL
MODEL 5
REMARK VINA RESULT:      -8.8      1.376      2.411
REMARK  4 active torsions:
REMARK  status: ('A' for Active; 'I' for Inactive)
REMARK    1  A    between atoms: C_2  and  O_3 
REMARK    2  A    between atoms: O_3  and  C_4 
REMARK    3  A    between atoms: C_9  and  N_10 
REMARK       I    between atoms: N_10  and  C_11 
REMARK       I    between atoms: C_11  and  N_12 
REMARK       I    between atoms: N_12  and  C_13 
REMARK    4  A    between atoms: C_13  and  C_14 
ROOT
HETATM    1  N   UNL     1      -2.965   3.703 -31.937  1.00  0.00    -0.019 N 
HETATM    2  C   UNL     1      -3.341   4.690 -31.035  1.00  0.00     0.693 C 
HETATM    3  N   UNL     1      -2.428   5.617 -30.620  1.00  0.00    -0.155 N 
HETATM    4  C   UNL     1      -2.684   6.631 -29.652  1.00  0.00     0.269 C 
HETATM    5  O   UNL     1      -3.830   6.861 -29.292  1.00  0.00    -0.267 OA
HETATM    6  N   UNL     1      -4.597   4.705 -30.534  1.00  0.00    -0.234 N 
HETATM    7  H   UNL     1      -5.232   3.945 -30.787  1.00  0.00     0.174 HD
HETATM    8  H   UNL     1      -4.910   5.435 -29.895  1.00  0.00     0.174 HD
HETATM    9  H   UNL     1      -2.046   3.707 -32.347  1.00  0.00     0.203 HD
HETATM   10  H   UNL     1      -1.499   5.555 -31.005  1.00  0.00     0.187 HD
ENDROOT
BRANCH   1  11
HETATM   11  C   UNL     1      -3.607   2.503 -32.185  1.00  0.00     0.742 A 
HETATM   12  N   UNL     1      -4.724   2.566 -32.909  1.00  0.00    -0.062 NA
HETATM   13  C   UNL     1      -5.296   1.410 -33.278  1.00  0.00     0.088 A 
HETATM   14  C   UNL     1      -4.757   0.161 -32.947  1.00  0.00     0.021 A 
HETATM   15  C   UNL     1      -6.460   1.443 -34.038  1.00  0.00     0.036 A 
HETATM   16  C   UNL     1      -5.377  -1.019 -33.422  1.00  0.00     0.052 A 
HETATM   17  C   UNL     1      -3.603   0.204 -32.160  1.00  0.00     0.062 A 
HETATM   18  C   UNL     1      -6.514  -0.962 -34.225  1.00  0.00     0.069 A 
HETATM   19  C   UNL     1      -7.074   0.276 -34.511  1.00  0.00     0.039 A 
HETATM   20  N   UNL     1      -3.031   1.368 -31.769  1.00  0.00    -0.066 NA
HETATM   21  C   UNL     1      -2.894  -1.048 -31.727  1.00  0.00     0.072 C 
BRANCH  18  22
HETATM   22  O   UNL     1      -6.976  -2.171 -34.653  1.00  0.00    -0.351 OA
BRANCH  22  23
HETATM   23  C   UNL     1      -5.995  -3.152 -34.995  1.00  0.00     0.171 C 
HETATM   24  C   UNL     1      -6.690  -4.499 -35.076  1.00  0.00     0.034 C 
ENDBRANCH  22  23
ENDBRANCH  18  22
ENDBRANCH   1  11
BRANCH   4  25
HETATM   25  C   UNL     1      -1.517   7.339 -29.080  1.00  0.00     0.032 A 
HETATM   26  C   UNL     1      -0.238   6.768 -29.093  1.00  0.00     0.017 A 
HETATM   27  C   UNL     1       0.822   7.427 -28.463  1.00  0.00     0.007 A 
HETATM   28  C   UNL     1       0.617   8.651 -27.816  1.00  0.00    -0.062 A 
HETATM   29  C   UNL     1       1.741   9.338 -27.094  1.00  0.00     0.048 C 
HETATM   30  C   UNL     1      -0.664   9.214 -27.806  1.00  0.00     0.007 A 
HETATM   31  C   UNL     1      -1.729   8.561 -28.430  1.00  0.00     0.017 A 
ENDBRANCH   4  25
TORSDOF 4
ENDMDL
MODEL 6
REMARK VINA RESULT:      -8.7      2.421      3.522
REMARK  4 active torsions:
REMARK  status: ('A' for Active; 'I' for Inactive)
REMARK    1  A    between atoms: C_2  and  O_3 
REMARK    2  A    between atoms: O_3  and  C_4 
REMARK    3  A    between atoms: C_9  and  N_10 
REMARK       I    between atoms: N_10  and  C_11 
REMARK       I    between atoms: C_11  and  N_12 
REMARK       I    between atoms: N_12  and  C_13 
REMARK    4  A    between atoms: C_13  and  C_14 
ROOT
HETATM    1  N   UNL     1      -3.768   2.173 -31.316  1.00  0.00    -0.019 N 
HETATM    2  C   UNL     1      -3.296   3.391 -31.788  1.00  0.00     0.693 C 
HETATM    3  N   UNL     1      -2.349   4.076 -31.080  1.00  0.00    -0.155 N 
HETATM    4  C   UNL     1      -1.842   5.359 -31.434  1.00  0.00     0.269 C 
HETATM    5  O   UNL     1      -2.081   5.831 -32.536  1.00  0.00    -0.267 OA
HETATM    6  N   UNL     1      -3.807   3.920 -32.923  1.00  0.00    -0.234 N 
HETATM    7  H   UNL     1      -4.581   3.436 -33.382  1.00  0.00     0.174 HD
HETATM    8  H   UNL     1      -3.458   4.797 -33.309  1.00  0.00     0.174 HD
HETATM    9  H   UNL     1      -3.366   1.750 -30.496  1.00  0.00     0.203 HD
HETATM   10  H   UNL     1      -2.012   3.651 -30.230  1.00  0.00     0.187 HD
ENDROOT
BRANCH   1  11
HETATM   11  C   UNL     1      -4.940   1.531 -31.674  1.00  0.00     0.742 A 
HETATM   12  N   UNL     1      -6.076   2.173 -31.404  1.00  0.00    -0.062 NA
HETATM   13  C   UNL     1      -7.219   1.638 -31.855  1.00  0.00     0.088 A 
HETATM   14  C   UNL     1      -7.257   0.456 -32.604  1.00  0.00     0.021 A 
HETATM   15  C   UNL     1      -8.420   2.288 -31.594  1.00  0.00     0.036 A 
HETATM   16  C   UNL     1      -8.492  -0.020 -33.104  1.00  0.00     0.052 A 
HETATM   17  C   UNL     1      -6.016  -0.156 -32.805  1.00  0.00     0.062 A 
HETATM   18  C   UNL     1      -9.678   0.674 -32.872  1.00  0.00     0.069 A 
HETATM   19  C   UNL     1      -9.644   1.820 -32.089  1.00  0.00     0.039 A 
HETATM   20  N   UNL     1      -4.860   0.369 -32.336  1.00  0.00    -0.066 NA
HETATM   21  C   UNL     1      -5.881  -1.427 -33.596  1.00  0.00     0.072 C 
BRANCH  18  22
HETATM   22  O   UNL     1     -10.785   0.130 -33.455  1.00  0.00    -0.351 OA
BRANCH  22  23
HETATM   23  C   UNL     1     -11.924   0.981 -33.593  1.00  0.00     0.171 C 
HETATM   24  C   UNL     1     -13.157   0.099 -33.678  1.00  0.00     0.034 C 
ENDBRANCH  22  23
ENDBRANCH  18  22
ENDBRANCH   1  11
BRANCH   4  25
HETATM   25  C   UNL     1      -1.074   6.096 -30.406  1.00  0.00     0.032 A 
HETATM   26  C   UNL     1      -1.355   7.435 -30.106  1.00  0.00     0.017 A 
HETATM   27  C   UNL     1      -0.550   8.126 -29.195  1.00  0.00     0.007 A 
HETATM   28  C   UNL     1       0.537   7.492 -28.582  1.00  0.00    -0.062 A 
HETATM   29  C   UNL     1       1.436   8.243 -27.641  1.00  0.00     0.048 C 
HETATM   30  C   UNL     1       0.812   6.155 -28.888  1.00  0.00     0.007 A 
HETATM   31  C   UNL     1       0.015   5.459 -29.799  1.00  0.00     0.017 A 
ENDBRANCH   4  25
TORSDOF 4
ENDMDL
MODEL 7
REMARK VINA RESULT:      -8.7      2.135     10.284
REMARK  4 active torsions:
REMARK  status: ('A' for Active; 'I' for Inactive)
REMARK    1  A    between atoms: C_2  and  O_3 
REMARK    2  A    between atoms: O_3  and  C_4 
REMARK    3  A    between atoms: C_9  and  N_10 
REMARK       I    between atoms: N_10  and  C_11 
REMARK       I    between atoms: C_11  and  N_12 
REMARK       I    between atoms: N_12  and  C_13 
REMARK    4  A    between atoms: C_13  and  C_14 
ROOT
HETATM    1  N   UNL     1      -2.583   3.135 -32.290  1.00  0.00    -0.019 N 
HETATM    2  C   UNL     1      -3.596   2.337 -31.775  1.00  0.00     0.693 C 
HETATM    3  N   UNL     1      -3.906   1.153 -32.381  1.00  0.00    -0.155 N 
HETATM    4  C   UNL     1      -4.965   0.290 -31.980  1.00  0.00     0.269 C 
HETATM    5  O   UNL     1      -5.531   0.466 -30.910  1.00  0.00    -0.267 OA
HETATM    6  N   UNL     1      -4.305   2.755 -30.702  1.00  0.00    -0.234 N 
HETATM    7  H   UNL     1      -4.118   3.686 -30.326  1.00  0.00     0.174 HD
HETATM    8  H   UNL     1      -5.034   2.177 -30.283  1.00  0.00     0.174 HD
HETATM    9  H   UNL     1      -2.021   2.816 -33.063  1.00  0.00     0.203 HD
HETATM   10  H   UNL     1      -3.363   0.892 -33.189  1.00  0.00     0.187 HD
ENDROOT
BRANCH   1  11
HETATM   11  C   UNL     1      -2.373   4.483 -32.056  1.00  0.00     0.742 A 
HETATM   12  N   UNL     1      -3.459   5.250 -31.988  1.00  0.00    -0.062 NA
HETATM   13  C   UNL     1      -3.298   6.533 -31.633  1.00  0.00     0.088 A 
HETATM   14  C   UNL     1      -2.048   7.078 -31.319  1.00  0.00     0.021 A 
HETATM   15  C   UNL     1      -4.415   7.357 -31.548  1.00  0.00     0.036 A 
HETATM   16  C   UNL     1      -1.956   8.423 -30.891  1.00  0.00     0.052 A 
HETATM   17  C   UNL     1      -0.969   6.199 -31.452  1.00  0.00     0.062 A 
HETATM   18  C   UNL     1      -3.094   9.218 -30.764  1.00  0.00     0.069 A 
HETATM   19  C   UNL     1      -4.326   8.689 -31.122  1.00  0.00     0.039 A 
HETATM   20  N   UNL     1      -1.123   4.908 -31.828  1.00  0.00    -0.066 NA
HETATM   21  C   UNL     1       0.440   6.624 -31.144  1.00  0.00     0.072 C 
BRANCH  18  22
HETATM   22  O   UNL     1      -2.865  10.477 -30.292  1.00  0.00    -0.351 OA
BRANCH  22  23
HETATM   23  C   UNL     1      -2.160  10.584 -29.055  1.00  0.00     0.171 C 
HETATM   24  C   UNL     1      -3.176  10.503 -27.930  1.00  0.00     0.034 C 
ENDBRANCH  22  23
ENDBRANCH  18  22
ENDBRANCH   1  11
BRANCH   4  25
HETATM   25  C   UNL     1      -5.372  -0.776 -32.923  1.00  0.00     0.032 A 
HETATM   26  C   UNL     1      -6.710  -0.944 -33.302  1.00  0.00     0.017 A 
HETATM   27  C   UNL     1      -7.069  -2.018 -34.123  1.00  0.00     0.007 A 
HETATM   28  C   UNL     1      -6.103  -2.927 -34.568  1.00  0.00    -0.062 A 
HETATM   29  C   UNL     1      -6.490  -4.111 -35.409  1.00  0.00     0.048 C 
HETATM   30  C   UNL     1      -4.769  -2.753 -34.185  1.00  0.00     0.007 A 
HETATM   31  C   UNL     1      -4.403  -1.686 -33.363  1.00  0.00     0.017 A 
ENDBRANCH   4  25
TORSDOF 4
ENDMDL
MODEL 8
REMARK VINA RESULT:      -8.5      7.156     10.799
REMARK  4 active torsions:
REMARK  status: ('A' for Active; 'I' for Inactive)
REMARK    1  A    between atoms: C_2  and  O_3 
REMARK    2  A    between atoms: O_3  and  C_4 
REMARK    3  A    between atoms: C_9  and  N_10 
REMARK       I    between atoms: N_10  and  C_11 
REMARK       I    between atoms: C_11  and  N_12 
REMARK       I    between atoms: N_12  and  C_13 
REMARK    4  A    between atoms: C_13  and  C_14 
ROOT
HETATM    1  N   UNL     1     -10.121   1.514 -34.757  1.00  0.00    -0.019 N 
HETATM    2  C   UNL     1      -8.823   1.481 -34.266  1.00  0.00     0.693 C 
HETATM    3  N   UNL     1      -8.013   0.418 -34.550  1.00  0.00    -0.155 N 
HETATM    4  C   UNL     1      -6.691   0.248 -34.048  1.00  0.00     0.269 C 
HETATM    5  O   UNL     1      -6.120   1.176 -33.493  1.00  0.00    -0.267 OA
HETATM    6  N   UNL     1      -8.375   2.478 -33.469  1.00  0.00    -0.234 N 
HETATM    7  H   UNL     1      -9.030   3.213 -33.194  1.00  0.00     0.174 HD
HETATM    8  H   UNL     1      -7.417   2.496 -33.120  1.00  0.00     0.174 HD
HETATM    9  H   UNL     1     -10.451   0.798 -35.383  1.00  0.00     0.203 HD
HETATM   10  H   UNL     1      -8.396  -0.311 -35.131  1.00  0.00     0.187 HD
ENDROOT
BRANCH   1  11
HETATM   11  C   UNL     1     -11.174   2.285 -34.297  1.00  0.00     0.742 A 
HETATM   12  N   UNL     1     -12.274   1.630 -33.931  1.00  0.00    -0.062 NA
HETATM   13  C   UNL     1     -13.261   2.336 -33.359  1.00  0.00     0.088 A 
HETATM   14  C   UNL     1     -13.167   3.712 -33.122  1.00  0.00     0.021 A 
HETATM   15  C   UNL     1     -14.420   1.679 -32.961  1.00  0.00     0.036 A 
HETATM   16  C   UNL     1     -14.219   4.384 -32.457  1.00  0.00     0.052 A 
HETATM   17  C   UNL     1     -11.985   4.310 -33.571  1.00  0.00     0.062 A 
HETATM   18  C   UNL     1     -15.350   3.697 -32.021  1.00  0.00     0.069 A 
HETATM   19  C   UNL     1     -15.463   2.342 -32.300  1.00  0.00     0.039 A 
HETATM   20  N   UNL     1     -10.993   3.606 -34.166  1.00  0.00    -0.066 NA
HETATM   21  C   UNL     1     -11.722   5.778 -33.386  1.00  0.00     0.072 C 
BRANCH  18  22
HETATM   22  O   UNL     1     -16.262   4.459 -31.350  1.00  0.00    -0.351 OA
BRANCH  22  23
HETATM   23  C   UNL     1     -17.371   4.950 -32.104  1.00  0.00     0.171 C 
HETATM   24  C   UNL     1     -18.627   4.280 -31.576  1.00  0.00     0.034 C 
ENDBRANCH  22  23
ENDBRANCH  18  22
ENDBRANCH   1  11
BRANCH   4  25
HETATM   25  C   UNL     1      -6.077  -1.092 -34.182  1.00  0.00     0.032 A 
HETATM   26  C   UNL     1      -6.791  -2.173 -34.716  1.00  0.00     0.017 A 
HETATM   27  C   UNL     1      -6.209  -3.444 -34.743  1.00  0.00     0.007 A 
HETATM   28  C   UNL     1      -4.920  -3.647 -34.240  1.00  0.00    -0.062 A 
HETATM   29  C   UNL     1      -4.308  -5.020 -34.219  1.00  0.00     0.048 C 
HETATM   30  C   UNL     1      -4.213  -2.563 -33.707  1.00  0.00     0.007 A 
HETATM   31  C   UNL     1      -4.788  -1.292 -33.673  1.00  0.00     0.017 A 
ENDBRANCH   4  25
TORSDOF 4
ENDMDL
MODEL 9
REMARK VINA RESULT:      -8.2      2.532     10.251
REMARK  4 active torsions:
REMARK  status: ('A' for Active; 'I' for Inactive)
REMARK    1  A    between atoms: C_2  and  O_3 
REMARK    2  A    between atoms: O_3  and  C_4 
REMARK    3  A    between atoms: C_9  and  N_10 
REMARK       I    between atoms: N_10  and  C_11 
REMARK       I    between atoms: C_11  and  N_12 
REMARK       I    between atoms: N_12  and  C_13 
REMARK    4  A    between atoms: C_13  and  C_14 
ROOT
HETATM    1  N   UNL     1      -3.287   4.316 -32.448  1.00  0.00    -0.019 N 
HETATM    2  C   UNL     1      -3.734   3.046 -32.112  1.00  0.00     0.693 C 
HETATM    3  N   UNL     1      -4.911   2.579 -32.625  1.00  0.00    -0.155 N 
HETATM    4  C   UNL     1      -5.496   1.322 -32.298  1.00  0.00     0.269 C 
HETATM    5  O   UNL     1      -4.849   0.483 -31.688  1.00  0.00    -0.267 OA
HETATM    6  N   UNL     1      -3.028   2.289 -31.241  1.00  0.00    -0.234 N 
HETATM    7  H   UNL     1      -2.202   2.698 -30.798  1.00  0.00     0.174 HD
HETATM    8  H   UNL     1      -3.315   1.341 -30.999  1.00  0.00     0.174 HD
HETATM    9  H   UNL     1      -3.782   4.872 -33.127  1.00  0.00     0.203 HD
HETATM   10  H   UNL     1      -5.412   3.186 -33.254  1.00  0.00     0.187 HD
ENDROOT
BRANCH   1  11
HETATM   11  C   UNL     1      -2.353   5.085 -31.775  1.00  0.00     0.742 A 
HETATM   12  N   UNL     1      -2.819   6.147 -31.120  1.00  0.00    -0.062 NA
HETATM   13  C   UNL     1      -1.960   6.834 -30.353  1.00  0.00     0.088 A 
HETATM   14  C   UNL     1      -0.618   6.467 -30.205  1.00  0.00     0.021 A 
HETATM   15  C   UNL     1      -2.418   7.945 -29.652  1.00  0.00     0.036 A 
HETATM   16  C   UNL     1       0.219   7.198 -29.330  1.00  0.00     0.052 A 
HETATM   17  C   UNL     1      -0.221   5.357 -30.959  1.00  0.00     0.062 A 
HETATM   18  C   UNL     1      -0.273   8.278 -28.599  1.00  0.00     0.069 A 
HETATM   19  C   UNL     1      -1.592   8.669 -28.783  1.00  0.00     0.039 A 
HETATM   20  N   UNL     1      -1.079   4.671 -31.750  1.00  0.00    -0.066 NA
HETATM   21  C   UNL     1       1.184   4.827 -30.907  1.00  0.00     0.072 C 
BRANCH  18  22
HETATM   22  O   UNL     1       0.628   8.859 -27.756  1.00  0.00    -0.351 OA
BRANCH  22  23
HETATM   23  C   UNL     1       0.566   8.475 -26.381  1.00  0.00     0.171 C 
HETATM   24  C   UNL     1       1.976   8.152 -25.923  1.00  0.00     0.034 C 
ENDBRANCH  22  23
ENDBRANCH  18  22
ENDBRANCH   1  11
BRANCH   4  25
HETATM   25  C   UNL     1      -6.910   1.108 -32.680  1.00  0.00     0.032 A 
HETATM   26  C   UNL     1      -7.397   1.506 -33.932  1.00  0.00     0.017 A 
HETATM   27  C   UNL     1      -8.758   1.370 -34.222  1.00  0.00     0.007 A 
HETATM   28  C   UNL     1      -9.639   0.841 -33.272  1.00  0.00    -0.062 A 
HETATM   29  C   UNL     1     -11.111   0.739 -33.560  1.00  0.00     0.048 C 
HETATM   30  C   UNL     1      -9.145   0.447 -32.024  1.00  0.00     0.007 A 
HETATM   31  C   UNL     1      -7.789   0.582 -31.725  1.00  0.00     0.017 A 
ENDBRANCH   4  25
TORSDOF 4
ENDMDL
MODEL 10
REMARK VINA RESULT:      -8.2      3.092      4.317
REMARK  4 active torsions:
REMARK  status: ('A' for Active; 'I' for Inactive)
REMARK    1  A    between atoms: C_2  and  O_3 
REMARK    2  A    between atoms: O_3  and  C_4 
REMARK    3  A    between atoms: C_9  and  N_10 
REMARK       I    between atoms: N_10  and  C_11 
REMARK       I    between atoms: C_11  and  N_12 
REMARK       I    between atoms: N_12  and  C_13 
REMARK    4  A    between atoms: C_13  and  C_14 
ROOT
HETATM    1  N   UNL     1      -5.231   3.294 -32.726  1.00  0.00    -0.019 N 
HETATM    2  C   UNL     1      -4.436   4.308 -33.242  1.00  0.00     0.693 C 
HETATM    3  N   UNL     1      -3.357   4.756 -32.534  1.00  0.00    -0.155 N 
HETATM    4  C   UNL     1      -2.513   5.831 -32.935  1.00  0.00     0.269 C 
HETATM    5  O   UNL     1      -2.587   6.280 -34.070  1.00  0.00    -0.267 OA
HETATM    6  N   UNL     1      -4.756   4.883 -34.424  1.00  0.00    -0.234 N 
HETATM    7  H   UNL     1      -5.620   4.597 -34.887  1.00  0.00     0.174 HD
HETATM    8  H   UNL     1      -4.173   5.608 -34.842  1.00  0.00     0.174 HD
HETATM    9  H   UNL     1      -4.980   2.831 -31.867  1.00  0.00     0.203 HD
HETATM   10  H   UNL     1      -3.169   4.311 -31.649  1.00  0.00     0.187 HD
ENDROOT
BRANCH   1  11
HETATM   11  C   UNL     1      -6.525   2.970 -33.096  1.00  0.00     0.742 A 
HETATM   12  N   UNL     1      -6.928   1.730 -32.821  1.00  0.00    -0.062 NA
HETATM   13  C   UNL     1      -8.214   1.426 -33.047  1.00  0.00     0.088 A 
HETATM   14  C   UNL     1      -9.136   2.358 -33.537  1.00  0.00     0.021 A 
HETATM   15  C   UNL     1      -8.665   0.141 -32.766  1.00  0.00     0.036 A 
HETATM   16  C   UNL     1     -10.493   1.989 -33.692  1.00  0.00     0.052 A 
HETATM   17  C   UNL     1      -8.606   3.620 -33.822  1.00  0.00     0.062 A 
HETATM   18  C   UNL     1     -10.934   0.711 -33.357  1.00  0.00     0.069 A 
HETATM   19  C   UNL     1     -10.009  -0.226 -32.917  1.00  0.00     0.039 A 
HETATM   20  N   UNL     1      -7.304   3.928 -33.613  1.00  0.00    -0.066 NA
HETATM   21  C   UNL     1      -9.464   4.738 -34.345  1.00  0.00     0.072 C 
BRANCH  18  22
HETATM   22  O   UNL     1     -12.275   0.508 -33.508  1.00  0.00    -0.351 OA
BRANCH  22  23
HETATM   23  C   UNL     1     -12.952   1.348 -34.443  1.00  0.00     0.171 C 
HETATM   24  C   UNL     1     -14.437   1.046 -34.352  1.00  0.00     0.034 C 
ENDBRANCH  22  23
ENDBRANCH  18  22
ENDBRANCH   1  11
BRANCH   4  25
HETATM   25  C   UNL     1      -1.600   6.398 -31.917  1.00  0.00     0.032 A 
HETATM   26  C   UNL     1      -0.280   5.946 -31.788  1.00  0.00     0.017 A 
HETATM   27  C   UNL     1       0.525   6.441 -30.757  1.00  0.00     0.007 A 
HETATM   28  C   UNL     1       0.023   7.382 -29.851  1.00  0.00    -0.062 A 
HETATM   29  C   UNL     1       0.867   7.879 -28.711  1.00  0.00     0.048 C 
HETATM   30  C   UNL     1      -1.296   7.827 -29.986  1.00  0.00     0.007 A 
HETATM   31  C   UNL     1      -2.107   7.336 -31.011  1.00  0.00     0.017 A 
ENDBRANCH   4  25
TORSDOF 4
ENDMDL
