MODEL 1
REMARK VINA RESULT:      -8.7      0.000      0.000
REMARK  6 active torsions:
REMARK  status: ('A' for Active; 'I' for Inactive)
REMARK    1  A    between atoms: C_4  and  C_5 
REMARK    2  A    between atoms: C_5  and  O_6 
REMARK    3  A    between atoms: O_6  and  C_7 
REMARK    4  A    between atoms: C_10  and  C_11 
REMARK    5  A    between atoms: C_17  and  C_18 
REMARK    6  A    between atoms: C_26  and  N_27 
ROOT
HETATM    1  C   UNL     1      -6.921   3.172 -30.497  1.00  0.00     0.072 A 
HETATM    2  N   UNL     1      -7.021   3.671 -29.215  1.00  0.00    -0.274 N 
HETATM    3  H   UNL     1      -6.556   3.329 -28.381  1.00  0.00     0.189 HD
HETATM    4  N   UNL     1      -7.850   4.729 -29.098  1.00  0.00    -0.148 NA
HETATM    5  C   UNL     1      -8.260   4.907 -30.346  1.00  0.00     0.199 A 
HETATM    6  C   UNL     1      -7.730   3.997 -31.261  1.00  0.00     0.040 A 
HETATM    7  C   UNL     1      -8.119   4.036 -32.699  1.00  0.00     0.108 A 
HETATM    8  C   UNL     1      -9.076   5.202 -32.959  1.00  0.00     0.081 A 
HETATM    9  C   UNL     1      -9.445   5.436 -34.318  1.00  0.00     0.100 C 
HETATM   10  N   UNL     1      -9.743   5.620 -35.424  1.00  0.00    -0.191 NA
HETATM   11  C   UNL     1      -9.526   6.028 -31.978  1.00  0.00     0.140 A 
HETATM   12  O   UNL     1      -9.140   5.880 -30.639  1.00  0.00    -0.277 OA
ENDROOT
BRANCH   7  13
HETATM   13  C   UNL     1      -8.702   2.724 -33.155  1.00  0.00    -0.020 A 
HETATM   14  C   UNL     1      -9.864   2.110 -32.726  1.00  0.00     0.149 A 
HETATM   15  O   UNL     1     -10.055   0.930 -33.366  1.00  0.00    -0.334 OA
HETATM   16  C   UNL     1      -9.012   0.769 -34.218  1.00  0.00     0.142 A 
HETATM   17  C   UNL     1      -8.153   1.840 -34.132  1.00  0.00     0.034 A 
ENDBRANCH   7  13
BRANCH  11  18
HETATM   18  N   UNL     1     -10.386   7.090 -32.164  1.00  0.00    -0.282 NA
HETATM   19  H   UNL     1     -10.668   7.267 -33.125  1.00  0.00     0.126 HD
HETATM   20  H   UNL     1     -11.172   7.060 -31.517  1.00  0.00     0.126 HD
ENDBRANCH  11  18
BRANCH   1  21
HETATM   21  C   UNL     1      -6.146   1.987 -30.837  1.00  0.00    -0.007 A 
HETATM   22  C   UNL     1      -6.745   0.722 -30.821  1.00  0.00     0.016 A 
HETATM   23  C   UNL     1      -6.030  -0.413 -31.221  1.00  0.00     0.037 A 
HETATM   24  C   UNL     1      -4.710  -0.291 -31.650  1.00  0.00     0.069 A 
HETATM   25  C   UNL     1      -4.096   0.962 -31.629  1.00  0.00     0.037 A 
HETATM   26  C   UNL     1      -4.809   2.097 -31.230  1.00  0.00     0.016 A 
BRANCH  24  27
HETATM   27  O   UNL     1      -3.923  -1.315 -32.101  1.00  0.00    -0.347 OA
BRANCH  27  28
HETATM   28  C   UNL     1      -3.790  -1.428 -33.521  1.00  0.00     0.214 C 
BRANCH  28  29
HETATM   29  C   UNL     1      -4.667  -2.540 -34.049  1.00  0.00    -0.034 A 
HETATM   30  C   UNL     1      -4.187  -3.859 -34.073  1.00  0.00     0.009 A 
HETATM   31  C   UNL     1      -5.007  -4.906 -34.498  1.00  0.00     0.001 A 
HETATM   32  C   UNL     1      -6.318  -4.649 -34.896  1.00  0.00     0.000 A 
HETATM   33  C   UNL     1      -6.811  -3.347 -34.865  1.00  0.00     0.001 A 
HETATM   34  C   UNL     1      -5.993  -2.299 -34.438  1.00  0.00     0.009 A 
ENDBRANCH  28  29
ENDBRANCH  27  28
ENDBRANCH  24  27
ENDBRANCH   1  21
TORSDOF 6
ENDMDL
MODEL 2
REMARK VINA RESULT:      -8.7      3.998      5.278
REMARK  6 active torsions:
REMARK  status: ('A' for Active; 'I' for Inactive)
REMARK    1  A    between atoms: C_4  and  C_5 
REMARK    2  A    between atoms: C_5  and  O_6 
REMARK    3  A    between atoms: O_6  and  C_7 
REMARK    4  A    between atoms: C_10  and  C_11 
REMARK    5  A    between atoms: C_17  and  C_18 
REMARK    6  A    between atoms: C_26  and  N_27 
ROOT
HETATM    1  C   UNL     1      -5.138   4.615 -30.645  1.00  0.00     0.072 A 
HETATM    2  N   UNL     1      -6.111   5.158 -29.832  1.00  0.00    -0.274 N 
HETATM    3  H   UNL     1      -7.045   4.802 -29.665  1.00  0.00     0.189 HD
HETATM    4  N   UNL     1      -5.739   6.300 -29.215  1.00  0.00    -0.148 NA
HETATM    5  C   UNL     1      -4.494   6.458 -29.640  1.00  0.00     0.199 A 
HETATM    6  C   UNL     1      -4.052   5.464 -30.512  1.00  0.00     0.040 A 
HETATM    7  C   UNL     1      -2.688   5.514 -31.109  1.00  0.00     0.108 A 
HETATM    8  C   UNL     1      -1.918   6.725 -30.576  1.00  0.00     0.081 A 
HETATM    9  C   UNL     1      -0.552   6.841 -30.973  1.00  0.00     0.100 C 
HETATM   10  N   UNL     1       0.558   6.931 -31.300  1.00  0.00    -0.191 NA
HETATM   11  C   UNL     1      -2.460   7.633 -29.721  1.00  0.00     0.140 A 
HETATM   12  O   UNL     1      -3.776   7.527 -29.251  1.00  0.00    -0.277 OA
ENDROOT
BRANCH   7  13
HETATM   13  C   UNL     1      -2.737   5.504 -32.615  1.00  0.00    -0.020 A 
HETATM   14  C   UNL     1      -3.395   6.383 -33.454  1.00  0.00     0.149 A 
HETATM   15  O   UNL     1      -3.213   6.043 -34.754  1.00  0.00    -0.334 OA
HETATM   16  C   UNL     1      -2.430   4.936 -34.767  1.00  0.00     0.142 A 
HETATM   17  C   UNL     1      -2.107   4.562 -33.483  1.00  0.00     0.034 A 
ENDBRANCH   7  13
BRANCH  11  18
HETATM   18  N   UNL     1      -1.807   8.737 -29.214  1.00  0.00    -0.282 NA
HETATM   19  H   UNL     1      -1.466   8.650 -28.260  1.00  0.00     0.126 HD
HETATM   20  H   UNL     1      -1.101   9.089 -29.859  1.00  0.00     0.126 HD
ENDBRANCH  11  18
BRANCH   1  21
HETATM   21  C   UNL     1      -5.350   3.430 -31.465  1.00  0.00    -0.007 A 
HETATM   22  C   UNL     1      -6.203   3.482 -32.573  1.00  0.00     0.016 A 
HETATM   23  C   UNL     1      -6.353   2.372 -33.413  1.00  0.00     0.037 A 
HETATM   24  C   UNL     1      -5.643   1.201 -33.155  1.00  0.00     0.069 A 
HETATM   25  C   UNL     1      -4.823   1.131 -32.028  1.00  0.00     0.037 A 
HETATM   26  C   UNL     1      -4.672   2.239 -31.189  1.00  0.00     0.016 A 
BRANCH  24  27
HETATM   27  O   UNL     1      -5.674   0.068 -33.921  1.00  0.00    -0.347 OA
BRANCH  27  28
HETATM   28  C   UNL     1      -4.624  -0.876 -33.691  1.00  0.00     0.214 C 
BRANCH  28  29
HETATM   29  C   UNL     1      -5.050  -2.259 -34.130  1.00  0.00    -0.034 A 
HETATM   30  C   UNL     1      -4.187  -3.350 -33.944  1.00  0.00     0.009 A 
HETATM   31  C   UNL     1      -4.590  -4.642 -34.287  1.00  0.00     0.001 A 
HETATM   32  C   UNL     1      -5.863  -4.861 -34.810  1.00  0.00     0.000 A 
HETATM   33  C   UNL     1      -6.734  -3.788 -34.989  1.00  0.00     0.001 A 
HETATM   34  C   UNL     1      -6.333  -2.496 -34.645  1.00  0.00     0.009 A 
ENDBRANCH  28  29
ENDBRANCH  27  28
ENDBRANCH  24  27
ENDBRANCH   1  21
TORSDOF 6
ENDMDL
MODEL 3
REMARK VINA RESULT:      -8.5      2.715      4.190
REMARK  6 active torsions:
REMARK  status: ('A' for Active; 'I' for Inactive)
REMARK    1  A    between atoms: C_4  and  C_5 
REMARK    2  A    between atoms: C_5  and  O_6 
REMARK    3  A    between atoms: O_6  and  C_7 
REMARK    4  A    between atoms: C_10  and  C_11 
REMARK    5  A    between atoms: C_17  and  C_18 
REMARK    6  A    between atoms: C_26  and  N_27 
ROOT
HETATM    1  C   UNL     1     -11.062   1.271 -33.269  1.00  0.00     0.072 A 
HETATM    2  N   UNL     1     -12.015   0.431 -33.807  1.00  0.00    -0.274 N 
HETATM    3  H   UNL     1     -11.888  -0.524 -34.125  1.00  0.00     0.189 HD
HETATM    4  N   UNL     1     -13.240   0.985 -33.916  1.00  0.00    -0.148 NA
HETATM    5  C   UNL     1     -13.049   2.195 -33.410  1.00  0.00     0.199 A 
HETATM    6  C   UNL     1     -11.744   2.443 -32.987  1.00  0.00     0.040 A 
HETATM    7  C   UNL     1     -11.354   3.768 -32.429  1.00  0.00     0.108 A 
HETATM    8  C   UNL     1     -12.570   4.695 -32.361  1.00  0.00     0.081 A 
HETATM    9  C   UNL     1     -12.372   5.965 -31.739  1.00  0.00     0.100 C 
HETATM   10  N   UNL     1     -12.206   6.997 -31.235  1.00  0.00    -0.191 NA
HETATM   11  C   UNL     1     -13.803   4.338 -32.808  1.00  0.00     0.140 A 
HETATM   12  O   UNL     1     -14.061   3.079 -33.367  1.00  0.00    -0.277 OA
ENDROOT
BRANCH   7  13
HETATM   13  C   UNL     1     -10.222   4.389 -33.206  1.00  0.00    -0.020 A 
HETATM   14  C   UNL     1     -10.236   4.863 -34.504  1.00  0.00     0.149 A 
HETATM   15  O   UNL     1      -9.019   5.345 -34.859  1.00  0.00    -0.334 OA
HETATM   16  C   UNL     1      -8.203   5.186 -33.787  1.00  0.00     0.142 A 
HETATM   17  C   UNL     1      -8.888   4.607 -32.745  1.00  0.00     0.034 A 
ENDBRANCH   7  13
BRANCH  11  18
HETATM   18  N   UNL     1     -14.926   5.137 -32.767  1.00  0.00    -0.282 NA
HETATM   19  H   UNL     1     -14.863   6.016 -33.274  1.00  0.00     0.126 HD
HETATM   20  H   UNL     1     -15.773   4.613 -32.982  1.00  0.00     0.126 HD
ENDBRANCH  11  18
BRANCH   1  21
HETATM   21  C   UNL     1      -9.658   0.907 -33.134  1.00  0.00    -0.007 A 
HETATM   22  C   UNL     1      -9.151   0.497 -31.895  1.00  0.00     0.016 A 
HETATM   23  C   UNL     1      -7.823   0.071 -31.772  1.00  0.00     0.037 A 
HETATM   24  C   UNL     1      -6.992   0.044 -32.890  1.00  0.00     0.069 A 
HETATM   25  C   UNL     1      -7.482   0.491 -34.118  1.00  0.00     0.037 A 
HETATM   26  C   UNL     1      -8.808   0.915 -34.243  1.00  0.00     0.016 A 
BRANCH  24  27
HETATM   27  O   UNL     1      -5.694  -0.388 -32.905  1.00  0.00    -0.347 OA
BRANCH  27  28
HETATM   28  C   UNL     1      -5.193  -0.831 -34.170  1.00  0.00     0.214 C 
BRANCH  28  29
HETATM   29  C   UNL     1      -5.202  -2.341 -34.243  1.00  0.00    -0.034 A 
HETATM   30  C   UNL     1      -6.310  -3.008 -34.790  1.00  0.00     0.009 A 
HETATM   31  C   UNL     1      -6.307  -4.398 -34.923  1.00  0.00     0.001 A 
HETATM   32  C   UNL     1      -5.196  -5.136 -34.519  1.00  0.00     0.000 A 
HETATM   33  C   UNL     1      -4.086  -4.485 -33.986  1.00  0.00     0.001 A 
HETATM   34  C   UNL     1      -4.086  -3.095 -33.855  1.00  0.00     0.009 A 
ENDBRANCH  28  29
ENDBRANCH  27  28
ENDBRANCH  24  27
ENDBRANCH   1  21
TORSDOF 6
ENDMDL
MODEL 4
REMARK VINA RESULT:      -8.5      4.438      7.474
REMARK  6 active torsions:
REMARK  status: ('A' for Active; 'I' for Inactive)
REMARK    1  A    between atoms: C_4  and  C_5 
REMARK    2  A    between atoms: C_5  and  O_6 
REMARK    3  A    between atoms: O_6  and  C_7 
REMARK    4  A    between atoms: C_10  and  C_11 
REMARK    5  A    between atoms: C_17  and  C_18 
REMARK    6  A    between atoms: C_26  and  N_27 
ROOT
HETATM    1  C   UNL     1      -6.390   3.692 -32.546  1.00  0.00     0.072 A 
HETATM    2  N   UNL     1      -7.401   4.490 -32.052  1.00  0.00    -0.274 N 
HETATM    3  H   UNL     1      -7.347   5.471 -31.803  1.00  0.00     0.189 HD
HETATM    4  N   UNL     1      -8.577   3.850 -31.886  1.00  0.00    -0.148 NA
HETATM    5  C   UNL     1      -8.295   2.625 -32.309  1.00  0.00     0.199 A 
HETATM    6  C   UNL     1      -6.978   2.453 -32.735  1.00  0.00     0.040 A 
HETATM    7  C   UNL     1      -6.489   1.126 -33.206  1.00  0.00     0.108 A 
HETATM    8  C   UNL     1      -7.628   0.104 -33.190  1.00  0.00     0.081 A 
HETATM    9  C   UNL     1      -7.335  -1.188 -33.725  1.00  0.00     0.100 C 
HETATM   10  N   UNL     1      -7.092  -2.235 -34.159  1.00  0.00    -0.191 NA
HETATM   11  C   UNL     1      -8.880   0.392 -32.748  1.00  0.00     0.140 A 
HETATM   12  O   UNL     1      -9.233   1.664 -32.275  1.00  0.00    -0.277 OA
ENDROOT
BRANCH   7  13
HETATM   13  C   UNL     1      -5.303   0.654 -32.406  1.00  0.00    -0.020 A 
HETATM   14  C   UNL     1      -5.222   0.441 -31.042  1.00  0.00     0.149 A 
HETATM   15  O   UNL     1      -3.981   0.022 -30.689  1.00  0.00    -0.334 OA
HETATM   16  C   UNL     1      -3.246  -0.042 -31.827  1.00  0.00     0.142 A 
HETATM   17  C   UNL     1      -4.006   0.332 -32.910  1.00  0.00     0.034 A 
ENDBRANCH   7  13
BRANCH  11  18
HETATM   18  N   UNL     1      -9.936  -0.494 -32.716  1.00  0.00    -0.282 NA
HETATM   19  H   UNL     1     -10.825  -0.113 -32.401  1.00  0.00     0.126 HD
HETATM   20  H   UNL     1     -10.014  -1.023 -33.584  1.00  0.00     0.126 HD
ENDBRANCH  11  18
BRANCH   1  21
HETATM   21  C   UNL     1      -5.021   4.155 -32.729  1.00  0.00    -0.007 A 
HETATM   22  C   UNL     1      -4.044   3.867 -31.769  1.00  0.00     0.016 A 
HETATM   23  C   UNL     1      -2.710   4.240 -31.972  1.00  0.00     0.037 A 
HETATM   24  C   UNL     1      -2.340   4.899 -33.143  1.00  0.00     0.069 A 
HETATM   25  C   UNL     1      -3.318   5.225 -34.084  1.00  0.00     0.037 A 
HETATM   26  C   UNL     1      -4.650   4.852 -33.882  1.00  0.00     0.016 A 
BRANCH  24  27
HETATM   27  O   UNL     1      -1.068   5.277 -33.474  1.00  0.00    -0.347 OA
BRANCH  27  28
HETATM   28  C   UNL     1      -0.794   6.680 -33.416  1.00  0.00     0.214 C 
BRANCH  28  29
HETATM   29  C   UNL     1      -0.694   7.141 -31.979  1.00  0.00    -0.034 A 
HETATM   30  C   UNL     1      -1.700   7.953 -31.432  1.00  0.00     0.009 A 
HETATM   31  C   UNL     1      -1.654   8.335 -30.090  1.00  0.00     0.001 A 
HETATM   32  C   UNL     1      -0.607   7.904 -29.277  1.00  0.00     0.000 A 
HETATM   33  C   UNL     1       0.391   7.088 -29.804  1.00  0.00     0.001 A 
HETATM   34  C   UNL     1       0.345   6.703 -31.145  1.00  0.00     0.009 A 
ENDBRANCH  28  29
ENDBRANCH  27  28
ENDBRANCH  24  27
ENDBRANCH   1  21
TORSDOF 6
ENDMDL
MODEL 5
REMARK VINA RESULT:      -8.4     15.850     18.362
REMARK  6 active torsions:
REMARK  status: ('A' for Active; 'I' for Inactive)
REMARK    1  A    between atoms: C_4  and  C_5 
REMARK    2  A    between atoms: C_5  and  O_6 
REMARK    3  A    between atoms: O_6  and  C_7 
REMARK    4  A    between atoms: C_10  and  C_11 
REMARK    5  A    between atoms: C_17  and  C_18 
REMARK    6  A    between atoms: C_26  and  N_27 
ROOT
HETATM    1  C   UNL     1      -8.765 -12.804 -40.038  1.00  0.00     0.072 A 
HETATM    2  N   UNL     1      -9.716 -11.820 -39.869  1.00  0.00    -0.274 N 
HETATM    3  H   UNL     1      -9.574 -10.878 -39.520  1.00  0.00     0.189 HD
HETATM    4  N   UNL     1     -10.966 -12.196 -40.208  1.00  0.00    -0.148 NA
HETATM    5  C   UNL     1     -10.784 -13.443 -40.620  1.00  0.00     0.199 A 
HETATM    6  C   UNL     1      -9.463 -13.884 -40.553  1.00  0.00     0.040 A 
HETATM    7  C   UNL     1      -9.095 -15.274 -40.944  1.00  0.00     0.108 A 
HETATM    8  C   UNL     1     -10.327 -16.029 -41.447  1.00  0.00     0.081 A 
HETATM    9  C   UNL     1     -10.106 -17.341 -41.966  1.00  0.00     0.100 C 
HETATM   10  N   UNL     1      -9.921 -18.407 -42.385  1.00  0.00    -0.191 NA
HETATM   11  C   UNL     1     -11.574 -15.488 -41.465  1.00  0.00     0.140 A 
HETATM   12  O   UNL     1     -11.830 -14.182 -41.027  1.00  0.00    -0.277 OA
ENDROOT
BRANCH   7  13
HETATM   13  C   UNL     1      -8.411 -16.007 -39.819  1.00  0.00    -0.020 A 
HETATM   14  C   UNL     1      -7.147 -16.568 -39.808  1.00  0.00     0.149 A 
HETATM   15  O   UNL     1      -6.885 -17.152 -38.612  1.00  0.00    -0.334 OA
HETATM   16  C   UNL     1      -7.982 -16.972 -37.836  1.00  0.00     0.142 A 
HETATM   17  C   UNL     1      -8.947 -16.275 -38.523  1.00  0.00     0.034 A 
ENDBRANCH   7  13
BRANCH  11  18
HETATM   18  N   UNL     1     -12.712 -16.129 -41.909  1.00  0.00    -0.282 NA
HETATM   19  H   UNL     1     -12.869 -17.062 -41.537  1.00  0.00     0.126 HD
HETATM   20  H   UNL     1     -13.534 -15.530 -41.844  1.00  0.00     0.126 HD
ENDBRANCH  11  18
BRANCH   1  21
HETATM   21  C   UNL     1      -7.367 -12.641 -39.662  1.00  0.00    -0.007 A 
HETATM   22  C   UNL     1      -6.433 -12.180 -40.598  1.00  0.00     0.016 A 
HETATM   23  C   UNL     1      -5.105 -11.946 -40.226  1.00  0.00     0.037 A 
HETATM   24  C   UNL     1      -4.699 -12.163 -38.909  1.00  0.00     0.069 A 
HETATM   25  C   UNL     1      -5.617 -12.662 -37.984  1.00  0.00     0.037 A 
HETATM   26  C   UNL     1      -6.945 -12.895 -38.355  1.00  0.00     0.016 A 
BRANCH  24  27
HETATM   27  O   UNL     1      -3.444 -11.933 -38.417  1.00  0.00    -0.347 OA
BRANCH  27  28
HETATM   28  C   UNL     1      -2.846 -13.012 -37.692  1.00  0.00     0.214 C 
BRANCH  28  29
HETATM   29  C   UNL     1      -1.657 -13.561 -38.447  1.00  0.00    -0.034 A 
HETATM   30  C   UNL     1      -0.587 -14.140 -37.745  1.00  0.00     0.009 A 
HETATM   31  C   UNL     1       0.489 -14.707 -38.430  1.00  0.00     0.001 A 
HETATM   32  C   UNL     1       0.505 -14.712 -39.824  1.00  0.00     0.000 A 
HETATM   33  C   UNL     1      -0.555 -14.152 -40.533  1.00  0.00     0.001 A 
HETATM   34  C   UNL     1      -1.633 -13.586 -39.849  1.00  0.00     0.009 A 
ENDBRANCH  28  29
ENDBRANCH  27  28
ENDBRANCH  24  27
ENDBRANCH   1  21
TORSDOF 6
ENDMDL
MODEL 6
REMARK VINA RESULT:      -8.3      3.927      5.660
REMARK  6 active torsions:
REMARK  status: ('A' for Active; 'I' for Inactive)
REMARK    1  A    between atoms: C_4  and  C_5 
REMARK    2  A    between atoms: C_5  and  O_6 
REMARK    3  A    between atoms: O_6  and  C_7 
REMARK    4  A    between atoms: C_10  and  C_11 
REMARK    5  A    between atoms: C_17  and  C_18 
REMARK    6  A    between atoms: C_26  and  N_27 
ROOT
HETATM    1  C   UNL     1     -12.704   0.866 -33.610  1.00  0.00     0.072 A 
HETATM    2  N   UNL     1     -13.490  -0.102 -34.201  1.00  0.00    -0.274 N 
HETATM    3  H   UNL     1     -13.181  -0.947 -34.669  1.00  0.00     0.189 HD
HETATM    4  N   UNL     1     -14.814   0.147 -34.136  1.00  0.00    -0.148 NA
HETATM    5  C   UNL     1     -14.855   1.290 -33.467  1.00  0.00     0.199 A 
HETATM    6  C   UNL     1     -13.604   1.790 -33.104  1.00  0.00     0.040 A 
HETATM    7  C   UNL     1     -13.473   3.085 -32.380  1.00  0.00     0.108 A 
HETATM    8  C   UNL     1     -14.856   3.671 -32.084  1.00  0.00     0.081 A 
HETATM    9  C   UNL     1     -14.891   4.858 -31.292  1.00  0.00     0.100 C 
HETATM   10  N   UNL     1     -14.914   5.824 -30.648  1.00  0.00    -0.191 NA
HETATM   11  C   UNL     1     -16.013   3.087 -32.492  1.00  0.00     0.140 A 
HETATM   12  O   UNL     1     -16.032   1.887 -33.216  1.00  0.00    -0.277 OA
ENDROOT
BRANCH   7  13
HETATM   13  C   UNL     1     -12.603   4.059 -33.132  1.00  0.00    -0.020 A 
HETATM   14  C   UNL     1     -12.805   4.588 -34.393  1.00  0.00     0.149 A 
HETATM   15  O   UNL     1     -11.797   5.428 -34.735  1.00  0.00    -0.334 OA
HETATM   16  C   UNL     1     -10.930   5.450 -33.692  1.00  0.00     0.142 A 
HETATM   17  C   UNL     1     -11.375   4.631 -32.681  1.00  0.00     0.034 A 
ENDBRANCH   7  13
BRANCH  11  18
HETATM   18  N   UNL     1     -17.279   3.577 -32.249  1.00  0.00    -0.282 NA
HETATM   19  H   UNL     1     -17.623   3.465 -31.298  1.00  0.00     0.126 HD
HETATM   20  H   UNL     1     -17.395   4.525 -32.605  1.00  0.00     0.126 HD
ENDBRANCH  11  18
BRANCH   1  21
HETATM   21  C   UNL     1     -11.249   0.840 -33.632  1.00  0.00    -0.007 A 
HETATM   22  C   UNL     1     -10.542   0.046 -32.722  1.00  0.00     0.016 A 
HETATM   23  C   UNL     1      -9.147  -0.047 -32.785  1.00  0.00     0.037 A 
HETATM   24  C   UNL     1      -8.445   0.649 -33.768  1.00  0.00     0.069 A 
HETATM   25  C   UNL     1      -9.142   1.475 -34.651  1.00  0.00     0.037 A 
HETATM   26  C   UNL     1     -10.535   1.567 -34.589  1.00  0.00     0.016 A 
BRANCH  24  27
HETATM   27  O   UNL     1      -7.091   0.608 -33.957  1.00  0.00    -0.347 OA
BRANCH  27  28
HETATM   28  C   UNL     1      -6.353  -0.213 -33.047  1.00  0.00     0.214 C 
BRANCH  28  29
HETATM   29  C   UNL     1      -6.005  -1.535 -33.691  1.00  0.00    -0.034 A 
HETATM   30  C   UNL     1      -7.020  -2.343 -34.227  1.00  0.00     0.009 A 
HETATM   31  C   UNL     1      -6.709  -3.537 -34.881  1.00  0.00     0.001 A 
HETATM   32  C   UNL     1      -5.379  -3.933 -35.014  1.00  0.00     0.000 A 
HETATM   33  C   UNL     1      -4.361  -3.135 -34.498  1.00  0.00     0.001 A 
HETATM   34  C   UNL     1      -4.671  -1.940 -33.846  1.00  0.00     0.009 A 
ENDBRANCH  28  29
ENDBRANCH  27  28
ENDBRANCH  24  27
ENDBRANCH   1  21
TORSDOF 6
ENDMDL
MODEL 7
REMARK VINA RESULT:      -8.3      4.355      8.024
REMARK  6 active torsions:
REMARK  status: ('A' for Active; 'I' for Inactive)
REMARK    1  A    between atoms: C_4  and  C_5 
REMARK    2  A    between atoms: C_5  and  O_6 
REMARK    3  A    between atoms: O_6  and  C_7 
REMARK    4  A    between atoms: C_10  and  C_11 
REMARK    5  A    between atoms: C_17  and  C_18 
REMARK    6  A    between atoms: C_26  and  N_27 
ROOT
HETATM    1  C   UNL     1      -6.923   1.836 -33.750  1.00  0.00     0.072 A 
HETATM    2  N   UNL     1      -8.291   1.907 -33.908  1.00  0.00    -0.274 N 
HETATM    3  H   UNL     1      -8.875   2.736 -33.872  1.00  0.00     0.189 HD
HETATM    4  N   UNL     1      -8.884   0.715 -34.122  1.00  0.00    -0.148 NA
HETATM    5  C   UNL     1      -7.853  -0.118 -34.120  1.00  0.00     0.199 A 
HETATM    6  C   UNL     1      -6.619   0.494 -33.905  1.00  0.00     0.040 A 
HETATM    7  C   UNL     1      -5.364  -0.306 -33.835  1.00  0.00     0.108 A 
HETATM    8  C   UNL     1      -5.663  -1.786 -34.087  1.00  0.00     0.081 A 
HETATM    9  C   UNL     1      -4.538  -2.662 -34.165  1.00  0.00     0.100 C 
HETATM   10  N   UNL     1      -3.620  -3.369 -34.226  1.00  0.00    -0.191 NA
HETATM   11  C   UNL     1      -6.918  -2.268 -34.286  1.00  0.00     0.140 A 
HETATM   12  O   UNL     1      -8.048  -1.438 -34.284  1.00  0.00    -0.277 OA
ENDROOT
BRANCH   7  13
HETATM   13  C   UNL     1      -4.640  -0.097 -32.531  1.00  0.00    -0.020 A 
HETATM   14  C   UNL     1      -5.124  -0.271 -31.248  1.00  0.00     0.149 A 
HETATM   15  O   UNL     1      -4.175   0.025 -30.326  1.00  0.00    -0.334 OA
HETATM   16  C   UNL     1      -3.062   0.394 -31.008  1.00  0.00     0.142 A 
HETATM   17  C   UNL     1      -3.290   0.336 -32.363  1.00  0.00     0.034 A 
ENDBRANCH   7  13
BRANCH  11  18
HETATM   18  N   UNL     1      -7.235  -3.590 -34.517  1.00  0.00    -0.282 NA
HETATM   19  H   UNL     1      -8.216  -3.784 -34.706  1.00  0.00     0.126 HD
HETATM   20  H   UNL     1      -6.606  -4.019 -35.194  1.00  0.00     0.126 HD
ENDBRANCH  11  18
BRANCH   1  21
HETATM   21  C   UNL     1      -6.092   2.990 -33.431  1.00  0.00    -0.007 A 
HETATM   22  C   UNL     1      -5.635   3.834 -34.450  1.00  0.00     0.016 A 
HETATM   23  C   UNL     1      -4.903   4.988 -34.148  1.00  0.00     0.037 A 
HETATM   24  C   UNL     1      -4.627   5.312 -32.821  1.00  0.00     0.069 A 
HETATM   25  C   UNL     1      -5.045   4.452 -31.805  1.00  0.00     0.037 A 
HETATM   26  C   UNL     1      -5.778   3.300 -32.105  1.00  0.00     0.016 A 
BRANCH  24  27
HETATM   27  O   UNL     1      -3.958   6.428 -32.398  1.00  0.00    -0.347 OA
BRANCH  27  28
HETATM   28  C   UNL     1      -2.719   6.705 -33.056  1.00  0.00     0.214 C 
BRANCH  28  29
HETATM   29  C   UNL     1      -1.564   6.567 -32.090  1.00  0.00    -0.034 A 
HETATM   30  C   UNL     1      -1.354   7.544 -31.105  1.00  0.00     0.009 A 
HETATM   31  C   UNL     1      -0.330   7.399 -30.166  1.00  0.00     0.001 A 
HETATM   32  C   UNL     1       0.489   6.272 -30.195  1.00  0.00     0.000 A 
HETATM   33  C   UNL     1       0.284   5.289 -31.161  1.00  0.00     0.001 A 
HETATM   34  C   UNL     1      -0.741   5.431 -32.098  1.00  0.00     0.009 A 
ENDBRANCH  28  29
ENDBRANCH  27  28
ENDBRANCH  24  27
ENDBRANCH   1  21
TORSDOF 6
ENDMDL
MODEL 8
REMARK VINA RESULT:      -8.2      3.585      6.765
REMARK  6 active torsions:
REMARK  status: ('A' for Active; 'I' for Inactive)
REMARK    1  A    between atoms: C_4  and  C_5 
REMARK    2  A    between atoms: C_5  and  O_6 
REMARK    3  A    between atoms: O_6  and  C_7 
REMARK    4  A    between atoms: C_10  and  C_11 
REMARK    5  A    between atoms: C_17  and  C_18 
REMARK    6  A    between atoms: C_26  and  N_27 
ROOT
HETATM    1  C   UNL     1      -5.729   1.245 -32.178  1.00  0.00     0.072 A 
HETATM    2  N   UNL     1      -5.146   0.369 -31.286  1.00  0.00    -0.274 N 
HETATM    3  H   UNL     1      -5.524  -0.509 -30.946  1.00  0.00     0.189 HD
HETATM    4  N   UNL     1      -3.940   0.767 -30.831  1.00  0.00    -0.148 NA
HETATM    5  C   UNL     1      -3.759   1.912 -31.473  1.00  0.00     0.199 A 
HETATM    6  C   UNL     1      -4.807   2.268 -32.321  1.00  0.00     0.040 A 
HETATM    7  C   UNL     1      -4.777   3.545 -33.088  1.00  0.00     0.108 A 
HETATM    8  C   UNL     1      -3.463   4.287 -32.835  1.00  0.00     0.081 A 
HETATM    9  C   UNL     1      -3.242   5.476 -33.594  1.00  0.00     0.100 C 
HETATM   10  N   UNL     1      -3.068   6.442 -34.212  1.00  0.00    -0.191 NA
HETATM   11  C   UNL     1      -2.508   3.836 -31.978  1.00  0.00     0.140 A 
HETATM   12  O   UNL     1      -2.650   2.641 -31.260  1.00  0.00    -0.277 OA
ENDROOT
BRANCH   7  13
HETATM   13  C   UNL     1      -5.973   4.408 -32.782  1.00  0.00    -0.020 A 
HETATM   14  C   UNL     1      -6.384   4.896 -31.556  1.00  0.00     0.149 A 
HETATM   15  O   UNL     1      -7.516   5.633 -31.679  1.00  0.00    -0.334 OA
HETATM   16  C   UNL     1      -7.848   5.629 -32.994  1.00  0.00     0.142 A 
HETATM   17  C   UNL     1      -6.937   4.896 -33.717  1.00  0.00     0.034 A 
ENDBRANCH   7  13
BRANCH  11  18
HETATM   18  N   UNL     1      -1.310   4.468 -31.719  1.00  0.00    -0.282 NA
HETATM   19  H   UNL     1      -1.227   5.420 -32.068  1.00  0.00     0.126 HD
HETATM   20  H   UNL     1      -1.037   4.377 -30.741  1.00  0.00     0.126 HD
ENDBRANCH  11  18
BRANCH   1  21
HETATM   21  C   UNL     1      -7.062   1.053 -32.734  1.00  0.00    -0.007 A 
HETATM   22  C   UNL     1      -8.167   0.910 -31.886  1.00  0.00     0.016 A 
HETATM   23  C   UNL     1      -9.460   0.804 -32.409  1.00  0.00     0.037 A 
HETATM   24  C   UNL     1      -9.662   0.848 -33.788  1.00  0.00     0.069 A 
HETATM   25  C   UNL     1      -8.560   0.948 -34.638  1.00  0.00     0.037 A 
HETATM   26  C   UNL     1      -7.267   1.056 -34.116  1.00  0.00     0.016 A 
BRANCH  24  27
HETATM   27  O   UNL     1     -10.876   0.794 -34.416  1.00  0.00    -0.347 OA
BRANCH  27  28
HETATM   28  C   UNL     1     -11.544   2.045 -34.601  1.00  0.00     0.214 C 
BRANCH  28  29
HETATM   29  C   UNL     1     -12.923   2.006 -33.981  1.00  0.00    -0.034 A 
HETATM   30  C   UNL     1     -13.886   1.110 -34.470  1.00  0.00     0.009 A 
HETATM   31  C   UNL     1     -15.142   1.018 -33.868  1.00  0.00     0.001 A 
HETATM   32  C   UNL     1     -15.447   1.812 -32.764  1.00  0.00     0.000 A 
HETATM   33  C   UNL     1     -14.496   2.697 -32.261  1.00  0.00     0.001 A 
HETATM   34  C   UNL     1     -13.239   2.789 -32.861  1.00  0.00     0.009 A 
ENDBRANCH  28  29
ENDBRANCH  27  28
ENDBRANCH  24  27
ENDBRANCH   1  21
TORSDOF 6
ENDMDL
MODEL 9
REMARK VINA RESULT:      -8.1      3.902      5.045
REMARK  6 active torsions:
REMARK  status: ('A' for Active; 'I' for Inactive)
REMARK    1  A    between atoms: C_4  and  C_5 
REMARK    2  A    between atoms: C_5  and  O_6 
REMARK    3  A    between atoms: O_6  and  C_7 
REMARK    4  A    between atoms: C_10  and  C_11 
REMARK    5  A    between atoms: C_17  and  C_18 
REMARK    6  A    between atoms: C_26  and  N_27 
ROOT
HETATM    1  C   UNL     1      -2.875   4.628 -32.070  1.00  0.00     0.072 A 
HETATM    2  N   UNL     1      -1.501   4.668 -32.188  1.00  0.00    -0.274 N 
HETATM    3  H   UNL     1      -0.877   3.898 -32.403  1.00  0.00     0.189 HD
HETATM    4  N   UNL     1      -0.964   5.888 -31.978  1.00  0.00    -0.148 NA
HETATM    5  C   UNL     1      -2.037   6.632 -31.743  1.00  0.00     0.199 A 
HETATM    6  C   UNL     1      -3.243   5.933 -31.789  1.00  0.00     0.040 A 
HETATM    7  C   UNL     1      -4.538   6.615 -31.510  1.00  0.00     0.108 A 
HETATM    8  C   UNL     1      -4.309   8.106 -31.252  1.00  0.00     0.081 A 
HETATM    9  C   UNL     1      -5.475   8.913 -31.082  1.00  0.00     0.100 C 
HETATM   10  N   UNL     1      -6.426   9.563 -30.944  1.00  0.00    -0.191 NA
HETATM   11  C   UNL     1      -3.076   8.677 -31.233  1.00  0.00     0.140 A 
HETATM   12  O   UNL     1      -1.906   7.939 -31.458  1.00  0.00    -0.277 OA
ENDROOT
BRANCH   7  13
HETATM   13  C   UNL     1      -5.281   5.959 -30.375  1.00  0.00    -0.020 A 
HETATM   14  C   UNL     1      -4.971   5.977 -29.028  1.00  0.00     0.149 A 
HETATM   15  O   UNL     1      -5.875   5.263 -28.312  1.00  0.00    -0.334 OA
HETATM   16  C   UNL     1      -6.782   4.776 -29.194  1.00  0.00     0.142 A 
HETATM   17  C   UNL     1      -6.468   5.173 -30.473  1.00  0.00     0.034 A 
ENDBRANCH   7  13
BRANCH  11  18
HETATM   18  N   UNL     1      -2.821  10.013 -31.006  1.00  0.00    -0.282 NA
HETATM   19  H   UNL     1      -1.935  10.224 -30.553  1.00  0.00     0.126 HD
HETATM   20  H   UNL     1      -2.988  10.578 -31.837  1.00  0.00     0.126 HD
ENDBRANCH  11  18
BRANCH   1  21
HETATM   21  C   UNL     1      -3.652   3.402 -32.179  1.00  0.00    -0.007 A 
HETATM   22  C   UNL     1      -3.356   2.303 -31.364  1.00  0.00     0.016 A 
HETATM   23  C   UNL     1      -4.146   1.148 -31.405  1.00  0.00     0.037 A 
HETATM   24  C   UNL     1      -5.246   1.085 -32.258  1.00  0.00     0.069 A 
HETATM   25  C   UNL     1      -5.520   2.162 -33.103  1.00  0.00     0.037 A 
HETATM   26  C   UNL     1      -4.733   3.316 -33.061  1.00  0.00     0.016 A 
BRANCH  24  27
HETATM   27  O   UNL     1      -6.113   0.033 -32.360  1.00  0.00    -0.347 OA
BRANCH  27  28
HETATM   28  C   UNL     1      -6.580  -0.273 -33.678  1.00  0.00     0.214 C 
BRANCH  28  29
HETATM   29  C   UNL     1      -6.142  -1.661 -34.087  1.00  0.00    -0.034 A 
HETATM   30  C   UNL     1      -4.795  -2.036 -33.960  1.00  0.00     0.009 A 
HETATM   31  C   UNL     1      -4.386  -3.333 -34.274  1.00  0.00     0.001 A 
HETATM   32  C   UNL     1      -5.318  -4.273 -34.709  1.00  0.00     0.000 A 
HETATM   33  C   UNL     1      -6.660  -3.918 -34.828  1.00  0.00     0.001 A 
HETATM   34  C   UNL     1      -7.071  -2.621 -34.512  1.00  0.00     0.009 A 
ENDBRANCH  28  29
ENDBRANCH  27  28
ENDBRANCH  24  27
ENDBRANCH   1  21
TORSDOF 6
ENDMDL
MODEL 10
REMARK VINA RESULT:      -7.9      1.469      2.169
REMARK  6 active torsions:
REMARK  status: ('A' for Active; 'I' for Inactive)
REMARK    1  A    between atoms: C_4  and  C_5 
REMARK    2  A    between atoms: C_5  and  O_6 
REMARK    3  A    between atoms: O_6  and  C_7 
REMARK    4  A    between atoms: C_10  and  C_11 
REMARK    5  A    between atoms: C_17  and  C_18 
REMARK    6  A    between atoms: C_26  and  N_27 
ROOT
HETATM    1  C   UNL     1      -5.758   4.074 -29.668  1.00  0.00     0.072 A 
HETATM    2  N   UNL     1      -5.417   4.483 -28.396  1.00  0.00    -0.274 N 
HETATM    3  H   UNL     1      -4.739   4.058 -27.772  1.00  0.00     0.189 HD
HETATM    4  N   UNL     1      -6.091   5.569 -27.966  1.00  0.00    -0.148 NA
HETATM    5  C   UNL     1      -6.858   5.856 -29.009  1.00  0.00     0.199 A 
HETATM    6  C   UNL     1      -6.705   4.991 -30.091  1.00  0.00     0.040 A 
HETATM    7  C   UNL     1      -7.521   5.154 -31.328  1.00  0.00     0.108 A 
HETATM    8  C   UNL     1      -8.427   6.381 -31.209  1.00  0.00     0.081 A 
HETATM    9  C   UNL     1      -9.186   6.730 -32.367  1.00  0.00     0.100 C 
HETATM   10  N   UNL     1      -9.802   7.009 -33.310  1.00  0.00    -0.191 NA
HETATM   11  C   UNL     1      -8.489   7.155 -30.093  1.00  0.00     0.140 A 
HETATM   12  O   UNL     1      -7.715   6.891 -28.955  1.00  0.00    -0.277 OA
ENDROOT
BRANCH   7  13
HETATM   13  C   UNL     1      -8.307   3.908 -31.645  1.00  0.00    -0.020 A 
HETATM   14  C   UNL     1      -9.277   3.291 -30.878  1.00  0.00     0.149 A 
HETATM   15  O   UNL     1      -9.754   2.183 -31.496  1.00  0.00    -0.334 OA
HETATM   16  C   UNL     1      -9.094   2.073 -32.675  1.00  0.00     0.142 A 
HETATM   17  C   UNL     1      -8.196   3.104 -32.820  1.00  0.00     0.034 A 
ENDBRANCH   7  13
BRANCH  11  18
HETATM   18  N   UNL     1      -9.288   8.268 -29.941  1.00  0.00    -0.282 NA
HETATM   19  H   UNL     1      -9.978   8.220 -29.196  1.00  0.00     0.126 HD
HETATM   20  H   UNL     1      -8.741   9.128 -29.921  1.00  0.00     0.126 HD
ENDBRANCH  11  18
BRANCH   1  21
HETATM   21  C   UNL     1      -5.212   2.880 -30.299  1.00  0.00    -0.007 A 
HETATM   22  C   UNL     1      -4.122   2.978 -31.172  1.00  0.00     0.016 A 
HETATM   23  C   UNL     1      -3.541   1.829 -31.722  1.00  0.00     0.037 A 
HETATM   24  C   UNL     1      -4.041   0.569 -31.397  1.00  0.00     0.069 A 
HETATM   25  C   UNL     1      -5.154   0.470 -30.561  1.00  0.00     0.037 A 
HETATM   26  C   UNL     1      -5.734   1.616 -30.010  1.00  0.00     0.016 A 
BRANCH  24  27
HETATM   27  O   UNL     1      -3.537  -0.623 -31.836  1.00  0.00    -0.347 OA
BRANCH  27  28
HETATM   28  C   UNL     1      -3.470  -0.794 -33.255  1.00  0.00     0.214 C 
BRANCH  28  29
HETATM   29  C   UNL     1      -4.608  -1.663 -33.738  1.00  0.00    -0.034 A 
HETATM   30  C   UNL     1      -5.897  -1.122 -33.870  1.00  0.00     0.009 A 
HETATM   31  C   UNL     1      -6.945  -1.895 -34.374  1.00  0.00     0.001 A 
HETATM   32  C   UNL     1      -6.716  -3.214 -34.761  1.00  0.00     0.000 A 
HETATM   33  C   UNL     1      -5.440  -3.760 -34.647  1.00  0.00     0.001 A 
HETATM   34  C   UNL     1      -4.390  -2.988 -34.145  1.00  0.00     0.009 A 
ENDBRANCH  28  29
ENDBRANCH  27  28
ENDBRANCH  24  27
ENDBRANCH   1  21
TORSDOF 6
ENDMDL
