MODEL 1
REMARK VINA RESULT:      -8.7      0.000      0.000
REMARK  2 active torsions:
REMARK  status: ('A' for Active; 'I' for Inactive)
REMARK    1  A    between atoms: C_2  and  C_3 
REMARK    2  A    between atoms: C_6  and  C_7 
ROOT
HETATM    1  C   UNL     1      -7.686   0.674 -31.279  1.00  0.00     0.197 C 
HETATM    2  N   UNL     1      -7.097   2.023 -31.282  1.00  0.00    -0.345 N 
HETATM    3  C   UNL     1      -7.583   2.981 -32.066  1.00  0.00     0.113 C 
HETATM    4  N   UNL     1      -7.039   4.190 -32.071  1.00  0.00    -0.376 N 
HETATM    5  H   UNL     1      -7.476   4.903 -32.643  1.00  0.00     0.161 HD
HETATM    6  C   UNL     1      -8.757   2.704 -32.909  1.00  0.00     0.029 A 
HETATM    7  C   UNL     1      -9.527   1.594 -32.537  1.00  0.00     0.025 A 
HETATM    8  N   UNL     1      -9.123   0.838 -31.427  1.00  0.00    -0.267 NA
HETATM    9  C   UNL     1      -9.143   3.470 -34.019  1.00  0.00     0.019 A 
HETATM   10  C   UNL     1     -10.319   3.161 -34.709  1.00  0.00     0.025 A 
HETATM   11  C   UNL     1     -11.115   2.101 -34.284  1.00  0.00     0.035 A 
HETATM   12 CL   UNL     1     -12.575   1.742 -35.117  1.00  0.00    -0.084 Cl
HETATM   13  C   UNL     1     -10.731   1.325 -33.193  1.00  0.00     0.048 A 
HETATM   14  C   UNL     1      -5.953   2.263 -30.389  1.00  0.00     0.128 C 
HETATM   15  C   UNL     1      -5.904   3.720 -29.988  1.00  0.00     0.039 C 
HETATM   16  C   UNL     1      -5.889   4.549 -31.247  1.00  0.00     0.123 C 
HETATM   17  H   UNL     1      -9.603  -0.059 -31.395  1.00  0.00     0.130 HD
ENDROOT
BRANCH   1  18
HETATM   18  C   UNL     1      -7.091  -0.249 -32.331  1.00  0.00    -0.021 A 
HETATM   19  C   UNL     1      -7.832  -0.777 -33.400  1.00  0.00     0.011 A 
HETATM   20  C   UNL     1      -7.244  -1.648 -34.324  1.00  0.00     0.007 A 
HETATM   21  C   UNL     1      -5.902  -2.015 -34.201  1.00  0.00    -0.059 A 
HETATM   22  C   UNL     1      -5.146  -1.478 -33.155  1.00  0.00     0.007 A 
HETATM   23  C   UNL     1      -5.733  -0.607 -32.233  1.00  0.00     0.011 A 
BRANCH  21  24
HETATM   24  C   UNL     1      -5.270  -2.959 -35.195  1.00  0.00     0.034 C 
HETATM   25  C   UNL     1      -6.048  -4.259 -35.317  1.00  0.00     0.010 C 
ENDBRANCH  21  24
ENDBRANCH   1  18
TORSDOF 2
ENDMDL
MODEL 2
REMARK VINA RESULT:      -8.7      3.026      5.521
REMARK  2 active torsions:
REMARK  status: ('A' for Active; 'I' for Inactive)
REMARK    1  A    between atoms: C_2  and  C_3 
REMARK    2  A    between atoms: C_6  and  C_7 
ROOT
HETATM    1  C   UNL     1      -6.830   2.072 -31.695  1.00  0.00     0.197 C 
HETATM    2  N   UNL     1      -7.974   2.250 -32.603  1.00  0.00    -0.345 N 
HETATM    3  C   UNL     1      -8.159   1.439 -33.640  1.00  0.00     0.113 C 
HETATM    4  N   UNL     1      -9.187   1.613 -34.460  1.00  0.00    -0.376 N 
HETATM    5  H   UNL     1      -9.318   0.938 -35.204  1.00  0.00     0.161 HD
HETATM    6  C   UNL     1      -7.232   0.316 -33.857  1.00  0.00     0.029 A 
HETATM    7  C   UNL     1      -6.467  -0.067 -32.749  1.00  0.00     0.025 A 
HETATM    8  N   UNL     1      -6.623   0.641 -31.548  1.00  0.00    -0.267 NA
HETATM    9  C   UNL     1      -7.087  -0.377 -35.069  1.00  0.00     0.019 A 
HETATM   10  C   UNL     1      -6.229  -1.478 -35.148  1.00  0.00     0.025 A 
HETATM   11  C   UNL     1      -5.529  -1.895 -34.019  1.00  0.00     0.035 A 
HETATM   12 CL   UNL     1      -4.497  -3.265 -34.112  1.00  0.00    -0.084 Cl
HETATM   13  C   UNL     1      -5.654  -1.202 -32.817  1.00  0.00     0.048 A 
HETATM   14  C   UNL     1      -8.897   3.359 -32.318  1.00  0.00     0.128 C 
HETATM   15  C   UNL     1     -10.280   3.030 -32.833  1.00  0.00     0.039 C 
HETATM   16  C   UNL     1     -10.161   2.688 -34.297  1.00  0.00     0.123 C 
HETATM   17  H   UNL     1      -5.865   0.441 -30.899  1.00  0.00     0.130 HD
ENDROOT
BRANCH   1  18
HETATM   18  C   UNL     1      -5.575   2.800 -32.152  1.00  0.00    -0.021 A 
HETATM   19  C   UNL     1      -5.551   3.682 -33.245  1.00  0.00     0.011 A 
HETATM   20  C   UNL     1      -4.362   4.303 -33.643  1.00  0.00     0.007 A 
HETATM   21  C   UNL     1      -3.167   4.057 -32.962  1.00  0.00    -0.059 A 
HETATM   22  C   UNL     1      -3.182   3.200 -31.858  1.00  0.00     0.007 A 
HETATM   23  C   UNL     1      -4.369   2.581 -31.459  1.00  0.00     0.011 A 
BRANCH  21  24
HETATM   24  C   UNL     1      -1.885   4.723 -33.397  1.00  0.00     0.034 C 
HETATM   25  C   UNL     1      -1.882   5.032 -34.886  1.00  0.00     0.010 C 
ENDBRANCH  21  24
ENDBRANCH   1  18
TORSDOF 2
ENDMDL
MODEL 3
REMARK VINA RESULT:      -8.3      3.228      4.843
REMARK  2 active torsions:
REMARK  status: ('A' for Active; 'I' for Inactive)
REMARK    1  A    between atoms: C_2  and  C_3 
REMARK    2  A    between atoms: C_6  and  C_7 
ROOT
HETATM    1  C   UNL     1      -7.254   3.291 -33.475  1.00  0.00     0.197 C 
HETATM    2  N   UNL     1      -7.251   3.678 -32.055  1.00  0.00    -0.345 N 
HETATM    3  C   UNL     1      -6.155   4.159 -31.479  1.00  0.00     0.113 C 
HETATM    4  N   UNL     1      -6.158   4.495 -30.196  1.00  0.00    -0.376 N 
HETATM    5  H   UNL     1      -5.316   4.909 -29.813  1.00  0.00     0.161 HD
HETATM    6  C   UNL     1      -4.937   4.355 -32.283  1.00  0.00     0.029 A 
HETATM    7  C   UNL     1      -5.124   4.404 -33.669  1.00  0.00     0.025 A 
HETATM    8  N   UNL     1      -6.422   4.252 -34.179  1.00  0.00    -0.267 NA
HETATM    9  C   UNL     1      -3.646   4.500 -31.754  1.00  0.00     0.019 A 
HETATM   10  C   UNL     1      -2.566   4.753 -32.604  1.00  0.00     0.025 A 
HETATM   11  C   UNL     1      -2.775   4.875 -33.976  1.00  0.00     0.035 A 
HETATM   12 CL   UNL     1      -1.450   5.215 -35.015  1.00  0.00    -0.084 Cl
HETATM   13  C   UNL     1      -4.051   4.715 -34.510  1.00  0.00     0.048 A 
HETATM   14  C   UNL     1      -8.505   3.506 -31.306  1.00  0.00     0.128 C 
HETATM   15  C   UNL     1      -8.576   4.507 -30.175  1.00  0.00     0.039 C 
HETATM   16  C   UNL     1      -7.331   4.354 -29.338  1.00  0.00     0.123 C 
HETATM   17  H   UNL     1      -6.408   4.067 -35.180  1.00  0.00     0.130 HD
ENDROOT
BRANCH   1  18
HETATM   18  C   UNL     1      -6.816   1.854 -33.712  1.00  0.00    -0.021 A 
HETATM   19  C   UNL     1      -5.955   1.158 -32.849  1.00  0.00     0.011 A 
HETATM   20  C   UNL     1      -5.558  -0.153 -33.130  1.00  0.00     0.007 A 
HETATM   21  C   UNL     1      -6.009  -0.803 -34.282  1.00  0.00    -0.059 A 
HETATM   22  C   UNL     1      -6.886  -0.130 -35.137  1.00  0.00     0.007 A 
HETATM   23  C   UNL     1      -7.284   1.179 -34.857  1.00  0.00     0.011 A 
BRANCH  21  24
HETATM   24  C   UNL     1      -5.575  -2.216 -34.586  1.00  0.00     0.034 C 
HETATM   25  C   UNL     1      -6.761  -3.156 -34.727  1.00  0.00     0.010 C 
ENDBRANCH  21  24
ENDBRANCH   1  18
TORSDOF 2
ENDMDL
MODEL 4
REMARK VINA RESULT:      -8.2     15.241     16.899
REMARK  2 active torsions:
REMARK  status: ('A' for Active; 'I' for Inactive)
REMARK    1  A    between atoms: C_2  and  C_3 
REMARK    2  A    between atoms: C_6  and  C_7 
ROOT
HETATM    1  C   UNL     1      -4.218 -12.232 -38.501  1.00  0.00     0.197 C 
HETATM    2  N   UNL     1      -5.411 -12.776 -39.169  1.00  0.00    -0.345 N 
HETATM    3  C   UNL     1      -6.098 -13.780 -38.633  1.00  0.00     0.113 C 
HETATM    4  N   UNL     1      -7.166 -14.271 -39.247  1.00  0.00    -0.376 N 
HETATM    5  H   UNL     1      -7.690 -14.999 -38.774  1.00  0.00     0.161 HD
HETATM    6  C   UNL     1      -5.690 -14.324 -37.327  1.00  0.00     0.029 A 
HETATM    7  C   UNL     1      -4.865 -13.498 -36.554  1.00  0.00     0.025 A 
HETATM    8  N   UNL     1      -4.484 -12.252 -37.073  1.00  0.00    -0.267 NA
HETATM    9  C   UNL     1      -6.077 -15.576 -36.827  1.00  0.00     0.019 A 
HETATM   10  C   UNL     1      -5.691 -15.967 -35.542  1.00  0.00     0.025 A 
HETATM   11  C   UNL     1      -4.932 -15.107 -34.753  1.00  0.00     0.035 A 
HETATM   12 CL   UNL     1      -4.483 -15.578 -33.163  1.00  0.00    -0.084 Cl
HETATM   13  C   UNL     1      -4.529 -13.869 -35.248  1.00  0.00     0.048 A 
HETATM   14  C   UNL     1      -5.804 -12.169 -40.449  1.00  0.00     0.128 C 
HETATM   15  C   UNL     1      -7.296 -12.309 -40.654  1.00  0.00     0.039 C 
HETATM   16  C   UNL     1      -7.648 -13.770 -40.531  1.00  0.00     0.123 C 
HETATM   17  H   UNL     1      -3.711 -11.852 -36.546  1.00  0.00     0.130 HD
ENDROOT
BRANCH   1  18
HETATM   18  C   UNL     1      -2.933 -12.960 -38.867  1.00  0.00    -0.021 A 
HETATM   19  C   UNL     1      -2.849 -13.896 -39.910  1.00  0.00     0.011 A 
HETATM   20  C   UNL     1      -1.649 -14.561 -40.186  1.00  0.00     0.007 A 
HETATM   21  C   UNL     1      -0.505 -14.311 -39.425  1.00  0.00    -0.059 A 
HETATM   22  C   UNL     1      -0.569 -13.364 -38.398  1.00  0.00     0.007 A 
HETATM   23  C   UNL     1      -1.766 -12.698 -38.124  1.00  0.00     0.011 A 
BRANCH  21  24
HETATM   24  C   UNL     1       0.786 -15.034 -39.720  1.00  0.00     0.034 C 
HETATM   25  C   UNL     1       1.881 -14.666 -38.731  1.00  0.00     0.010 C 
ENDBRANCH  21  24
ENDBRANCH   1  18
TORSDOF 2
ENDMDL
MODEL 5
REMARK VINA RESULT:      -8.1     15.230     16.970
REMARK  2 active torsions:
REMARK  status: ('A' for Active; 'I' for Inactive)
REMARK    1  A    between atoms: C_2  and  C_3 
REMARK    2  A    between atoms: C_6  and  C_7 
ROOT
HETATM    1  C   UNL     1      -7.146 -12.431 -38.693  1.00  0.00     0.197 C 
HETATM    2  N   UNL     1      -8.404 -12.905 -39.293  1.00  0.00    -0.345 N 
HETATM    3  C   UNL     1      -8.921 -14.083 -38.959  1.00  0.00     0.113 C 
HETATM    4  N   UNL     1     -10.049 -14.506 -39.512  1.00  0.00    -0.376 N 
HETATM    5  H   UNL     1     -10.435 -15.385 -39.187  1.00  0.00     0.161 HD
HETATM    6  C   UNL     1      -8.253 -14.906 -37.938  1.00  0.00     0.029 A 
HETATM    7  C   UNL     1      -7.355 -14.232 -37.102  1.00  0.00     0.025 A 
HETATM    8  N   UNL     1      -7.150 -12.859 -37.304  1.00  0.00    -0.267 NA
HETATM    9  C   UNL     1      -8.467 -16.281 -37.755  1.00  0.00     0.019 A 
HETATM   10  C   UNL     1      -7.834 -16.955 -36.707  1.00  0.00     0.025 A 
HETATM   11  C   UNL     1      -7.000 -16.258 -35.836  1.00  0.00     0.035 A 
HETATM   12 CL   UNL     1      -6.246 -17.083 -34.532  1.00  0.00    -0.084 Cl
HETATM   13  C   UNL     1      -6.769 -14.897 -36.021  1.00  0.00     0.048 A 
HETATM   14  C   UNL     1      -9.057 -12.025 -40.274  1.00  0.00     0.128 C 
HETATM   15  C   UNL     1     -10.549 -12.267 -40.276  1.00  0.00     0.039 C 
HETATM   16  C   UNL     1     -10.783 -13.737 -40.514  1.00  0.00     0.123 C 
HETATM   17  H   UNL     1      -6.321 -12.532 -36.813  1.00  0.00     0.130 HD
ENDROOT
BRANCH   1  18
HETATM   18  C   UNL     1      -5.906 -12.893 -39.443  1.00  0.00    -0.021 A 
HETATM   19  C   UNL     1      -5.893 -13.158 -40.822  1.00  0.00     0.011 A 
HETATM   20  C   UNL     1      -4.732 -13.611 -41.458  1.00  0.00     0.007 A 
HETATM   21  C   UNL     1      -3.555 -13.813 -40.733  1.00  0.00    -0.059 A 
HETATM   22  C   UNL     1      -3.548 -13.530 -39.364  1.00  0.00     0.007 A 
HETATM   23  C   UNL     1      -4.706 -13.076 -38.728  1.00  0.00     0.011 A 
BRANCH  21  24
HETATM   24  C   UNL     1      -2.306 -14.307 -41.420  1.00  0.00     0.034 C 
HETATM   25  C   UNL     1      -1.047 -13.879 -40.683  1.00  0.00     0.010 C 
ENDBRANCH  21  24
ENDBRANCH   1  18
TORSDOF 2
ENDMDL
MODEL 6
REMARK VINA RESULT:      -7.8      1.075      1.573
REMARK  2 active torsions:
REMARK  status: ('A' for Active; 'I' for Inactive)
REMARK    1  A    between atoms: C_2  and  C_3 
REMARK    2  A    between atoms: C_6  and  C_7 
ROOT
HETATM    1  C   UNL     1      -8.691   1.525 -31.172  1.00  0.00     0.197 C 
HETATM    2  N   UNL     1      -7.988   2.808 -31.007  1.00  0.00    -0.345 N 
HETATM    3  C   UNL     1      -8.175   3.807 -31.863  1.00  0.00     0.113 C 
HETATM    4  N   UNL     1      -7.529   4.956 -31.712  1.00  0.00    -0.376 N 
HETATM    5  H   UNL     1      -7.744   5.707 -32.357  1.00  0.00     0.161 HD
HETATM    6  C   UNL     1      -9.137   3.648 -32.966  1.00  0.00     0.029 A 
HETATM    7  C   UNL     1     -10.078   2.623 -32.811  1.00  0.00     0.025 A 
HETATM    8  N   UNL     1     -10.027   1.833 -31.653  1.00  0.00    -0.267 NA
HETATM    9  C   UNL     1      -9.169   4.446 -34.119  1.00  0.00     0.019 A 
HETATM   10  C   UNL     1     -10.171   4.257 -35.075  1.00  0.00     0.025 A 
HETATM   11  C   UNL     1     -11.147   3.284 -34.874  1.00  0.00     0.035 A 
HETATM   12 CL   UNL     1     -12.394   3.072 -36.037  1.00  0.00    -0.084 Cl
HETATM   13  C   UNL     1     -11.112   2.475 -33.740  1.00  0.00     0.048 A 
HETATM   14  C   UNL     1      -7.072   2.933 -29.863  1.00  0.00     0.128 C 
HETATM   15  C   UNL     1      -6.976   4.378 -29.430  1.00  0.00     0.039 C 
HETATM   16  C   UNL     1      -6.578   5.199 -30.631  1.00  0.00     0.123 C 
HETATM   17  H   UNL     1     -10.588   0.990 -31.755  1.00  0.00     0.130 HD
ENDROOT
BRANCH   1  18
HETATM   18  C   UNL     1      -7.957   0.544 -32.072  1.00  0.00    -0.021 A 
HETATM   19  C   UNL     1      -6.602   0.215 -31.910  1.00  0.00     0.011 A 
HETATM   20  C   UNL     1      -5.966  -0.672 -32.786  1.00  0.00     0.007 A 
HETATM   21  C   UNL     1      -6.666  -1.250 -33.847  1.00  0.00    -0.059 A 
HETATM   22  C   UNL     1      -8.022  -0.949 -34.006  1.00  0.00     0.007 A 
HETATM   23  C   UNL     1      -8.659  -0.066 -33.130  1.00  0.00     0.011 A 
BRANCH  21  24
HETATM   24  C   UNL     1      -5.977  -2.202 -34.794  1.00  0.00     0.034 C 
HETATM   25  C   UNL     1      -6.653  -3.563 -34.822  1.00  0.00     0.010 C 
ENDBRANCH  21  24
ENDBRANCH   1  18
TORSDOF 2
ENDMDL
MODEL 7
REMARK VINA RESULT:      -7.7      1.897      2.396
REMARK  2 active torsions:
REMARK  status: ('A' for Active; 'I' for Inactive)
REMARK    1  A    between atoms: C_2  and  C_3 
REMARK    2  A    between atoms: C_6  and  C_7 
ROOT
HETATM    1  C   UNL     1      -5.633   1.665 -31.367  1.00  0.00     0.197 C 
HETATM    2  N   UNL     1      -4.716   2.682 -31.907  1.00  0.00    -0.345 N 
HETATM    3  C   UNL     1      -5.170   3.694 -32.639  1.00  0.00     0.113 C 
HETATM    4  N   UNL     1      -4.335   4.600 -33.130  1.00  0.00    -0.376 N 
HETATM    5  H   UNL     1      -4.732   5.384 -33.636  1.00  0.00     0.161 HD
HETATM    6  C   UNL     1      -6.617   3.829 -32.874  1.00  0.00     0.029 A 
HETATM    7  C   UNL     1      -7.446   3.127 -31.990  1.00  0.00     0.025 A 
HETATM    8  N   UNL     1      -6.852   2.354 -30.982  1.00  0.00    -0.267 NA
HETATM    9  C   UNL     1      -7.192   4.604 -33.892  1.00  0.00     0.019 A 
HETATM   10  C   UNL     1      -8.582   4.720 -33.984  1.00  0.00     0.025 A 
HETATM   11  C   UNL     1      -9.395   4.078 -33.054  1.00  0.00     0.035 A 
HETATM   12 CL   UNL     1     -11.102   4.247 -33.151  1.00  0.00    -0.084 Cl
HETATM   13  C   UNL     1      -8.833   3.293 -32.050  1.00  0.00     0.048 A 
HETATM   14  C   UNL     1      -3.284   2.528 -31.606  1.00  0.00     0.128 C 
HETATM   15  C   UNL     1      -2.607   3.880 -31.600  1.00  0.00     0.039 C 
HETATM   16  C   UNL     1      -2.891   4.550 -32.921  1.00  0.00     0.123 C 
HETATM   17  H   UNL     1      -7.523   1.714 -30.562  1.00  0.00     0.130 HD
ENDROOT
BRANCH   1  18
HETATM   18  C   UNL     1      -5.890   0.512 -32.325  1.00  0.00    -0.021 A 
HETATM   19  C   UNL     1      -7.150  -0.084 -32.492  1.00  0.00     0.011 A 
HETATM   20  C   UNL     1      -7.327  -1.163 -33.364  1.00  0.00     0.007 A 
HETATM   21  C   UNL     1      -6.249  -1.676 -34.091  1.00  0.00    -0.059 A 
HETATM   22  C   UNL     1      -4.994  -1.076 -33.952  1.00  0.00     0.007 A 
HETATM   23  C   UNL     1      -4.818   0.003 -33.083  1.00  0.00     0.011 A 
BRANCH  21  24
HETATM   24  C   UNL     1      -6.441  -2.844 -35.027  1.00  0.00     0.034 C 
HETATM   25  C   UNL     1      -5.508  -3.997 -34.694  1.00  0.00     0.010 C 
ENDBRANCH  21  24
ENDBRANCH   1  18
TORSDOF 2
ENDMDL
MODEL 8
REMARK VINA RESULT:      -7.6      2.452      5.239
REMARK  2 active torsions:
REMARK  status: ('A' for Active; 'I' for Inactive)
REMARK    1  A    between atoms: C_2  and  C_3 
REMARK    2  A    between atoms: C_6  and  C_7 
ROOT
HETATM    1  C   UNL     1      -8.065   2.866 -33.633  1.00  0.00     0.197 C 
HETATM    2  N   UNL     1      -7.595   3.249 -32.292  1.00  0.00    -0.345 N 
HETATM    3  C   UNL     1      -6.817   2.439 -31.582  1.00  0.00     0.113 C 
HETATM    4  N   UNL     1      -6.406   2.787 -30.370  1.00  0.00    -0.376 N 
HETATM    5  H   UNL     1      -5.770   2.162 -29.888  1.00  0.00     0.161 HD
HETATM    6  C   UNL     1      -6.379   1.159 -32.163  1.00  0.00     0.029 A 
HETATM    7  C   UNL     1      -6.471   1.058 -33.556  1.00  0.00     0.025 A 
HETATM    8  N   UNL     1      -6.977   2.150 -34.277  1.00  0.00    -0.267 NA
HETATM    9  C   UNL     1      -5.879   0.076 -31.424  1.00  0.00     0.019 A 
HETATM   10  C   UNL     1      -5.423  -1.070 -32.082  1.00  0.00     0.025 A 
HETATM   11  C   UNL     1      -5.451  -1.129 -33.473  1.00  0.00     0.035 A 
HETATM   12 CL   UNL     1      -4.862  -2.527 -34.280  1.00  0.00    -0.084 Cl
HETATM   13  C   UNL     1      -5.960  -0.065 -34.213  1.00  0.00     0.048 A 
HETATM   14  C   UNL     1      -8.023   4.557 -31.775  1.00  0.00     0.128 C 
HETATM   15  C   UNL     1      -6.996   5.092 -30.802  1.00  0.00     0.039 C 
HETATM   16  C   UNL     1      -6.777   4.049 -29.735  1.00  0.00     0.123 C 
HETATM   17  H   UNL     1      -7.220   1.885 -35.229  1.00  0.00     0.130 HD
ENDROOT
BRANCH   1  18
HETATM   18  C   UNL     1      -9.360   2.069 -33.615  1.00  0.00    -0.021 A 
HETATM   19  C   UNL     1      -9.494   0.830 -32.967  1.00  0.00     0.011 A 
HETATM   20  C   UNL     1     -10.699   0.122 -33.008  1.00  0.00     0.007 A 
HETATM   21  C   UNL     1     -11.802   0.631 -33.699  1.00  0.00    -0.059 A 
HETATM   22  C   UNL     1     -11.689   1.874 -34.329  1.00  0.00     0.007 A 
HETATM   23  C   UNL     1     -10.486   2.583 -34.287  1.00  0.00     0.011 A 
BRANCH  21  24
HETATM   24  C   UNL     1     -13.099  -0.137 -33.746  1.00  0.00     0.034 C 
HETATM   25  C   UNL     1     -14.271   0.751 -34.131  1.00  0.00     0.010 C 
ENDBRANCH  21  24
ENDBRANCH   1  18
TORSDOF 2
ENDMDL
MODEL 9
REMARK VINA RESULT:      -7.6     14.930     16.643
REMARK  2 active torsions:
REMARK  status: ('A' for Active; 'I' for Inactive)
REMARK    1  A    between atoms: C_2  and  C_3 
REMARK    2  A    between atoms: C_6  and  C_7 
ROOT
HETATM    1  C   UNL     1      -5.709 -15.131 -38.746  1.00  0.00     0.197 C 
HETATM    2  N   UNL     1      -4.606 -14.183 -38.522  1.00  0.00    -0.345 N 
HETATM    3  C   UNL     1      -4.393 -13.650 -37.322  1.00  0.00     0.113 C 
HETATM    4  N   UNL     1      -3.403 -12.789 -37.132  1.00  0.00    -0.376 N 
HETATM    5  H   UNL     1      -3.245 -12.451 -36.190  1.00  0.00     0.161 HD
HETATM    6  C   UNL     1      -5.243 -14.050 -36.189  1.00  0.00     0.029 A 
HETATM    7  C   UNL     1      -5.948 -15.249 -36.349  1.00  0.00     0.025 A 
HETATM    8  N   UNL     1      -5.810 -15.955 -37.553  1.00  0.00    -0.267 NA
HETATM    9  C   UNL     1      -5.372 -13.328 -34.993  1.00  0.00     0.019 A 
HETATM   10  C   UNL     1      -6.152 -13.834 -33.950  1.00  0.00     0.025 A 
HETATM   11  C   UNL     1      -6.789 -15.064 -34.092  1.00  0.00     0.035 A 
HETATM   12 CL   UNL     1      -7.723 -15.697 -32.797  1.00  0.00    -0.084 Cl
HETATM   13  C   UNL     1      -6.680 -15.780 -35.282  1.00  0.00     0.048 A 
HETATM   14  C   UNL     1      -3.757 -13.850 -39.676  1.00  0.00     0.128 C 
HETATM   15  C   UNL     1      -2.369 -13.474 -39.208  1.00  0.00     0.039 C 
HETATM   16  C   UNL     1      -2.503 -12.361 -38.199  1.00  0.00     0.123 C 
HETATM   17  H   UNL     1      -6.534 -16.664 -37.653  1.00  0.00     0.130 HD
ENDROOT
BRANCH   1  18
HETATM   18  C   UNL     1      -7.025 -14.456 -39.103  1.00  0.00    -0.021 A 
HETATM   19  C   UNL     1      -7.136 -13.084 -39.381  1.00  0.00     0.011 A 
HETATM   20  C   UNL     1      -8.376 -12.506 -39.674  1.00  0.00     0.007 A 
HETATM   21  C   UNL     1      -9.537 -13.284 -39.693  1.00  0.00    -0.059 A 
HETATM   22  C   UNL     1      -9.436 -14.655 -39.442  1.00  0.00     0.007 A 
HETATM   23  C   UNL     1      -8.198 -15.233 -39.151  1.00  0.00     0.011 A 
BRANCH  21  24
HETATM   24  C   UNL     1     -10.874 -12.658 -40.004  1.00  0.00     0.034 C 
HETATM   25  C   UNL     1     -10.728 -11.249 -40.557  1.00  0.00     0.010 C 
ENDBRANCH  21  24
ENDBRANCH   1  18
TORSDOF 2
ENDMDL
MODEL 10
REMARK VINA RESULT:      -7.5     15.268     17.023
REMARK  2 active torsions:
REMARK  status: ('A' for Active; 'I' for Inactive)
REMARK    1  A    between atoms: C_2  and  C_3 
REMARK    2  A    between atoms: C_6  and  C_7 
ROOT
HETATM    1  C   UNL     1      -6.325 -12.276 -39.451  1.00  0.00     0.197 C 
HETATM    2  N   UNL     1      -7.724 -12.733 -39.494  1.00  0.00    -0.345 N 
HETATM    3  C   UNL     1      -8.165 -13.667 -38.658  1.00  0.00     0.113 C 
HETATM    4  N   UNL     1      -9.424 -14.081 -38.711  1.00  0.00    -0.376 N 
HETATM    5  H   UNL     1      -9.730 -14.755 -38.019  1.00  0.00     0.161 HD
HETATM    6  C   UNL     1      -7.256 -14.220 -37.641  1.00  0.00     0.029 A 
HETATM    7  C   UNL     1      -6.121 -13.451 -37.355  1.00  0.00     0.025 A 
HETATM    8  N   UNL     1      -5.930 -12.249 -38.053  1.00  0.00    -0.267 NA
HETATM    9  C   UNL     1      -7.462 -15.427 -36.956  1.00  0.00     0.019 A 
HETATM   10  C   UNL     1      -6.571 -15.826 -35.956  1.00  0.00     0.025 A 
HETATM   11  C   UNL     1      -5.487 -15.016 -35.628  1.00  0.00     0.035 A 
HETATM   12 CL   UNL     1      -4.410 -15.495 -34.378  1.00  0.00    -0.084 Cl
HETATM   13  C   UNL     1      -5.265 -13.824 -36.314  1.00  0.00     0.048 A 
HETATM   14  C   UNL     1      -8.604 -12.118 -40.499  1.00  0.00     0.128 C 
HETATM   15  C   UNL     1     -10.037 -12.139 -40.016  1.00  0.00     0.039 C 
HETATM   16  C   UNL     1     -10.392 -13.564 -39.675  1.00  0.00     0.123 C 
HETATM   17  H   UNL     1      -4.979 -11.904 -37.943  1.00  0.00     0.130 HD
ENDROOT
BRANCH   1  18
HETATM   18  C   UNL     1      -5.388 -13.112 -40.308  1.00  0.00    -0.021 A 
HETATM   19  C   UNL     1      -4.063 -13.403 -39.942  1.00  0.00     0.011 A 
HETATM   20  C   UNL     1      -3.232 -14.152 -40.782  1.00  0.00     0.007 A 
HETATM   21  C   UNL     1      -3.701 -14.628 -42.009  1.00  0.00    -0.059 A 
HETATM   22  C   UNL     1      -5.025 -14.366 -42.374  1.00  0.00     0.007 A 
HETATM   23  C   UNL     1      -5.856 -13.619 -41.535  1.00  0.00     0.011 A 
BRANCH  21  24
HETATM   24  C   UNL     1      -2.802 -15.431 -42.916  1.00  0.00     0.034 C 
HETATM   25  C   UNL     1      -2.277 -16.683 -42.232  1.00  0.00     0.010 C 
ENDBRANCH  21  24
ENDBRANCH   1  18
TORSDOF 2
ENDMDL
