MODEL 1
REMARK VINA RESULT:      -9.2      0.000      0.000
REMARK  7 active torsions:
REMARK  status: ('A' for Active; 'I' for Inactive)
REMARK    1  A    between atoms: C_2  and  N_3 
REMARK    2  A    between atoms: N_3  and  C_4 
REMARK    3  A    between atoms: C_4  and  N_5 
REMARK    4  A    between atoms: N_5  and  N_6 
REMARK    5  A    between atoms: N_6  and  C_7 
REMARK    6  A    between atoms: N_8  and  C_9 
REMARK    7  A    between atoms: C_9  and  C_10 
ROOT
HETATM    1  C   UNL     1      -4.507   2.922 -31.853  1.00  0.00     0.204 C 
HETATM    2  N   UNL     1      -5.629   3.715 -31.971  1.00  0.00    -0.283 N 
HETATM    3  C   UNL     1      -6.855   3.144 -32.248  1.00  0.00     0.259 C 
HETATM    4  O   UNL     1      -7.914   3.704 -31.978  1.00  0.00    -0.267 OA
HETATM    5  C   UNL     1      -6.837   1.793 -32.870  1.00  0.00     0.049 C 
HETATM    6  C   UNL     1      -5.650   1.158 -32.809  1.00  0.00     0.083 C 
HETATM    7  C   UNL     1      -5.532  -0.211 -33.380  1.00  0.00    -0.000 A 
HETATM    8  C   UNL     1      -6.528  -0.705 -34.235  1.00  0.00    -0.044 A 
HETATM    9  C   UNL     1      -6.401  -1.975 -34.817  1.00  0.00     0.008 A 
HETATM   10  C   UNL     1      -5.292  -2.770 -34.539  1.00  0.00     0.001 A 
HETATM   11  C   UNL     1      -4.300  -2.295 -33.686  1.00  0.00     0.001 A 
HETATM   12  C   UNL     1      -4.419  -1.025 -33.115  1.00  0.00     0.014 A 
HETATM   13  C   UNL     1      -7.690   0.177 -34.599  1.00  0.00     0.054 C 
HETATM   14  C   UNL     1      -8.112   1.173 -33.474  1.00  0.00    -0.002 C 
HETATM   15  C   UNL     1      -8.864   0.440 -32.326  1.00  0.00     0.015 C 
HETATM   16  C   UNL     1     -10.209  -0.160 -32.738  1.00  0.00     0.001 C 
HETATM   17  C   UNL     1     -11.112   0.865 -33.414  1.00  0.00     0.000 C 
HETATM   18  C   UNL     1     -10.419   1.564 -34.578  1.00  0.00     0.001 C 
HETATM   19  C   UNL     1      -9.091   2.190 -34.140  1.00  0.00     0.015 C 
HETATM   20  N   UNL     1      -4.523   1.674 -32.224  1.00  0.00    -0.217 NA
ENDROOT
BRANCH   1  21
HETATM   21  N   UNL     1      -3.349   3.446 -31.305  1.00  0.00    -0.171 NA
HETATM   22  H   UNL     1      -2.952   2.983 -30.490  1.00  0.00     0.156 HD
BRANCH  21  23
HETATM   23  N   UNL     1      -2.355   3.785 -32.251  1.00  0.00    -0.291 N 
HETATM   24  H   UNL     1      -2.463   3.260 -33.119  1.00  0.00     0.183 HD
BRANCH  23  25
HETATM   25  C   UNL     1      -1.915   5.082 -32.336  1.00  0.00     0.182 C 
HETATM   26  S   UNL     1      -0.794   5.808 -31.330  1.00  0.00    -0.040 SA
BRANCH  25  27
HETATM   27  N   UNL     1      -2.397   5.810 -33.390  1.00  0.00    -0.367 N 
HETATM   28  H   UNL     1      -2.341   6.812 -33.242  1.00  0.00     0.161 HD
BRANCH  27  29
HETATM   29  C   UNL     1      -2.549   5.367 -34.767  1.00  0.00     0.117 C 
HETATM   30  C   UNL     1      -4.009   5.130 -35.110  1.00  0.00     0.026 C 
ENDBRANCH  27  29
ENDBRANCH  25  27
ENDBRANCH  23  25
ENDBRANCH  21  23
ENDBRANCH   1  21
BRANCH   2  31
HETATM   31  C   UNL     1      -5.617   5.144 -31.673  1.00  0.00     0.173 C 
BRANCH  31  32
HETATM   32  C   UNL     1      -5.461   5.525 -30.213  1.00  0.00    -0.040 A 
HETATM   33  C   UNL     1      -6.276   5.023 -29.189  1.00  0.00     0.009 A 
HETATM   34  C   UNL     1      -6.099   5.442 -27.869  1.00  0.00     0.001 A 
HETATM   35  C   UNL     1      -5.114   6.375 -27.553  1.00  0.00     0.000 A 
HETATM   36  C   UNL     1      -4.300   6.889 -28.559  1.00  0.00     0.001 A 
HETATM   37  C   UNL     1      -4.471   6.467 -29.878  1.00  0.00     0.009 A 
ENDBRANCH  31  32
ENDBRANCH   2  31
TORSDOF 7
ENDMDL
MODEL 2
REMARK VINA RESULT:      -9.0      2.675      8.201
REMARK  7 active torsions:
REMARK  status: ('A' for Active; 'I' for Inactive)
REMARK    1  A    between atoms: C_2  and  N_3 
REMARK    2  A    between atoms: N_3  and  C_4 
REMARK    3  A    between atoms: C_4  and  N_5 
REMARK    4  A    between atoms: N_5  and  N_6 
REMARK    5  A    between atoms: N_6  and  C_7 
REMARK    6  A    between atoms: N_8  and  C_9 
REMARK    7  A    between atoms: C_9  and  C_10 
ROOT
HETATM    1  C   UNL     1      -5.845   3.169 -30.209  1.00  0.00     0.204 C 
HETATM    2  N   UNL     1      -4.789   2.724 -30.976  1.00  0.00    -0.283 N 
HETATM    3  C   UNL     1      -3.705   3.547 -31.207  1.00  0.00     0.259 C 
HETATM    4  O   UNL     1      -2.603   3.106 -31.519  1.00  0.00    -0.267 OA
HETATM    5  C   UNL     1      -3.928   5.007 -31.035  1.00  0.00     0.049 C 
HETATM    6  C   UNL     1      -5.060   5.334 -30.381  1.00  0.00     0.083 C 
HETATM    7  C   UNL     1      -5.365   6.769 -30.133  1.00  0.00    -0.000 A 
HETATM    8  C   UNL     1      -4.666   7.766 -30.829  1.00  0.00    -0.044 A 
HETATM    9  C   UNL     1      -4.980   9.121 -30.638  1.00  0.00     0.008 A 
HETATM   10  C   UNL     1      -5.979   9.492 -29.741  1.00  0.00     0.001 A 
HETATM   11  C   UNL     1      -6.675   8.513 -29.039  1.00  0.00     0.001 A 
HETATM   12  C   UNL     1      -6.371   7.163 -29.237  1.00  0.00     0.014 A 
HETATM   13  C   UNL     1      -3.640   7.370 -31.853  1.00  0.00     0.054 C 
HETATM   14  C   UNL     1      -2.893   6.039 -31.525  1.00  0.00    -0.002 C 
HETATM   15  C   UNL     1      -1.858   6.241 -30.381  1.00  0.00     0.015 C 
HETATM   16  C   UNL     1      -0.700   7.175 -30.740  1.00  0.00     0.001 C 
HETATM   17  C   UNL     1      -0.009   6.762 -32.033  1.00  0.00     0.000 C 
HETATM   18  C   UNL     1      -0.993   6.605 -33.187  1.00  0.00     0.001 C 
HETATM   19  C   UNL     1      -2.127   5.640 -32.825  1.00  0.00     0.015 C 
HETATM   20  N   UNL     1      -5.962   4.425 -29.888  1.00  0.00    -0.217 NA
ENDROOT
BRANCH   1  21
HETATM   21  N   UNL     1      -6.787   2.267 -29.745  1.00  0.00    -0.171 NA
HETATM   22  H   UNL     1      -6.571   1.742 -28.900  1.00  0.00     0.156 HD
BRANCH  21  23
HETATM   23  N   UNL     1      -8.112   2.757 -29.734  1.00  0.00    -0.291 N 
HETATM   24  H   UNL     1      -8.193   3.617 -29.192  1.00  0.00     0.183 HD
BRANCH  23  25
HETATM   25  C   UNL     1      -8.890   2.630 -30.858  1.00  0.00     0.182 C 
HETATM   26  S   UNL     1      -9.087   3.781 -32.054  1.00  0.00    -0.040 SA
BRANCH  25  27
HETATM   27  N   UNL     1      -9.496   1.415 -31.031  1.00  0.00    -0.367 N 
HETATM   28  H   UNL     1     -10.449   1.391 -30.686  1.00  0.00     0.161 HD
BRANCH  27  29
HETATM   29  C   UNL     1      -9.126   0.376 -31.980  1.00  0.00     0.117 C 
HETATM   30  C   UNL     1     -10.150   0.261 -33.096  1.00  0.00     0.026 C 
ENDBRANCH  27  29
ENDBRANCH  25  27
ENDBRANCH  23  25
ENDBRANCH  21  23
ENDBRANCH   1  21
BRANCH   2  31
HETATM   31  C   UNL     1      -4.686   1.346 -31.448  1.00  0.00     0.173 C 
BRANCH  31  32
HETATM   32  C   UNL     1      -5.443   1.012 -32.719  1.00  0.00    -0.040 A 
HETATM   33  C   UNL     1      -6.096   1.970 -33.507  1.00  0.00     0.009 A 
HETATM   34  C   UNL     1      -6.804   1.589 -34.650  1.00  0.00     0.001 A 
HETATM   35  C   UNL     1      -6.878   0.247 -35.015  1.00  0.00     0.000 A 
HETATM   36  C   UNL     1      -6.242  -0.718 -34.239  1.00  0.00     0.001 A 
HETATM   37  C   UNL     1      -5.529  -0.339 -33.101  1.00  0.00     0.009 A 
ENDBRANCH  31  32
ENDBRANCH   2  31
TORSDOF 7
ENDMDL
MODEL 3
REMARK VINA RESULT:      -8.6      2.577      5.385
REMARK  7 active torsions:
REMARK  status: ('A' for Active; 'I' for Inactive)
REMARK    1  A    between atoms: C_2  and  N_3 
REMARK    2  A    between atoms: N_3  and  C_4 
REMARK    3  A    between atoms: C_4  and  N_5 
REMARK    4  A    between atoms: N_5  and  N_6 
REMARK    5  A    between atoms: N_6  and  C_7 
REMARK    6  A    between atoms: N_8  and  C_9 
REMARK    7  A    between atoms: C_9  and  C_10 
ROOT
HETATM    1  C   UNL     1      -4.399   1.598 -31.787  1.00  0.00     0.204 C 
HETATM    2  N   UNL     1      -4.089   2.912 -31.506  1.00  0.00    -0.283 N 
HETATM    3  C   UNL     1      -5.090   3.806 -31.185  1.00  0.00     0.259 C 
HETATM    4  O   UNL     1      -4.869   4.838 -30.556  1.00  0.00    -0.267 OA
HETATM    5  C   UNL     1      -6.467   3.449 -31.616  1.00  0.00     0.049 C 
HETATM    6  C   UNL     1      -6.628   2.165 -31.992  1.00  0.00     0.083 C 
HETATM    7  C   UNL     1      -7.976   1.698 -32.418  1.00  0.00    -0.000 A 
HETATM    8  C   UNL     1      -8.978   2.630 -32.722  1.00  0.00    -0.044 A 
HETATM    9  C   UNL     1     -10.237   2.200 -33.172  1.00  0.00     0.008 A 
HETATM   10  C   UNL     1     -10.511   0.841 -33.302  1.00  0.00     0.001 A 
HETATM   11  C   UNL     1      -9.527  -0.094 -32.996  1.00  0.00     0.001 A 
HETATM   12  C   UNL     1      -8.269   0.333 -32.560  1.00  0.00     0.014 A 
HETATM   13  C   UNL     1      -8.665   4.099 -32.655  1.00  0.00     0.054 C 
HETATM   14  C   UNL     1      -7.614   4.478 -31.565  1.00  0.00    -0.002 C 
HETATM   15  C   UNL     1      -8.235   4.415 -30.139  1.00  0.00     0.015 C 
HETATM   16  C   UNL     1      -9.338   5.446 -29.888  1.00  0.00     0.001 C 
HETATM   17  C   UNL     1      -8.888   6.862 -30.225  1.00  0.00     0.000 C 
HETATM   18  C   UNL     1      -8.321   6.965 -31.637  1.00  0.00     0.001 C 
HETATM   19  C   UNL     1      -7.195   5.952 -31.861  1.00  0.00     0.015 C 
HETATM   20  N   UNL     1      -5.630   1.225 -31.988  1.00  0.00    -0.217 NA
ENDROOT
BRANCH   1  21
HETATM   21  N   UNL     1      -3.393   0.648 -31.830  1.00  0.00    -0.171 NA
HETATM   22  H   UNL     1      -2.475   0.905 -31.476  1.00  0.00     0.156 HD
BRANCH  21  23
HETATM   23  N   UNL     1      -3.783  -0.638 -31.392  1.00  0.00    -0.291 N 
HETATM   24  H   UNL     1      -4.580  -0.596 -30.756  1.00  0.00     0.183 HD
BRANCH  23  25
HETATM   25  C   UNL     1      -3.709  -1.701 -32.258  1.00  0.00     0.182 C 
HETATM   26  S   UNL     1      -3.026  -3.191 -31.928  1.00  0.00    -0.040 SA
BRANCH  25  27
HETATM   27  N   UNL     1      -4.316  -1.527 -33.471  1.00  0.00    -0.367 N 
HETATM   28  H   UNL     1      -4.009  -0.691 -33.956  1.00  0.00     0.161 HD
BRANCH  27  29
HETATM   29  C   UNL     1      -4.959  -2.548 -34.286  1.00  0.00     0.117 C 
HETATM   30  C   UNL     1      -6.397  -2.173 -34.602  1.00  0.00     0.026 C 
ENDBRANCH  27  29
ENDBRANCH  25  27
ENDBRANCH  23  25
ENDBRANCH  21  23
ENDBRANCH   1  21
BRANCH   2  31
HETATM   31  C   UNL     1      -2.714   3.387 -31.387  1.00  0.00     0.173 C 
BRANCH  31  32
HETATM   32  C   UNL     1      -2.244   4.363 -32.449  1.00  0.00    -0.040 A 
HETATM   33  C   UNL     1      -2.427   4.161 -33.824  1.00  0.00     0.009 A 
HETATM   34  C   UNL     1      -1.940   5.085 -34.750  1.00  0.00     0.001 A 
HETATM   35  C   UNL     1      -1.256   6.220 -34.318  1.00  0.00     0.000 A 
HETATM   36  C   UNL     1      -1.060   6.432 -32.956  1.00  0.00     0.001 A 
HETATM   37  C   UNL     1      -1.551   5.512 -32.029  1.00  0.00     0.009 A 
ENDBRANCH  31  32
ENDBRANCH   2  31
TORSDOF 7
ENDMDL
MODEL 4
REMARK VINA RESULT:      -8.3     16.719     18.021
REMARK  7 active torsions:
REMARK  status: ('A' for Active; 'I' for Inactive)
REMARK    1  A    between atoms: C_2  and  N_3 
REMARK    2  A    between atoms: N_3  and  C_4 
REMARK    3  A    between atoms: C_4  and  N_5 
REMARK    4  A    between atoms: N_5  and  N_6 
REMARK    5  A    between atoms: N_6  and  C_7 
REMARK    6  A    between atoms: N_8  and  C_9 
REMARK    7  A    between atoms: C_9  and  C_10 
ROOT
HETATM    1  C   UNL     1      -4.513 -14.278 -36.309  1.00  0.00     0.204 C 
HETATM    2  N   UNL     1      -5.705 -13.709 -35.914  1.00  0.00    -0.283 N 
HETATM    3  C   UNL     1      -6.765 -13.639 -36.796  1.00  0.00     0.259 C 
HETATM    4  O   UNL     1      -7.927 -13.526 -36.414  1.00  0.00    -0.267 OA
HETATM    5  C   UNL     1      -6.437 -13.735 -38.243  1.00  0.00     0.049 C 
HETATM    6  C   UNL     1      -5.195 -14.184 -38.514  1.00  0.00     0.083 C 
HETATM    7  C   UNL     1      -4.776 -14.342 -39.933  1.00  0.00    -0.000 A 
HETATM    8  C   UNL     1      -5.526 -13.746 -40.957  1.00  0.00    -0.044 A 
HETATM    9  C   UNL     1      -5.110 -13.847 -42.294  1.00  0.00     0.008 A 
HETATM   10  C   UNL     1      -3.957 -14.557 -42.621  1.00  0.00     0.001 A 
HETATM   11  C   UNL     1      -3.209 -15.159 -41.614  1.00  0.00     0.001 A 
HETATM   12  C   UNL     1      -3.614 -15.049 -40.281  1.00  0.00     0.014 A 
HETATM   13  C   UNL     1      -6.728 -12.916 -40.605  1.00  0.00     0.054 C 
HETATM   14  C   UNL     1      -7.481 -13.397 -39.325  1.00  0.00    -0.002 C 
HETATM   15  C   UNL     1      -8.299 -14.691 -39.605  1.00  0.00     0.015 C 
HETATM   16  C   UNL     1      -9.447 -14.505 -40.599  1.00  0.00     0.001 C 
HETATM   17  C   UNL     1     -10.366 -13.355 -40.206  1.00  0.00     0.000 C 
HETATM   18  C   UNL     1      -9.598 -12.058 -39.974  1.00  0.00     0.001 C 
HETATM   19  C   UNL     1      -8.474 -12.252 -38.951  1.00  0.00     0.015 C 
HETATM   20  N   UNL     1      -4.276 -14.544 -37.562  1.00  0.00    -0.217 NA
ENDROOT
BRANCH   1  21
HETATM   21  N   UNL     1      -3.558 -14.604 -35.361  1.00  0.00    -0.171 NA
HETATM   22  H   UNL     1      -3.492 -15.574 -35.061  1.00  0.00     0.156 HD
BRANCH  21  23
HETATM   23  N   UNL     1      -2.284 -14.039 -35.596  1.00  0.00    -0.291 N 
HETATM   24  H   UNL     1      -2.051 -13.329 -34.902  1.00  0.00     0.183 HD
BRANCH  23  25
HETATM   25  C   UNL     1      -1.268 -14.831 -36.070  1.00  0.00     0.182 C 
HETATM   26  S   UNL     1      -0.242 -15.773 -35.146  1.00  0.00    -0.040 SA
BRANCH  25  27
HETATM   27  N   UNL     1      -1.147 -14.897 -37.432  1.00  0.00    -0.367 N 
HETATM   28  H   UNL     1      -1.861 -15.469 -37.869  1.00  0.00     0.161 HD
BRANCH  27  29
HETATM   29  C   UNL     1      -0.450 -13.959 -38.298  1.00  0.00     0.117 C 
HETATM   30  C   UNL     1      -1.309 -12.742 -38.595  1.00  0.00     0.026 C 
ENDBRANCH  27  29
ENDBRANCH  25  27
ENDBRANCH  23  25
ENDBRANCH  21  23
ENDBRANCH   1  21
BRANCH   2  31
HETATM   31  C   UNL     1      -5.960 -13.295 -34.538  1.00  0.00     0.173 C 
BRANCH  31  32
HETATM   32  C   UNL     1      -6.095 -14.406 -33.515  1.00  0.00    -0.040 A 
HETATM   33  C   UNL     1      -6.927 -15.521 -33.686  1.00  0.00     0.009 A 
HETATM   34  C   UNL     1      -7.030 -16.493 -32.688  1.00  0.00     0.001 A 
HETATM   35  C   UNL     1      -6.311 -16.360 -31.502  1.00  0.00     0.000 A 
HETATM   36  C   UNL     1      -5.486 -15.256 -31.313  1.00  0.00     0.001 A 
HETATM   37  C   UNL     1      -5.377 -14.287 -32.311  1.00  0.00     0.009 A 
ENDBRANCH  31  32
ENDBRANCH   2  31
TORSDOF 7
ENDMDL
MODEL 5
REMARK VINA RESULT:      -8.2      1.870      2.413
REMARK  7 active torsions:
REMARK  status: ('A' for Active; 'I' for Inactive)
REMARK    1  A    between atoms: C_2  and  N_3 
REMARK    2  A    between atoms: N_3  and  C_4 
REMARK    3  A    between atoms: C_4  and  N_5 
REMARK    4  A    between atoms: N_5  and  N_6 
REMARK    5  A    between atoms: N_6  and  C_7 
REMARK    6  A    between atoms: N_8  and  C_9 
REMARK    7  A    between atoms: C_9  and  C_10 
ROOT
HETATM    1  C   UNL     1      -6.279   2.681 -30.637  1.00  0.00     0.204 C 
HETATM    2  N   UNL     1      -7.503   3.315 -30.654  1.00  0.00    -0.283 N 
HETATM    3  C   UNL     1      -8.591   2.705 -31.245  1.00  0.00     0.259 C 
HETATM    4  O   UNL     1      -9.747   3.006 -30.957  1.00  0.00    -0.267 OA
HETATM    5  C   UNL     1      -8.299   1.637 -32.237  1.00  0.00     0.049 C 
HETATM    6  C   UNL     1      -7.033   1.177 -32.219  1.00  0.00     0.083 C 
HETATM    7  C   UNL     1      -6.644   0.088 -33.156  1.00  0.00    -0.000 A 
HETATM    8  C   UNL     1      -7.472  -0.235 -34.240  1.00  0.00    -0.044 A 
HETATM    9  C   UNL     1      -7.090  -1.227 -35.157  1.00  0.00     0.008 A 
HETATM   10  C   UNL     1      -5.890  -1.915 -34.990  1.00  0.00     0.001 A 
HETATM   11  C   UNL     1      -5.063  -1.609 -33.914  1.00  0.00     0.001 A 
HETATM   12  C   UNL     1      -5.437  -0.613 -33.007  1.00  0.00     0.014 A 
HETATM   13  C   UNL     1      -8.731   0.555 -34.468  1.00  0.00     0.054 C 
HETATM   14  C   UNL     1      -9.401   1.078 -33.159  1.00  0.00    -0.002 C 
HETATM   15  C   UNL     1     -10.112  -0.074 -32.392  1.00  0.00     0.015 C 
HETATM   16  C   UNL     1     -11.302  -0.684 -33.136  1.00  0.00     0.001 C 
HETATM   17  C   UNL     1     -12.304   0.373 -33.581  1.00  0.00     0.000 C 
HETATM   18  C   UNL     1     -11.644   1.491 -34.381  1.00  0.00     0.001 C 
HETATM   19  C   UNL     1     -10.477   2.115 -33.608  1.00  0.00     0.015 C 
HETATM   20  N   UNL     1      -6.057   1.625 -31.365  1.00  0.00    -0.217 NA
ENDROOT
BRANCH   1  21
HETATM   21  N   UNL     1      -5.271   3.152 -29.812  1.00  0.00    -0.171 NA
HETATM   22  H   UNL     1      -5.201   2.766 -28.874  1.00  0.00     0.156 HD
BRANCH  21  23
HETATM   23  N   UNL     1      -4.006   3.254 -30.434  1.00  0.00    -0.291 N 
HETATM   24  H   UNL     1      -3.570   2.340 -30.557  1.00  0.00     0.183 HD
BRANCH  23  25
HETATM   25  C   UNL     1      -3.804   4.199 -31.409  1.00  0.00     0.182 C 
HETATM   26  S   UNL     1      -3.130   5.712 -31.187  1.00  0.00    -0.040 SA
BRANCH  25  27
HETATM   27  N   UNL     1      -4.126   3.820 -32.684  1.00  0.00    -0.367 N 
HETATM   28  H   UNL     1      -4.291   2.824 -32.775  1.00  0.00     0.161 HD
BRANCH  27  29
HETATM   29  C   UNL     1      -4.661   4.664 -33.743  1.00  0.00     0.117 C 
HETATM   30  C   UNL     1      -6.170   4.528 -33.844  1.00  0.00     0.026 C 
ENDBRANCH  27  29
ENDBRANCH  25  27
ENDBRANCH  23  25
ENDBRANCH  21  23
ENDBRANCH   1  21
BRANCH   2  31
HETATM   31  C   UNL     1      -7.751   4.564 -29.940  1.00  0.00     0.173 C 
BRANCH  31  32
HETATM   32  C   UNL     1      -7.724   5.832 -30.771  1.00  0.00    -0.040 A 
HETATM   33  C   UNL     1      -8.772   6.231 -31.611  1.00  0.00     0.009 A 
HETATM   34  C   UNL     1      -8.668   7.396 -32.376  1.00  0.00     0.001 A 
HETATM   35  C   UNL     1      -7.513   8.173 -32.317  1.00  0.00     0.000 A 
HETATM   36  C   UNL     1      -6.461   7.788 -31.492  1.00  0.00     0.001 A 
HETATM   37  C   UNL     1      -6.565   6.628 -30.724  1.00  0.00     0.009 A 
ENDBRANCH  31  32
ENDBRANCH   2  31
TORSDOF 7
ENDMDL
MODEL 6
REMARK VINA RESULT:      -8.2      3.568      8.190
REMARK  7 active torsions:
REMARK  status: ('A' for Active; 'I' for Inactive)
REMARK    1  A    between atoms: C_2  and  N_3 
REMARK    2  A    between atoms: N_3  and  C_4 
REMARK    3  A    between atoms: C_4  and  N_5 
REMARK    4  A    between atoms: N_5  and  N_6 
REMARK    5  A    between atoms: N_6  and  C_7 
REMARK    6  A    between atoms: N_8  and  C_9 
REMARK    7  A    between atoms: C_9  and  C_10 
ROOT
HETATM    1  C   UNL     1      -8.673   3.126 -31.091  1.00  0.00     0.204 C 
HETATM    2  N   UNL     1      -8.218   2.652 -32.303  1.00  0.00    -0.283 N 
HETATM    3  C   UNL     1      -6.966   3.010 -32.761  1.00  0.00     0.259 C 
HETATM    4  O   UNL     1      -6.356   2.340 -33.590  1.00  0.00    -0.267 OA
HETATM    5  C   UNL     1      -6.371   4.243 -32.181  1.00  0.00     0.049 C 
HETATM    6  C   UNL     1      -6.976   4.693 -31.064  1.00  0.00     0.083 C 
HETATM    7  C   UNL     1      -6.442   5.907 -30.389  1.00  0.00    -0.000 A 
HETATM    8  C   UNL     1      -5.537   6.742 -31.060  1.00  0.00    -0.044 A 
HETATM    9  C   UNL     1      -5.066   7.916 -30.450  1.00  0.00     0.008 A 
HETATM   10  C   UNL     1      -5.477   8.254 -29.164  1.00  0.00     0.001 A 
HETATM   11  C   UNL     1      -6.369   7.430 -28.485  1.00  0.00     0.001 A 
HETATM   12  C   UNL     1      -6.849   6.268 -29.095  1.00  0.00     0.014 A 
HETATM   13  C   UNL     1      -5.147   6.422 -32.476  1.00  0.00     0.054 C 
HETATM   14  C   UNL     1      -5.119   4.895 -32.800  1.00  0.00    -0.002 C 
HETATM   15  C   UNL     1      -3.874   4.209 -32.168  1.00  0.00     0.015 C 
HETATM   16  C   UNL     1      -2.536   4.680 -32.743  1.00  0.00     0.001 C 
HETATM   17  C   UNL     1      -2.499   4.583 -34.263  1.00  0.00     0.000 C 
HETATM   18  C   UNL     1      -3.682   5.291 -34.915  1.00  0.00     0.001 C 
HETATM   19  C   UNL     1      -5.014   4.783 -34.353  1.00  0.00     0.015 C 
HETATM   20  N   UNL     1      -8.055   4.090 -30.470  1.00  0.00    -0.217 NA
ENDROOT
BRANCH   1  21
HETATM   21  N   UNL     1      -9.789   2.555 -30.503  1.00  0.00    -0.171 NA
HETATM   22  H   UNL     1      -9.644   1.832 -29.803  1.00  0.00     0.156 HD
BRANCH  21  23
HETATM   23  N   UNL     1     -10.779   3.481 -30.104  1.00  0.00    -0.291 N 
HETATM   24  H   UNL     1     -10.463   4.062 -29.327  1.00  0.00     0.183 HD
BRANCH  23  25
HETATM   25  C   UNL     1     -11.587   4.060 -31.051  1.00  0.00     0.182 C 
HETATM   26  S   UNL     1     -11.459   5.622 -31.631  1.00  0.00    -0.040 SA
BRANCH  25  27
HETATM   27  N   UNL     1     -12.533   3.244 -31.609  1.00  0.00    -0.367 N 
HETATM   28  H   UNL     1     -12.505   2.296 -31.249  1.00  0.00     0.161 HD
BRANCH  27  29
HETATM   29  C   UNL     1     -13.765   3.649 -32.269  1.00  0.00     0.117 C 
HETATM   30  C   UNL     1     -14.712   2.473 -32.435  1.00  0.00     0.026 C 
ENDBRANCH  27  29
ENDBRANCH  25  27
ENDBRANCH  23  25
ENDBRANCH  21  23
ENDBRANCH   1  21
BRANCH   2  31
HETATM   31  C   UNL     1      -8.947   1.654 -33.080  1.00  0.00     0.173 C 
BRANCH  31  32
HETATM   32  C   UNL     1     -10.044   2.176 -33.987  1.00  0.00    -0.040 A 
HETATM   33  C   UNL     1     -10.072   3.481 -34.497  1.00  0.00     0.009 A 
HETATM   34  C   UNL     1     -11.132   3.908 -35.302  1.00  0.00     0.001 A 
HETATM   35  C   UNL     1     -12.181   3.041 -35.601  1.00  0.00     0.000 A 
HETATM   36  C   UNL     1     -12.171   1.743 -35.096  1.00  0.00     0.001 A 
HETATM   37  C   UNL     1     -11.111   1.314 -34.297  1.00  0.00     0.009 A 
ENDBRANCH  31  32
ENDBRANCH   2  31
TORSDOF 7
ENDMDL
MODEL 7
REMARK VINA RESULT:      -8.2      2.753      5.206
REMARK  7 active torsions:
REMARK  status: ('A' for Active; 'I' for Inactive)
REMARK    1  A    between atoms: C_2  and  N_3 
REMARK    2  A    between atoms: N_3  and  C_4 
REMARK    3  A    between atoms: C_4  and  N_5 
REMARK    4  A    between atoms: N_5  and  N_6 
REMARK    5  A    between atoms: N_6  and  C_7 
REMARK    6  A    between atoms: N_8  and  C_9 
REMARK    7  A    between atoms: C_9  and  C_10 
ROOT
HETATM    1  C   UNL     1      -8.415   4.908 -33.961  1.00  0.00     0.204 C 
HETATM    2  N   UNL     1      -7.112   4.531 -33.716  1.00  0.00    -0.283 N 
HETATM    3  C   UNL     1      -6.746   3.203 -33.807  1.00  0.00     0.259 C 
HETATM    4  O   UNL     1      -5.583   2.855 -33.996  1.00  0.00    -0.267 OA
HETATM    5  C   UNL     1      -7.838   2.201 -33.691  1.00  0.00     0.049 C 
HETATM    6  C   UNL     1      -9.083   2.702 -33.820  1.00  0.00     0.083 C 
HETATM    7  C   UNL     1     -10.247   1.778 -33.745  1.00  0.00    -0.000 A 
HETATM    8  C   UNL     1     -10.082   0.479 -33.243  1.00  0.00    -0.044 A 
HETATM    9  C   UNL     1     -11.184  -0.383 -33.122  1.00  0.00     0.008 A 
HETATM   10  C   UNL     1     -12.451   0.036 -33.518  1.00  0.00     0.001 A 
HETATM   11  C   UNL     1     -12.627   1.320 -34.026  1.00  0.00     0.001 A 
HETATM   12  C   UNL     1     -11.533   2.183 -34.134  1.00  0.00     0.014 A 
HETATM   13  C   UNL     1      -8.732   0.047 -32.743  1.00  0.00     0.054 C 
HETATM   14  C   UNL     1      -7.533   0.702 -33.500  1.00  0.00    -0.002 C 
HETATM   15  C   UNL     1      -7.351   0.078 -34.914  1.00  0.00     0.015 C 
HETATM   16  C   UNL     1      -6.950  -1.398 -34.902  1.00  0.00     0.001 C 
HETATM   17  C   UNL     1      -5.726  -1.654 -34.032  1.00  0.00     0.000 C 
HETATM   18  C   UNL     1      -5.895  -1.098 -32.622  1.00  0.00     0.001 C 
HETATM   19  C   UNL     1      -6.262   0.389 -32.650  1.00  0.00     0.015 C 
HETATM   20  N   UNL     1      -9.367   4.024 -34.048  1.00  0.00    -0.217 NA
ENDROOT
BRANCH   1  21
HETATM   21  N   UNL     1      -8.721   6.245 -34.147  1.00  0.00    -0.171 NA
HETATM   22  H   UNL     1      -8.950   6.557 -35.088  1.00  0.00     0.156 HD
BRANCH  21  23
HETATM   23  N   UNL     1      -9.607   6.783 -33.186  1.00  0.00    -0.291 N 
HETATM   24  H   UNL     1     -10.475   6.250 -33.132  1.00  0.00     0.183 HD
BRANCH  23  25
HETATM   25  C   UNL     1      -9.104   7.313 -32.024  1.00  0.00     0.182 C 
HETATM   26  S   UNL     1      -8.150   8.680 -31.899  1.00  0.00    -0.040 SA
BRANCH  25  27
HETATM   27  N   UNL     1      -9.490   6.693 -30.868  1.00  0.00    -0.367 N 
HETATM   28  H   UNL     1      -9.293   7.240 -30.036  1.00  0.00     0.161 HD
BRANCH  27  29
HETATM   29  C   UNL     1     -10.478   5.634 -30.726  1.00  0.00     0.117 C 
HETATM   30  C   UNL     1      -9.812   4.289 -30.491  1.00  0.00     0.026 C 
ENDBRANCH  27  29
ENDBRANCH  25  27
ENDBRANCH  23  25
ENDBRANCH  21  23
ENDBRANCH   1  21
BRANCH   2  31
HETATM   31  C   UNL     1      -6.040   5.499 -33.501  1.00  0.00     0.173 C 
BRANCH  31  32
HETATM   32  C   UNL     1      -5.673   5.787 -32.058  1.00  0.00    -0.040 A 
HETATM   33  C   UNL     1      -6.215   5.094 -30.967  1.00  0.00     0.009 A 
HETATM   34  C   UNL     1      -5.857   5.433 -29.660  1.00  0.00     0.001 A 
HETATM   35  C   UNL     1      -4.961   6.473 -29.424  1.00  0.00     0.000 A 
HETATM   36  C   UNL     1      -4.419   7.176 -30.496  1.00  0.00     0.001 A 
HETATM   37  C   UNL     1      -4.771   6.835 -31.803  1.00  0.00     0.009 A 
ENDBRANCH  31  32
ENDBRANCH   2  31
TORSDOF 7
ENDMDL
MODEL 8
REMARK VINA RESULT:      -8.1      2.546      7.860
REMARK  7 active torsions:
REMARK  status: ('A' for Active; 'I' for Inactive)
REMARK    1  A    between atoms: C_2  and  N_3 
REMARK    2  A    between atoms: N_3  and  C_4 
REMARK    3  A    between atoms: C_4  and  N_5 
REMARK    4  A    between atoms: N_5  and  N_6 
REMARK    5  A    between atoms: N_6  and  C_7 
REMARK    6  A    between atoms: N_8  and  C_9 
REMARK    7  A    between atoms: C_9  and  C_10 
ROOT
HETATM    1  C   UNL     1      -7.298   2.761 -31.142  1.00  0.00     0.204 C 
HETATM    2  N   UNL     1      -6.840   2.716 -32.441  1.00  0.00    -0.283 N 
HETATM    3  C   UNL     1      -5.630   3.296 -32.769  1.00  0.00     0.259 C 
HETATM    4  O   UNL     1      -4.993   2.962 -33.765  1.00  0.00    -0.267 OA
HETATM    5  C   UNL     1      -5.115   4.336 -31.840  1.00  0.00     0.049 C 
HETATM    6  C   UNL     1      -5.724   4.374 -30.638  1.00  0.00     0.083 C 
HETATM    7  C   UNL     1      -5.266   5.362 -29.625  1.00  0.00    -0.000 A 
HETATM    8  C   UNL     1      -4.443   6.431 -30.008  1.00  0.00    -0.044 A 
HETATM    9  C   UNL     1      -4.047   7.396 -29.068  1.00  0.00     0.008 A 
HETATM   10  C   UNL     1      -4.450   7.292 -27.739  1.00  0.00     0.001 A 
HETATM   11  C   UNL     1      -5.260   6.231 -27.345  1.00  0.00     0.001 A 
HETATM   12  C   UNL     1      -5.666   5.277 -28.282  1.00  0.00     0.014 A 
HETATM   13  C   UNL     1      -4.067   6.591 -31.454  1.00  0.00     0.054 C 
HETATM   14  C   UNL     1      -3.932   5.244 -32.230  1.00  0.00    -0.002 C 
HETATM   15  C   UNL     1      -2.623   4.498 -31.841  1.00  0.00     0.015 C 
HETATM   16  C   UNL     1      -1.340   5.228 -32.245  1.00  0.00     0.001 C 
HETATM   17  C   UNL     1      -1.335   5.603 -33.722  1.00  0.00     0.000 C 
HETATM   18  C   UNL     1      -2.584   6.380 -34.124  1.00  0.00     0.001 C 
HETATM   19  C   UNL     1      -3.859   5.620 -33.743  1.00  0.00     0.015 C 
HETATM   20  N   UNL     1      -6.739   3.534 -30.256  1.00  0.00    -0.217 NA
ENDROOT
BRANCH   1  21
HETATM   21  N   UNL     1      -8.352   1.950 -30.756  1.00  0.00    -0.171 NA
HETATM   22  H   UNL     1      -8.159   1.188 -30.111  1.00  0.00     0.156 HD
BRANCH  21  23
HETATM   23  N   UNL     1      -9.530   2.649 -30.406  1.00  0.00    -0.291 N 
HETATM   24  H   UNL     1      -9.446   3.101 -29.495  1.00  0.00     0.183 HD
BRANCH  23  25
HETATM   25  C   UNL     1     -10.249   3.296 -31.380  1.00  0.00     0.182 C 
HETATM   26  S   UNL     1     -10.298   4.948 -31.632  1.00  0.00    -0.040 SA
BRANCH  25  27
HETATM   27  N   UNL     1     -10.924   2.493 -32.258  1.00  0.00    -0.367 N 
HETATM   28  H   UNL     1     -11.261   1.634 -31.836  1.00  0.00     0.161 HD
BRANCH  27  29
HETATM   29  C   UNL     1     -11.558   2.892 -33.506  1.00  0.00     0.117 C 
HETATM   30  C   UNL     1     -11.376   1.832 -34.578  1.00  0.00     0.026 C 
ENDBRANCH  27  29
ENDBRANCH  25  27
ENDBRANCH  23  25
ENDBRANCH  21  23
ENDBRANCH   1  21
BRANCH   2  31
HETATM   31  C   UNL     1      -7.510   1.949 -33.486  1.00  0.00     0.173 C 
BRANCH  31  32
HETATM   32  C   UNL     1      -6.972   0.556 -33.750  1.00  0.00    -0.040 A 
HETATM   33  C   UNL     1      -7.335  -0.219 -34.860  1.00  0.00     0.009 A 
HETATM   34  C   UNL     1      -6.826  -1.509 -35.025  1.00  0.00     0.001 A 
HETATM   35  C   UNL     1      -5.955  -2.047 -34.080  1.00  0.00     0.000 A 
HETATM   36  C   UNL     1      -5.589  -1.293 -32.969  1.00  0.00     0.001 A 
HETATM   37  C   UNL     1      -6.092  -0.002 -32.805  1.00  0.00     0.009 A 
ENDBRANCH  31  32
ENDBRANCH   2  31
TORSDOF 7
ENDMDL
MODEL 9
REMARK VINA RESULT:      -8.1      2.401      5.308
REMARK  7 active torsions:
REMARK  status: ('A' for Active; 'I' for Inactive)
REMARK    1  A    between atoms: C_2  and  N_3 
REMARK    2  A    between atoms: N_3  and  C_4 
REMARK    3  A    between atoms: C_4  and  N_5 
REMARK    4  A    between atoms: N_5  and  N_6 
REMARK    5  A    between atoms: N_6  and  C_7 
REMARK    6  A    between atoms: N_8  and  C_9 
REMARK    7  A    between atoms: C_9  and  C_10 
ROOT
HETATM    1  C   UNL     1      -6.497   5.446 -32.982  1.00  0.00     0.204 C 
HETATM    2  N   UNL     1      -5.570   4.532 -32.530  1.00  0.00    -0.283 N 
HETATM    3  C   UNL     1      -5.670   3.204 -32.897  1.00  0.00     0.259 C 
HETATM    4  O   UNL     1      -4.706   2.444 -32.872  1.00  0.00    -0.267 OA
HETATM    5  C   UNL     1      -7.006   2.737 -33.353  1.00  0.00     0.049 C 
HETATM    6  C   UNL     1      -7.879   3.720 -33.649  1.00  0.00     0.083 C 
HETATM    7  C   UNL     1      -9.237   3.359 -34.140  1.00  0.00    -0.000 A 
HETATM    8  C   UNL     1      -9.708   2.045 -34.002  1.00  0.00    -0.044 A 
HETATM    9  C   UNL     1     -11.006   1.707 -34.416  1.00  0.00     0.008 A 
HETATM   10  C   UNL     1     -11.835   2.669 -34.988  1.00  0.00     0.001 A 
HETATM   11  C   UNL     1     -11.376   3.974 -35.138  1.00  0.00     0.001 A 
HETATM   12  C   UNL     1     -10.089   4.316 -34.714  1.00  0.00     0.014 A 
HETATM   13  C   UNL     1      -8.847   1.021 -33.317  1.00  0.00     0.054 C 
HETATM   14  C   UNL     1      -7.314   1.237 -33.523  1.00  0.00    -0.002 C 
HETATM   15  C   UNL     1      -6.877   0.830 -34.960  1.00  0.00     0.015 C 
HETATM   16  C   UNL     1      -7.032  -0.661 -35.266  1.00  0.00     0.001 C 
HETATM   17  C   UNL     1      -6.350  -1.535 -34.221  1.00  0.00     0.000 C 
HETATM   18  C   UNL     1      -6.797  -1.194 -32.804  1.00  0.00     0.001 C 
HETATM   19  C   UNL     1      -6.603   0.295 -32.502  1.00  0.00     0.015 C 
HETATM   20  N   UNL     1      -7.600   5.060 -33.557  1.00  0.00    -0.217 NA
ENDROOT
BRANCH   1  21
HETATM   21  N   UNL     1      -6.246   6.802 -32.854  1.00  0.00    -0.171 NA
HETATM   22  H   UNL     1      -5.992   7.323 -33.690  1.00  0.00     0.156 HD
BRANCH  21  23
HETATM   23  N   UNL     1      -7.190   7.500 -32.067  1.00  0.00    -0.291 N 
HETATM   24  H   UNL     1      -8.093   7.575 -32.536  1.00  0.00     0.183 HD
BRANCH  23  25
HETATM   25  C   UNL     1      -7.185   7.340 -30.703  1.00  0.00     0.182 C 
HETATM   26  S   UNL     1      -5.926   7.726 -29.673  1.00  0.00    -0.040 SA
BRANCH  25  27
HETATM   27  N   UNL     1      -8.352   6.890 -30.150  1.00  0.00    -0.367 N 
HETATM   28  H   UNL     1      -8.494   7.214 -29.199  1.00  0.00     0.161 HD
BRANCH  27  29
HETATM   29  C   UNL     1      -9.534   6.416 -30.855  1.00  0.00     0.117 C 
HETATM   30  C   UNL     1      -9.741   4.927 -30.640  1.00  0.00     0.026 C 
ENDBRANCH  27  29
ENDBRANCH  25  27
ENDBRANCH  23  25
ENDBRANCH  21  23
ENDBRANCH   1  21
BRANCH   2  31
HETATM   31  C   UNL     1      -4.380   4.924 -31.782  1.00  0.00     0.173 C 
BRANCH  31  32
HETATM   32  C   UNL     1      -3.266   5.573 -32.581  1.00  0.00    -0.040 A 
HETATM   33  C   UNL     1      -2.615   4.947 -33.653  1.00  0.00     0.009 A 
HETATM   34  C   UNL     1      -1.573   5.590 -34.326  1.00  0.00     0.001 A 
HETATM   35  C   UNL     1      -1.161   6.861 -33.932  1.00  0.00     0.000 A 
HETATM   36  C   UNL     1      -1.793   7.494 -32.866  1.00  0.00     0.001 A 
HETATM   37  C   UNL     1      -2.838   6.856 -32.196  1.00  0.00     0.009 A 
ENDBRANCH  31  32
ENDBRANCH   2  31
TORSDOF 7
ENDMDL
MODEL 10
REMARK VINA RESULT:      -8.1     16.714     19.710
REMARK  7 active torsions:
REMARK  status: ('A' for Active; 'I' for Inactive)
REMARK    1  A    between atoms: C_2  and  N_3 
REMARK    2  A    between atoms: N_3  and  C_4 
REMARK    3  A    between atoms: C_4  and  N_5 
REMARK    4  A    between atoms: N_5  and  N_6 
REMARK    5  A    between atoms: N_6  and  C_7 
REMARK    6  A    between atoms: N_8  and  C_9 
REMARK    7  A    between atoms: C_9  and  C_10 
ROOT
HETATM    1  C   UNL     1      -5.733 -15.863 -38.140  1.00  0.00     0.204 C 
HETATM    2  N   UNL     1      -6.527 -15.845 -39.266  1.00  0.00    -0.283 N 
HETATM    3  C   UNL     1      -5.954 -15.924 -40.520  1.00  0.00     0.259 C 
HETATM    4  O   UNL     1      -6.583 -16.306 -41.504  1.00  0.00    -0.267 OA
HETATM    5  C   UNL     1      -4.520 -15.548 -40.623  1.00  0.00     0.049 C 
HETATM    6  C   UNL     1      -3.868 -15.471 -39.445  1.00  0.00     0.083 C 
HETATM    7  C   UNL     1      -2.421 -15.127 -39.439  1.00  0.00    -0.000 A 
HETATM    8  C   UNL     1      -1.822 -14.589 -40.588  1.00  0.00    -0.044 A 
HETATM    9  C   UNL     1      -0.469 -14.215 -40.576  1.00  0.00     0.008 A 
HETATM   10  C   UNL     1       0.300 -14.391 -39.429  1.00  0.00     0.001 A 
HETATM   11  C   UNL     1      -0.280 -14.932 -38.285  1.00  0.00     0.001 A 
HETATM   12  C   UNL     1      -1.630 -15.293 -38.291  1.00  0.00     0.014 A 
HETATM   13  C   UNL     1      -2.664 -14.326 -41.805  1.00  0.00     0.054 C 
HETATM   14  C   UNL     1      -3.845 -15.330 -41.992  1.00  0.00    -0.002 C 
HETATM   15  C   UNL     1      -3.335 -16.714 -42.487  1.00  0.00     0.015 C 
HETATM   16  C   UNL     1      -2.714 -16.691 -43.885  1.00  0.00     0.001 C 
HETATM   17  C   UNL     1      -3.639 -16.051 -44.913  1.00  0.00     0.000 C 
HETATM   18  C   UNL     1      -4.115 -14.669 -44.478  1.00  0.00     0.001 C 
HETATM   19  C   UNL     1      -4.766 -14.715 -43.092  1.00  0.00     0.015 C 
HETATM   20  N   UNL     1      -4.441 -15.720 -38.224  1.00  0.00    -0.217 NA
ENDROOT
BRANCH   1  21
HETATM   21  N   UNL     1      -6.306 -16.068 -36.897  1.00  0.00    -0.171 NA
HETATM   22  H   UNL     1      -6.556 -17.018 -36.635  1.00  0.00     0.156 HD
BRANCH  21  23
HETATM   23  N   UNL     1      -5.667 -15.383 -35.838  1.00  0.00    -0.291 N 
HETATM   24  H   UNL     1      -4.673 -15.604 -35.790  1.00  0.00     0.183 HD
BRANCH  23  25
HETATM   25  C   UNL     1      -6.058 -14.105 -35.525  1.00  0.00     0.182 C 
HETATM   26  S   UNL     1      -7.042 -13.662 -34.248  1.00  0.00    -0.040 SA
BRANCH  25  27
HETATM   27  N   UNL     1      -5.524 -13.110 -36.298  1.00  0.00    -0.367 N 
HETATM   28  H   UNL     1      -6.182 -12.364 -36.498  1.00  0.00     0.161 HD
BRANCH  27  29
HETATM   29  C   UNL     1      -4.115 -12.795 -36.476  1.00  0.00     0.117 C 
HETATM   30  C   UNL     1      -3.843 -12.261 -37.872  1.00  0.00     0.026 C 
ENDBRANCH  27  29
ENDBRANCH  25  27
ENDBRANCH  23  25
ENDBRANCH  21  23
ENDBRANCH   1  21
BRANCH   2  31
HETATM   31  C   UNL     1      -7.985 -15.890 -39.201  1.00  0.00     0.173 C 
BRANCH  31  32
HETATM   32  C   UNL     1      -8.713 -14.594 -39.503  1.00  0.00    -0.040 A 
HETATM   33  C   UNL     1      -8.156 -13.325 -39.296  1.00  0.00     0.009 A 
HETATM   34  C   UNL     1      -8.895 -12.171 -39.565  1.00  0.00     0.001 A 
HETATM   35  C   UNL     1     -10.203 -12.267 -40.035  1.00  0.00     0.000 A 
HETATM   36  C   UNL     1     -10.774 -13.520 -40.240  1.00  0.00     0.001 A 
HETATM   37  C   UNL     1     -10.035 -14.675 -39.977  1.00  0.00     0.009 A 
ENDBRANCH  31  32
ENDBRANCH   2  31
TORSDOF 7
ENDMDL
