MODEL 1
REMARK VINA RESULT:      -8.3      0.000      0.000
REMARK  4 active torsions:
REMARK  status: ('A' for Active; 'I' for Inactive)
REMARK    1  A    between atoms: C_6  and  C_7 
REMARK       I    between atoms: C_7  and  N_8 
REMARK    2  A    between atoms: N_8  and  C_9 
REMARK    3  A    between atoms: C_9  and  C_10 
REMARK    4  A    between atoms: C_19  and  O_20 
ROOT
HETATM    1  C   UNL     1      -8.381   3.681 -33.860  1.00  0.00     0.078 C 
HETATM    2  C   UNL     1      -9.500   2.714 -33.790  1.00  0.00     0.066 A 
HETATM    3  O   UNL     1     -10.696   3.155 -34.262  1.00  0.00    -0.314 OA
HETATM    4  C   UNL     1     -11.586   2.143 -34.108  1.00  0.00     0.087 A 
HETATM    5  C   UNL     1     -10.970   1.033 -33.533  1.00  0.00     0.019 A 
HETATM    6  C   UNL     1      -9.595   1.399 -33.349  1.00  0.00     0.074 A 
HETATM    7  C   UNL     1     -12.931   2.207 -34.467  1.00  0.00     0.041 A 
HETATM    8  C   UNL     1     -13.706   1.072 -34.215  1.00  0.00     0.039 A 
HETATM    9  C   UNL     1     -13.132  -0.051 -33.624  1.00  0.00     0.066 A 
HETATM   10  C   UNL     1     -11.778  -0.094 -33.271  1.00  0.00     0.052 A 
ENDROOT
BRANCH   6  11
HETATM   11  C   UNL     1      -8.460   0.655 -32.823  1.00  0.00     0.255 C 
HETATM   12  N   UNL     1      -7.534   0.243 -33.755  1.00  0.00    -0.353 N 
HETATM   13  H   UNL     1      -7.600   0.602 -34.696  1.00  0.00     0.163 HD
HETATM   14  O   UNL     1      -8.304   0.462 -31.620  1.00  0.00    -0.268 OA
BRANCH  12  15
HETATM   15  C   UNL     1      -6.273  -0.301 -33.310  1.00  0.00     0.161 C 
BRANCH  15  16
HETATM   16  C   UNL     1      -6.019  -1.694 -33.826  1.00  0.00    -0.041 A 
HETATM   17  C   UNL     1      -7.063  -2.478 -34.343  1.00  0.00     0.009 A 
HETATM   18  C   UNL     1      -6.807  -3.749 -34.861  1.00  0.00     0.001 A 
HETATM   19  C   UNL     1      -5.506  -4.247 -34.880  1.00  0.00     0.000 A 
HETATM   20  C   UNL     1      -4.459  -3.476 -34.381  1.00  0.00     0.001 A 
HETATM   21  C   UNL     1      -4.714  -2.207 -33.856  1.00  0.00     0.009 A 
ENDBRANCH  15  16
ENDBRANCH  12  15
ENDBRANCH   6  11
BRANCH   9  22
HETATM   22  O   UNL     1     -13.879  -1.163 -33.359  1.00  0.00    -0.361 OA
HETATM   23  H   UNL     1     -13.929  -1.286 -32.398  1.00  0.00     0.217 HD
ENDBRANCH   9  22
TORSDOF 4
ENDMDL
MODEL 2
REMARK VINA RESULT:      -8.3      2.340      6.915
REMARK  4 active torsions:
REMARK  status: ('A' for Active; 'I' for Inactive)
REMARK    1  A    between atoms: C_6  and  C_7 
REMARK       I    between atoms: C_7  and  N_8 
REMARK    2  A    between atoms: N_8  and  C_9 
REMARK    3  A    between atoms: C_9  and  C_10 
REMARK    4  A    between atoms: C_19  and  O_20 
ROOT
HETATM    1  C   UNL     1      -3.747   0.785 -32.512  1.00  0.00     0.078 C 
HETATM    2  C   UNL     1      -4.379  -0.415 -33.105  1.00  0.00     0.066 A 
HETATM    3  O   UNL     1      -3.663  -1.567 -33.017  1.00  0.00    -0.314 OA
HETATM    4  C   UNL     1      -4.394  -2.540 -33.615  1.00  0.00     0.087 A 
HETATM    5  C   UNL     1      -5.595  -2.025 -34.097  1.00  0.00     0.019 A 
HETATM    6  C   UNL     1      -5.596  -0.634 -33.739  1.00  0.00     0.074 A 
HETATM    7  C   UNL     1      -3.995  -3.870 -33.738  1.00  0.00     0.041 A 
HETATM    8  C   UNL     1      -4.870  -4.732 -34.405  1.00  0.00     0.039 A 
HETATM    9  C   UNL     1      -6.071  -4.250 -34.919  1.00  0.00     0.066 A 
HETATM   10  C   UNL     1      -6.452  -2.909 -34.784  1.00  0.00     0.052 A 
ENDROOT
BRANCH   6  11
HETATM   11  C   UNL     1      -6.584   0.414 -33.944  1.00  0.00     0.255 C 
HETATM   12  N   UNL     1      -7.377   0.705 -32.856  1.00  0.00    -0.353 N 
HETATM   13  H   UNL     1      -7.136   0.310 -31.960  1.00  0.00     0.163 HD
HETATM   14  O   UNL     1      -6.665   1.042 -34.996  1.00  0.00    -0.268 OA
BRANCH  12  15
HETATM   15  C   UNL     1      -8.227   1.872 -32.889  1.00  0.00     0.161 C 
BRANCH  15  16
HETATM   16  C   UNL     1      -9.610   1.579 -33.410  1.00  0.00    -0.041 A 
HETATM   17  C   UNL     1     -10.324   0.450 -32.977  1.00  0.00     0.009 A 
HETATM   18  C   UNL     1     -11.623   0.213 -33.431  1.00  0.00     0.001 A 
HETATM   19  C   UNL     1     -12.228   1.107 -34.312  1.00  0.00     0.000 A 
HETATM   20  C   UNL     1     -11.536   2.237 -34.741  1.00  0.00     0.001 A 
HETATM   21  C   UNL     1     -10.234   2.471 -34.294  1.00  0.00     0.009 A 
ENDBRANCH  15  16
ENDBRANCH  12  15
ENDBRANCH   6  11
BRANCH   9  22
HETATM   22  O   UNL     1      -6.931  -5.077 -35.585  1.00  0.00    -0.361 OA
HETATM   23  H   UNL     1      -7.700  -5.251 -35.019  1.00  0.00     0.217 HD
ENDBRANCH   9  22
TORSDOF 4
ENDMDL
MODEL 3
REMARK VINA RESULT:      -8.3      4.020      7.757
REMARK  4 active torsions:
REMARK  status: ('A' for Active; 'I' for Inactive)
REMARK    1  A    between atoms: C_6  and  C_7 
REMARK       I    between atoms: C_7  and  N_8 
REMARK    2  A    between atoms: N_8  and  C_9 
REMARK    3  A    between atoms: C_9  and  C_10 
REMARK    4  A    between atoms: C_19  and  O_20 
ROOT
HETATM    1  C   UNL     1      -7.339   0.095 -35.305  1.00  0.00     0.078 C 
HETATM    2  C   UNL     1      -6.320  -0.635 -34.517  1.00  0.00     0.066 A 
HETATM    3  O   UNL     1      -5.998  -1.876 -34.969  1.00  0.00    -0.314 OA
HETATM    4  C   UNL     1      -5.066  -2.381 -34.123  1.00  0.00     0.087 A 
HETATM    5  C   UNL     1      -4.776  -1.468 -33.112  1.00  0.00     0.019 A 
HETATM    6  C   UNL     1      -5.580  -0.311 -33.387  1.00  0.00     0.074 A 
HETATM    7  C   UNL     1      -4.486  -3.643 -34.243  1.00  0.00     0.041 A 
HETATM    8  C   UNL     1      -3.557  -4.006 -33.265  1.00  0.00     0.039 A 
HETATM    9  C   UNL     1      -3.254  -3.128 -32.226  1.00  0.00     0.066 A 
HETATM   10  C   UNL     1      -3.849  -1.864 -32.125  1.00  0.00     0.052 A 
ENDROOT
BRANCH   6  11
HETATM   11  C   UNL     1      -5.692   0.970 -32.705  1.00  0.00     0.255 C 
HETATM   12  N   UNL     1      -4.562   1.757 -32.728  1.00  0.00    -0.353 N 
HETATM   13  H   UNL     1      -3.797   1.490 -33.331  1.00  0.00     0.163 HD
HETATM   14  O   UNL     1      -6.743   1.354 -32.198  1.00  0.00    -0.268 OA
BRANCH  12  15
HETATM   15  C   UNL     1      -4.641   3.127 -32.279  1.00  0.00     0.161 C 
BRANCH  15  16
HETATM   16  C   UNL     1      -3.707   4.045 -33.024  1.00  0.00    -0.041 A 
HETATM   17  C   UNL     1      -2.371   4.203 -32.621  1.00  0.00     0.009 A 
HETATM   18  C   UNL     1      -1.502   5.020 -33.347  1.00  0.00     0.001 A 
HETATM   19  C   UNL     1      -1.952   5.677 -34.490  1.00  0.00     0.000 A 
HETATM   20  C   UNL     1      -3.271   5.521 -34.908  1.00  0.00     0.001 A 
HETATM   21  C   UNL     1      -4.144   4.711 -34.179  1.00  0.00     0.009 A 
ENDBRANCH  15  16
ENDBRANCH  12  15
ENDBRANCH   6  11
BRANCH   9  22
HETATM   22  O   UNL     1      -2.358  -3.473 -31.255  1.00  0.00    -0.361 OA
HETATM   23  H   UNL     1      -1.608  -2.859 -31.288  1.00  0.00     0.217 HD
ENDBRANCH   9  22
TORSDOF 4
ENDMDL
MODEL 4
REMARK VINA RESULT:      -8.0      2.059      6.893
REMARK  4 active torsions:
REMARK  status: ('A' for Active; 'I' for Inactive)
REMARK    1  A    between atoms: C_6  and  C_7 
REMARK       I    between atoms: C_7  and  N_8 
REMARK    2  A    between atoms: N_8  and  C_9 
REMARK    3  A    between atoms: C_9  and  C_10 
REMARK    4  A    between atoms: C_19  and  O_20 
ROOT
HETATM    1  C   UNL     1      -5.214   1.609 -32.519  1.00  0.00     0.078 C 
HETATM    2  C   UNL     1      -5.557   0.275 -33.061  1.00  0.00     0.066 A 
HETATM    3  O   UNL     1      -4.512  -0.471 -33.506  1.00  0.00    -0.314 OA
HETATM    4  C   UNL     1      -5.022  -1.641 -33.966  1.00  0.00     0.087 A 
HETATM    5  C   UNL     1      -6.407  -1.663 -33.820  1.00  0.00     0.019 A 
HETATM    6  C   UNL     1      -6.755  -0.415 -33.202  1.00  0.00     0.074 A 
HETATM    7  C   UNL     1      -4.265  -2.675 -34.515  1.00  0.00     0.041 A 
HETATM    8  C   UNL     1      -4.963  -3.802 -34.956  1.00  0.00     0.039 A 
HETATM    9  C   UNL     1      -6.351  -3.853 -34.846  1.00  0.00     0.066 A 
HETATM   10  C   UNL     1      -7.091  -2.803 -34.290  1.00  0.00     0.052 A 
ENDROOT
BRANCH   6  11
HETATM   11  C   UNL     1      -8.037   0.127 -32.777  1.00  0.00     0.255 C 
HETATM   12  N   UNL     1      -8.981   0.270 -33.769  1.00  0.00    -0.353 N 
HETATM   13  H   UNL     1      -8.802  -0.143 -34.673  1.00  0.00     0.163 HD
HETATM   14  O   UNL     1      -8.285   0.380 -31.601  1.00  0.00    -0.268 OA
BRANCH  12  15
HETATM   15  C   UNL     1     -10.345   0.583 -33.413  1.00  0.00     0.161 C 
BRANCH  15  16
HETATM   16  C   UNL     1     -10.909   1.736 -34.202  1.00  0.00    -0.041 A 
HETATM   17  C   UNL     1     -10.165   2.909 -34.404  1.00  0.00     0.009 A 
HETATM   18  C   UNL     1     -10.679   3.953 -35.177  1.00  0.00     0.001 A 
HETATM   19  C   UNL     1     -11.936   3.831 -35.766  1.00  0.00     0.000 A 
HETATM   20  C   UNL     1     -12.680   2.668 -35.583  1.00  0.00     0.001 A 
HETATM   21  C   UNL     1     -12.170   1.627 -34.805  1.00  0.00     0.009 A 
ENDBRANCH  15  16
ENDBRANCH  12  15
ENDBRANCH   6  11
BRANCH   9  22
HETATM   22  O   UNL     1      -7.049  -4.942 -35.285  1.00  0.00    -0.361 OA
HETATM   23  H   UNL     1      -6.458  -5.503 -35.812  1.00  0.00     0.217 HD
ENDBRANCH   9  22
TORSDOF 4
ENDMDL
MODEL 5
REMARK VINA RESULT:      -8.0      4.983      7.366
REMARK  4 active torsions:
REMARK  status: ('A' for Active; 'I' for Inactive)
REMARK    1  A    between atoms: C_6  and  C_7 
REMARK       I    between atoms: C_7  and  N_8 
REMARK    2  A    between atoms: N_8  and  C_9 
REMARK    3  A    between atoms: C_9  and  C_10 
REMARK    4  A    between atoms: C_19  and  O_20 
ROOT
HETATM    1  C   UNL     1      -5.571   3.198 -30.063  1.00  0.00     0.078 C 
HETATM    2  C   UNL     1      -4.623   3.681 -31.093  1.00  0.00     0.066 A 
HETATM    3  O   UNL     1      -4.629   5.020 -31.323  1.00  0.00    -0.314 OA
HETATM    4  C   UNL     1      -3.712   5.265 -32.292  1.00  0.00     0.087 A 
HETATM    5  C   UNL     1      -3.101   4.081 -32.698  1.00  0.00     0.019 A 
HETATM    6  C   UNL     1      -3.681   3.044 -31.891  1.00  0.00     0.074 A 
HETATM    7  C   UNL     1      -3.427   6.525 -32.815  1.00  0.00     0.041 A 
HETATM    8  C   UNL     1      -2.464   6.585 -33.826  1.00  0.00     0.039 A 
HETATM    9  C   UNL     1      -1.844   5.420 -34.273  1.00  0.00     0.066 A 
HETATM   10  C   UNL     1      -2.147   4.164 -33.733  1.00  0.00     0.052 A 
ENDROOT
BRANCH   6  11
HETATM   11  C   UNL     1      -3.430   1.612 -31.834  1.00  0.00     0.255 C 
HETATM   12  N   UNL     1      -4.010   0.865 -32.836  1.00  0.00    -0.353 N 
HETATM   13  H   UNL     1      -4.427   1.346 -33.619  1.00  0.00     0.163 HD
HETATM   14  O   UNL     1      -2.697   1.108 -30.988  1.00  0.00    -0.268 OA
BRANCH  12  15
HETATM   15  C   UNL     1      -3.639  -0.521 -32.995  1.00  0.00     0.161 C 
BRANCH  15  16
HETATM   16  C   UNL     1      -4.754  -1.368 -33.551  1.00  0.00    -0.041 A 
HETATM   17  C   UNL     1      -6.089  -0.936 -33.499  1.00  0.00     0.009 A 
HETATM   18  C   UNL     1      -7.108  -1.709 -34.060  1.00  0.00     0.001 A 
HETATM   19  C   UNL     1      -6.804  -2.913 -34.690  1.00  0.00     0.000 A 
HETATM   20  C   UNL     1      -5.483  -3.348 -34.760  1.00  0.00     0.001 A 
HETATM   21  C   UNL     1      -4.464  -2.581 -34.193  1.00  0.00     0.009 A 
ENDBRANCH  15  16
ENDBRANCH  12  15
ENDBRANCH   6  11
BRANCH   9  22
HETATM   22  O   UNL     1      -0.911   5.461 -35.269  1.00  0.00    -0.361 OA
HETATM   23  H   UNL     1      -0.367   6.257 -35.157  1.00  0.00     0.217 HD
ENDBRANCH   9  22
TORSDOF 4
ENDMDL
MODEL 6
REMARK VINA RESULT:      -7.9      4.601      7.560
REMARK  4 active torsions:
REMARK  status: ('A' for Active; 'I' for Inactive)
REMARK    1  A    between atoms: C_6  and  C_7 
REMARK       I    between atoms: C_7  and  N_8 
REMARK    2  A    between atoms: N_8  and  C_9 
REMARK    3  A    between atoms: C_9  and  C_10 
REMARK    4  A    between atoms: C_19  and  O_20 
ROOT
HETATM    1  C   UNL     1      -2.841  -0.224 -31.587  1.00  0.00     0.078 C 
HETATM    2  C   UNL     1      -3.594  -1.216 -32.387  1.00  0.00     0.066 A 
HETATM    3  O   UNL     1      -3.110  -2.487 -32.365  1.00  0.00    -0.314 OA
HETATM    4  C   UNL     1      -3.919  -3.238 -33.153  1.00  0.00     0.087 A 
HETATM    5  C   UNL     1      -4.939  -2.457 -33.693  1.00  0.00     0.019 A 
HETATM    6  C   UNL     1      -4.740  -1.136 -33.168  1.00  0.00     0.074 A 
HETATM    7  C   UNL     1      -3.749  -4.600 -33.395  1.00  0.00     0.041 A 
HETATM    8  C   UNL     1      -4.670  -5.207 -34.252  1.00  0.00     0.039 A 
HETATM    9  C   UNL     1      -5.692  -4.457 -34.828  1.00  0.00     0.066 A 
HETATM   10  C   UNL     1      -5.844  -3.089 -34.570  1.00  0.00     0.052 A 
ENDROOT
BRANCH   6  11
HETATM   11  C   UNL     1      -5.493   0.096 -33.346  1.00  0.00     0.255 C 
HETATM   12  N   UNL     1      -5.463   0.972 -32.284  1.00  0.00    -0.353 N 
HETATM   13  H   UNL     1      -4.814   0.799 -31.531  1.00  0.00     0.163 HD
HETATM   14  O   UNL     1      -6.067   0.368 -34.398  1.00  0.00    -0.268 OA
BRANCH  12  15
HETATM   15  C   UNL     1      -5.988   2.307 -32.449  1.00  0.00     0.161 C 
BRANCH  15  16
HETATM   16  C   UNL     1      -4.974   3.274 -33.003  1.00  0.00    -0.041 A 
HETATM   17  C   UNL     1      -5.325   4.203 -33.995  1.00  0.00     0.009 A 
HETATM   18  C   UNL     1      -4.389   5.125 -34.468  1.00  0.00     0.001 A 
HETATM   19  C   UNL     1      -3.097   5.138 -33.947  1.00  0.00     0.000 A 
HETATM   20  C   UNL     1      -2.738   4.230 -32.954  1.00  0.00     0.001 A 
HETATM   21  C   UNL     1      -3.671   3.302 -32.486  1.00  0.00     0.009 A 
ENDBRANCH  15  16
ENDBRANCH  12  15
ENDBRANCH   6  11
BRANCH   9  22
HETATM   22  O   UNL     1      -6.592  -5.034 -35.678  1.00  0.00    -0.361 OA
HETATM   23  H   UNL     1      -6.295  -5.934 -35.886  1.00  0.00     0.217 HD
ENDBRANCH   9  22
TORSDOF 4
ENDMDL
MODEL 7
REMARK VINA RESULT:      -7.8      2.557      7.034
REMARK  4 active torsions:
REMARK  status: ('A' for Active; 'I' for Inactive)
REMARK    1  A    between atoms: C_6  and  C_7 
REMARK       I    between atoms: C_7  and  N_8 
REMARK    2  A    between atoms: N_8  and  C_9 
REMARK    3  A    between atoms: C_9  and  C_10 
REMARK    4  A    between atoms: C_19  and  O_20 
ROOT
HETATM    1  C   UNL     1      -5.242   1.361 -32.752  1.00  0.00     0.078 C 
HETATM    2  C   UNL     1      -5.476  -0.001 -33.280  1.00  0.00     0.066 A 
HETATM    3  O   UNL     1      -4.445  -0.876 -33.144  1.00  0.00    -0.314 OA
HETATM    4  C   UNL     1      -4.843  -2.054 -33.687  1.00  0.00     0.087 A 
HETATM    5  C   UNL     1      -6.141  -1.951 -34.182  1.00  0.00     0.019 A 
HETATM    6  C   UNL     1      -6.566  -0.610 -33.890  1.00  0.00     0.074 A 
HETATM    7  C   UNL     1      -4.058  -3.204 -33.750  1.00  0.00     0.041 A 
HETATM    8  C   UNL     1      -4.627  -4.322 -34.366  1.00  0.00     0.039 A 
HETATM    9  C   UNL     1      -5.915  -4.253 -34.891  1.00  0.00     0.066 A 
HETATM   10  C   UNL     1      -6.686  -3.086 -34.816  1.00  0.00     0.052 A 
ENDROOT
BRANCH   6  11
HETATM   11  C   UNL     1      -7.825   0.077 -34.136  1.00  0.00     0.255 C 
HETATM   12  N   UNL     1      -8.779  -0.059 -33.152  1.00  0.00    -0.353 N 
HETATM   13  H   UNL     1      -8.512  -0.474 -32.272  1.00  0.00     0.163 HD
HETATM   14  O   UNL     1      -8.004   0.785 -35.124  1.00  0.00    -0.268 OA
BRANCH  12  15
HETATM   15  C   UNL     1      -9.966   0.761 -33.196  1.00  0.00     0.161 C 
BRANCH  15  16
HETATM   16  C   UNL     1      -9.862   1.995 -32.337  1.00  0.00    -0.041 A 
HETATM   17  C   UNL     1     -10.715   3.092 -32.536  1.00  0.00     0.009 A 
HETATM   18  C   UNL     1     -10.640   4.210 -31.704  1.00  0.00     0.001 A 
HETATM   19  C   UNL     1      -9.723   4.240 -30.655  1.00  0.00     0.000 A 
HETATM   20  C   UNL     1      -8.879   3.154 -30.438  1.00  0.00     0.001 A 
HETATM   21  C   UNL     1      -8.947   2.038 -31.275  1.00  0.00     0.009 A 
ENDBRANCH  15  16
ENDBRANCH  12  15
ENDBRANCH   6  11
BRANCH   9  22
HETATM   22  O   UNL     1      -6.480  -5.333 -35.508  1.00  0.00    -0.361 OA
HETATM   23  H   UNL     1      -7.445  -5.268 -35.434  1.00  0.00     0.217 HD
ENDBRANCH   9  22
TORSDOF 4
ENDMDL
MODEL 8
REMARK VINA RESULT:      -7.8      4.692      7.452
REMARK  4 active torsions:
REMARK  status: ('A' for Active; 'I' for Inactive)
REMARK    1  A    between atoms: C_6  and  C_7 
REMARK       I    between atoms: C_7  and  N_8 
REMARK    2  A    between atoms: N_8  and  C_9 
REMARK    3  A    between atoms: C_9  and  C_10 
REMARK    4  A    between atoms: C_19  and  O_20 
ROOT
HETATM    1  C   UNL     1      -7.116   3.004 -33.499  1.00  0.00     0.078 C 
HETATM    2  C   UNL     1      -6.445   1.685 -33.527  1.00  0.00     0.066 A 
HETATM    3  O   UNL     1      -6.969   0.771 -34.386  1.00  0.00    -0.314 OA
HETATM    4  C   UNL     1      -6.234  -0.362 -34.264  1.00  0.00     0.087 A 
HETATM    5  C   UNL     1      -5.223  -0.190 -33.322  1.00  0.00     0.019 A 
HETATM    6  C   UNL     1      -5.346   1.162 -32.857  1.00  0.00     0.074 A 
HETATM    7  C   UNL     1      -6.464  -1.538 -34.977  1.00  0.00     0.041 A 
HETATM    8  C   UNL     1      -5.616  -2.615 -34.706  1.00  0.00     0.039 A 
HETATM    9  C   UNL     1      -4.605  -2.489 -33.756  1.00  0.00     0.066 A 
HETATM   10  C   UNL     1      -4.392  -1.298 -33.052  1.00  0.00     0.052 A 
ENDROOT
BRANCH   6  11
HETATM   11  C   UNL     1      -4.563   1.928 -31.898  1.00  0.00     0.255 C 
HETATM   12  N   UNL     1      -3.405   2.489 -32.388  1.00  0.00    -0.353 N 
HETATM   13  H   UNL     1      -3.246   2.481 -33.385  1.00  0.00     0.163 HD
HETATM   14  O   UNL     1      -4.941   2.116 -30.745  1.00  0.00    -0.268 OA
BRANCH  12  15
HETATM   15  C   UNL     1      -2.683   3.445 -31.582  1.00  0.00     0.161 C 
BRANCH  15  16
HETATM   16  C   UNL     1      -2.068   4.555 -32.395  1.00  0.00    -0.041 A 
HETATM   17  C   UNL     1      -2.225   4.605 -33.789  1.00  0.00     0.009 A 
HETATM   18  C   UNL     1      -1.690   5.663 -34.526  1.00  0.00     0.001 A 
HETATM   19  C   UNL     1      -1.006   6.690 -33.879  1.00  0.00     0.000 A 
HETATM   20  C   UNL     1      -0.854   6.660 -32.495  1.00  0.00     0.001 A 
HETATM   21  C   UNL     1      -1.381   5.598 -31.757  1.00  0.00     0.009 A 
ENDBRANCH  15  16
ENDBRANCH  12  15
ENDBRANCH   6  11
BRANCH   9  22
HETATM   22  O   UNL     1      -3.777  -3.537 -33.471  1.00  0.00    -0.361 OA
HETATM   23  H   UNL     1      -3.908  -3.798 -32.545  1.00  0.00     0.217 HD
ENDBRANCH   9  22
TORSDOF 4
ENDMDL
MODEL 9
REMARK VINA RESULT:      -7.7      2.734      4.864
REMARK  4 active torsions:
REMARK  status: ('A' for Active; 'I' for Inactive)
REMARK    1  A    between atoms: C_6  and  C_7 
REMARK       I    between atoms: C_7  and  N_8 
REMARK    2  A    between atoms: N_8  and  C_9 
REMARK    3  A    between atoms: C_9  and  C_10 
REMARK    4  A    between atoms: C_19  and  O_20 
ROOT
HETATM    1  C   UNL     1      -9.211   0.003 -33.052  1.00  0.00     0.078 C 
HETATM    2  C   UNL     1      -8.476   0.932 -32.165  1.00  0.00     0.066 A 
HETATM    3  O   UNL     1      -9.191   1.984 -31.684  1.00  0.00    -0.314 OA
HETATM    4  C   UNL     1      -8.354   2.716 -30.907  1.00  0.00     0.087 A 
HETATM    5  C   UNL     1      -7.085   2.141 -30.877  1.00  0.00     0.019 A 
HETATM    6  C   UNL     1      -7.174   0.955 -31.682  1.00  0.00     0.074 A 
HETATM    7  C   UNL     1      -8.711   3.885 -30.238  1.00  0.00     0.041 A 
HETATM    8  C   UNL     1      -7.710   4.519 -29.498  1.00  0.00     0.039 A 
HETATM    9  C   UNL     1      -6.424   3.986 -29.459  1.00  0.00     0.066 A 
HETATM   10  C   UNL     1      -6.087   2.810 -30.138  1.00  0.00     0.052 A 
ENDROOT
BRANCH   6  11
HETATM   11  C   UNL     1      -6.190  -0.068 -32.003  1.00  0.00     0.255 C 
HETATM   12  N   UNL     1      -5.781  -0.109 -33.318  1.00  0.00    -0.353 N 
HETATM   13  H   UNL     1      -6.049   0.646 -33.932  1.00  0.00     0.163 HD
HETATM   14  O   UNL     1      -5.707  -0.805 -31.148  1.00  0.00    -0.268 OA
BRANCH  12  15
HETATM   15  C   UNL     1      -4.653  -0.931 -33.685  1.00  0.00     0.161 C 
BRANCH  15  16
HETATM   16  C   UNL     1      -5.053  -2.314 -34.130  1.00  0.00    -0.041 A 
HETATM   17  C   UNL     1      -4.192  -3.409 -33.957  1.00  0.00     0.009 A 
HETATM   18  C   UNL     1      -4.593  -4.694 -34.331  1.00  0.00     0.001 A 
HETATM   19  C   UNL     1      -5.861  -4.901 -34.868  1.00  0.00     0.000 A 
HETATM   20  C   UNL     1      -6.730  -3.825 -35.034  1.00  0.00     0.001 A 
HETATM   21  C   UNL     1      -6.328  -2.539 -34.669  1.00  0.00     0.009 A 
ENDBRANCH  15  16
ENDBRANCH  12  15
ENDBRANCH   6  11
BRANCH   9  22
HETATM   22  O   UNL     1      -5.431   4.601 -28.750  1.00  0.00    -0.361 OA
HETATM   23  H   UNL     1      -5.442   5.550 -28.953  1.00  0.00     0.217 HD
ENDBRANCH   9  22
TORSDOF 4
ENDMDL
MODEL 10
REMARK VINA RESULT:      -7.7     14.234     17.018
REMARK  4 active torsions:
REMARK  status: ('A' for Active; 'I' for Inactive)
REMARK    1  A    between atoms: C_6  and  C_7 
REMARK       I    between atoms: C_7  and  N_8 
REMARK    2  A    between atoms: N_8  and  C_9 
REMARK    3  A    between atoms: C_9  and  C_10 
REMARK    4  A    between atoms: C_19  and  O_20 
ROOT
HETATM    1  C   UNL     1      -3.969 -13.876 -35.725  1.00  0.00     0.078 C 
HETATM    2  C   UNL     1      -2.705 -14.081 -36.466  1.00  0.00     0.066 A 
HETATM    3  O   UNL     1      -1.852 -15.001 -35.941  1.00  0.00    -0.314 OA
HETATM    4  C   UNL     1      -0.761 -15.041 -36.747  1.00  0.00     0.087 A 
HETATM    5  C   UNL     1      -0.899 -14.145 -37.804  1.00  0.00     0.019 A 
HETATM    6  C   UNL     1      -2.187 -13.534 -37.634  1.00  0.00     0.074 A 
HETATM    7  C   UNL     1       0.349 -15.860 -36.539  1.00  0.00     0.041 A 
HETATM    8  C   UNL     1       1.392 -15.752 -37.462  1.00  0.00     0.039 A 
HETATM    9  C   UNL     1       1.300 -14.854 -38.523  1.00  0.00     0.066 A 
HETATM   10  C   UNL     1       0.175 -14.041 -38.711  1.00  0.00     0.052 A 
ENDROOT
BRANCH   6  11
HETATM   11  C   UNL     1      -2.899 -12.547 -38.431  1.00  0.00     0.255 C 
HETATM   12  N   UNL     1      -3.917 -13.038 -39.218  1.00  0.00    -0.353 N 
HETATM   13  H   UNL     1      -4.215 -13.993 -39.085  1.00  0.00     0.163 HD
HETATM   14  O   UNL     1      -2.653 -11.345 -38.360  1.00  0.00    -0.268 OA
BRANCH  12  15
HETATM   15  C   UNL     1      -4.821 -12.117 -39.867  1.00  0.00     0.161 C 
BRANCH  15  16
HETATM   16  C   UNL     1      -6.268 -12.391 -39.549  1.00  0.00    -0.041 A 
HETATM   17  C   UNL     1      -7.249 -12.360 -40.553  1.00  0.00     0.009 A 
HETATM   18  C   UNL     1      -8.580 -12.661 -40.256  1.00  0.00     0.001 A 
HETATM   19  C   UNL     1      -8.943 -13.011 -38.957  1.00  0.00     0.000 A 
HETATM   20  C   UNL     1      -7.978 -13.058 -37.954  1.00  0.00     0.001 A 
HETATM   21  C   UNL     1      -6.649 -12.749 -38.248  1.00  0.00     0.009 A 
ENDBRANCH  15  16
ENDBRANCH  12  15
ENDBRANCH   6  11
BRANCH   9  22
HETATM   22  O   UNL     1       2.317 -14.728 -39.426  1.00  0.00    -0.361 OA
HETATM   23  H   UNL     1       2.492 -15.596 -39.824  1.00  0.00     0.217 HD
ENDBRANCH   9  22
TORSDOF 4
ENDMDL
