MODEL 1
REMARK VINA RESULT:      -8.9      0.000      0.000
REMARK  7 active torsions:
REMARK  status: ('A' for Active; 'I' for Inactive)
REMARK    1  A    between atoms: C_3  and  C_4 
REMARK    2  A    between atoms: N_5  and  C_7 
REMARK    3  A    between atoms: N_10  and  C_11 
REMARK    4  A    between atoms: C_14  and  C_15 
REMARK       I    between atoms: C_15  and  N_16 
REMARK    5  A    between atoms: N_16  and  C_17 
REMARK    6  A    between atoms: C_17  and  C_18 
REMARK    7  A    between atoms: C_18  and  N_19 
ROOT
HETATM    1  C   UNL     1      -3.034   3.922 -31.302  1.00  0.00     0.191 C 
HETATM    2  C   UNL     1      -4.391   4.397 -30.778  1.00  0.00     0.048 C 
HETATM    3  C   UNL     1      -5.578   3.850 -31.536  1.00  0.00     0.098 C 
HETATM    4  N   UNL     1      -5.467   2.387 -31.613  1.00  0.00    -0.283 NA
HETATM    5  C   UNL     1      -4.303   1.909 -32.354  1.00  0.00     0.098 C 
HETATM    6  C   UNL     1      -3.020   2.428 -31.690  1.00  0.00     0.048 C 
ENDROOT
BRANCH   4   7
HETATM    7  C   UNL     1      -6.727   1.827 -31.902  1.00  0.00     0.010 A 
HETATM    8  C   UNL     1      -6.912   0.550 -32.452  1.00  0.00     0.024 A 
HETATM    9  C   UNL     1      -8.171   0.143 -32.922  1.00  0.00     0.019 A 
HETATM   10  C   UNL     1      -9.261   1.014 -32.830  1.00  0.00     0.032 A 
HETATM   11  C   UNL     1      -9.114   2.251 -32.207  1.00  0.00     0.019 A 
HETATM   12  C   UNL     1      -7.862   2.639 -31.733  1.00  0.00     0.024 A 
BRANCH  10  13
HETATM   13  C   UNL     1     -10.530   0.743 -33.537  1.00  0.00     0.251 C 
HETATM   14  N   UNL     1     -10.790   1.450 -34.684  1.00  0.00    -0.355 N 
HETATM   15  H   UNL     1     -10.084   2.115 -34.992  1.00  0.00     0.162 HD
HETATM   16  O   UNL     1     -11.309  -0.085 -33.072  1.00  0.00    -0.268 OA
BRANCH  14  17
HETATM   17  C   UNL     1     -12.096   1.531 -35.340  1.00  0.00     0.150 C 
BRANCH  17  18
HETATM   18  C   UNL     1     -12.870   2.870 -35.254  1.00  0.00     0.254 C 
BRANCH  18  19
HETATM   19  N   UNL     1     -13.820   2.948 -34.084  1.00  0.00    -0.066 N 
HETATM   20  H   UNL     1     -14.622   3.522 -34.424  1.00  0.00     0.280 HD
HETATM   21  C   UNL     1     -14.414   1.630 -33.627  1.00  0.00     0.261 C 
HETATM   22  C   UNL     1     -15.440   1.890 -32.515  1.00  0.00     0.195 C 
HETATM   23  O   UNL     1     -14.841   2.586 -31.417  1.00  0.00    -0.388 OA
HETATM   24  C   UNL     1     -14.331   3.863 -31.821  1.00  0.00     0.195 C 
HETATM   25  C   UNL     1     -13.251   3.709 -32.898  1.00  0.00     0.261 C 
ENDBRANCH  18  19
ENDBRANCH  17  18
ENDBRANCH  14  17
ENDBRANCH  10  13
ENDBRANCH   4   7
BRANCH   1  26
HETATM   26  N   UNL     1      -2.398   4.829 -32.398  1.00  0.00    -0.056 N 
HETATM   27  C   UNL     1      -1.604   6.035 -31.828  1.00  0.00     0.257 C 
HETATM   28  C   UNL     1      -0.863   6.761 -32.957  1.00  0.00     0.041 C 
HETATM   29  C   UNL     1      -1.814   7.194 -34.064  1.00  0.00     0.004 C 
HETATM   30  C   UNL     1      -2.564   5.989 -34.605  1.00  0.00     0.028 C 
HETATM   31  C   UNL     1      -3.327   5.263 -33.507  1.00  0.00     0.236 C 
HETATM   32  H   UNL     1      -1.687   4.232 -32.834  1.00  0.00     0.281 HD
BRANCH  27  33
HETATM   33  C   UNL     1      -0.728   5.723 -30.639  1.00  0.00     0.136 A 
HETATM   34  N   UNL     1      -0.731   6.314 -29.393  1.00  0.00    -0.346 N 
HETATM   35  C   UNL     1      -1.547   7.397 -28.900  1.00  0.00     0.157 C 
HETATM   36  C   UNL     1       0.226   5.692 -28.636  1.00  0.00     0.111 A 
HETATM   37  C   UNL     1       0.798   4.755 -29.456  1.00  0.00     0.136 A 
HETATM   38  N   UNL     1       0.221   4.803 -30.693  1.00  0.00    -0.244 NA
ENDBRANCH  27  33
ENDBRANCH   1  26
TORSDOF 7
ENDMDL
MODEL 2
REMARK VINA RESULT:      -8.2      1.536      2.193
REMARK  7 active torsions:
REMARK  status: ('A' for Active; 'I' for Inactive)
REMARK    1  A    between atoms: C_3  and  C_4 
REMARK    2  A    between atoms: N_5  and  C_7 
REMARK    3  A    between atoms: N_10  and  C_11 
REMARK    4  A    between atoms: C_14  and  C_15 
REMARK       I    between atoms: C_15  and  N_16 
REMARK    5  A    between atoms: N_16  and  C_17 
REMARK    6  A    between atoms: C_17  and  C_18 
REMARK    7  A    between atoms: C_18  and  N_19 
ROOT
HETATM    1  C   UNL     1      -3.143   4.042 -31.216  1.00  0.00     0.191 C 
HETATM    2  C   UNL     1      -4.571   4.587 -31.154  1.00  0.00     0.048 C 
HETATM    3  C   UNL     1      -5.541   3.897 -32.085  1.00  0.00     0.098 C 
HETATM    4  N   UNL     1      -5.465   2.446 -31.871  1.00  0.00    -0.283 NA
HETATM    5  C   UNL     1      -4.167   1.858 -32.188  1.00  0.00     0.098 C 
HETATM    6  C   UNL     1      -3.081   2.504 -31.316  1.00  0.00     0.048 C 
ENDROOT
BRANCH   4   7
HETATM    7  C   UNL     1      -6.627   1.827 -32.373  1.00  0.00     0.010 A 
HETATM    8  C   UNL     1      -6.828   1.511 -33.724  1.00  0.00     0.024 A 
HETATM    9  C   UNL     1      -8.089   1.105 -34.190  1.00  0.00     0.019 A 
HETATM   10  C   UNL     1      -9.158   0.999 -33.294  1.00  0.00     0.032 A 
HETATM   11  C   UNL     1      -8.954   1.223 -31.935  1.00  0.00     0.019 A 
HETATM   12  C   UNL     1      -7.695   1.614 -31.483  1.00  0.00     0.024 A 
BRANCH  10  13
HETATM   13  C   UNL     1     -10.549   0.833 -33.766  1.00  0.00     0.251 C 
HETATM   14  N   UNL     1     -10.985   1.650 -34.779  1.00  0.00    -0.355 N 
HETATM   15  H   UNL     1     -10.319   2.318 -35.158  1.00  0.00     0.162 HD
HETATM   16  O   UNL     1     -11.265  -0.010 -33.233  1.00  0.00    -0.268 OA
BRANCH  14  17
HETATM   17  C   UNL     1     -12.386   1.831 -35.163  1.00  0.00     0.150 C 
BRANCH  17  18
HETATM   18  C   UNL     1     -13.304   2.635 -34.207  1.00  0.00     0.254 C 
BRANCH  18  19
HETATM   19  N   UNL     1     -13.075   4.125 -34.259  1.00  0.00    -0.066 N 
HETATM   20  H   UNL     1     -13.997   4.549 -34.019  1.00  0.00     0.280 HD
HETATM   21  C   UNL     1     -12.085   4.678 -33.251  1.00  0.00     0.261 C 
HETATM   22  C   UNL     1     -12.053   6.208 -33.354  1.00  0.00     0.195 C 
HETATM   23  O   UNL     1     -11.715   6.627 -34.680  1.00  0.00    -0.388 OA
HETATM   24  C   UNL     1     -12.677   6.166 -35.637  1.00  0.00     0.195 C 
HETATM   25  C   UNL     1     -12.747   4.634 -35.653  1.00  0.00     0.261 C 
ENDBRANCH  18  19
ENDBRANCH  17  18
ENDBRANCH  14  17
ENDBRANCH  10  13
ENDBRANCH   4   7
BRANCH   1  26
HETATM   26  N   UNL     1      -2.215   4.746 -32.252  1.00  0.00    -0.056 N 
HETATM   27  C   UNL     1      -1.812   6.190 -31.851  1.00  0.00     0.257 C 
HETATM   28  C   UNL     1      -0.759   6.735 -32.824  1.00  0.00     0.041 C 
HETATM   29  C   UNL     1      -1.243   6.672 -34.265  1.00  0.00     0.004 C 
HETATM   30  C   UNL     1      -1.618   5.245 -34.626  1.00  0.00     0.028 C 
HETATM   31  C   UNL     1      -2.678   4.688 -33.688  1.00  0.00     0.236 C 
HETATM   32  H   UNL     1      -1.342   4.210 -32.208  1.00  0.00     0.281 HD
BRANCH  27  33
HETATM   33  C   UNL     1      -1.439   6.373 -30.400  1.00  0.00     0.136 A 
HETATM   34  N   UNL     1      -0.359   5.851 -29.719  1.00  0.00    -0.346 N 
HETATM   35  C   UNL     1       0.683   4.976 -30.197  1.00  0.00     0.157 C 
HETATM   36  C   UNL     1      -0.425   6.302 -28.428  1.00  0.00     0.111 A 
HETATM   37  C   UNL     1      -1.559   7.068 -28.358  1.00  0.00     0.136 A 
HETATM   38  N   UNL     1      -2.188   7.082 -29.570  1.00  0.00    -0.244 NA
ENDBRANCH  27  33
ENDBRANCH   1  26
TORSDOF 7
ENDMDL
MODEL 3
REMARK VINA RESULT:      -8.2     18.030     21.084
REMARK  7 active torsions:
REMARK  status: ('A' for Active; 'I' for Inactive)
REMARK    1  A    between atoms: C_3  and  C_4 
REMARK    2  A    between atoms: N_5  and  C_7 
REMARK    3  A    between atoms: N_10  and  C_11 
REMARK    4  A    between atoms: C_14  and  C_15 
REMARK       I    between atoms: C_15  and  N_16 
REMARK    5  A    between atoms: N_16  and  C_17 
REMARK    6  A    between atoms: C_17  and  C_18 
REMARK    7  A    between atoms: C_18  and  N_19 
ROOT
HETATM    1  C   UNL     1      -7.583 -14.563 -37.870  1.00  0.00     0.191 C 
HETATM    2  C   UNL     1      -7.051 -15.840 -37.216  1.00  0.00     0.048 C 
HETATM    3  C   UNL     1      -6.277 -15.610 -35.939  1.00  0.00     0.098 C 
HETATM    4  N   UNL     1      -7.085 -14.787 -35.029  1.00  0.00    -0.283 NA
HETATM    5  C   UNL     1      -7.379 -13.447 -35.529  1.00  0.00     0.098 C 
HETATM    6  C   UNL     1      -8.148 -13.548 -36.854  1.00  0.00     0.048 C 
ENDROOT
BRANCH   4   7
HETATM    7  C   UNL     1      -6.609 -14.925 -33.710  1.00  0.00     0.010 A 
HETATM    8  C   UNL     1      -5.644 -14.088 -33.131  1.00  0.00     0.024 A 
HETATM    9  C   UNL     1      -5.052 -14.414 -31.900  1.00  0.00     0.019 A 
HETATM   10  C   UNL     1      -5.438 -15.581 -31.232  1.00  0.00     0.032 A 
HETATM   11  C   UNL     1      -6.457 -16.376 -31.749  1.00  0.00     0.019 A 
HETATM   12  C   UNL     1      -7.045 -16.035 -32.966  1.00  0.00     0.024 A 
BRANCH  10  13
HETATM   13  C   UNL     1      -4.672 -16.102 -30.080  1.00  0.00     0.251 C 
HETATM   14  N   UNL     1      -3.442 -16.657 -30.325  1.00  0.00    -0.355 N 
HETATM   15  H   UNL     1      -3.118 -16.667 -31.290  1.00  0.00     0.162 HD
HETATM   16  O   UNL     1      -5.163 -16.036 -28.957  1.00  0.00    -0.268 OA
BRANCH  14  17
HETATM   17  C   UNL     1      -2.688 -17.475 -29.373  1.00  0.00     0.150 C 
BRANCH  17  18
HETATM   18  C   UNL     1      -2.103 -16.775 -28.120  1.00  0.00     0.254 C 
BRANCH  18  19
HETATM   19  N   UNL     1      -0.755 -16.138 -28.355  1.00  0.00    -0.066 N 
HETATM   20  H   UNL     1      -0.413 -16.552 -29.249  1.00  0.00     0.280 HD
HETATM   21  C   UNL     1      -0.763 -14.636 -28.566  1.00  0.00     0.261 C 
HETATM   22  C   UNL     1       0.657 -14.162 -28.907  1.00  0.00     0.195 C 
HETATM   23  O   UNL     1       1.581 -14.526 -27.876  1.00  0.00    -0.388 OA
HETATM   24  C   UNL     1       1.646 -15.947 -27.708  1.00  0.00     0.195 C 
HETATM   25  C   UNL     1       0.279 -16.518 -27.310  1.00  0.00     0.261 C 
ENDBRANCH  18  19
ENDBRANCH  17  18
ENDBRANCH  14  17
ENDBRANCH  10  13
ENDBRANCH   4   7
BRANCH   1  26
HETATM   26  N   UNL     1      -6.620 -13.902 -38.902  1.00  0.00    -0.056 N 
HETATM   27  C   UNL     1      -7.233 -13.746 -40.319  1.00  0.00     0.257 C 
HETATM   28  C   UNL     1      -6.296 -12.926 -41.213  1.00  0.00     0.041 C 
HETATM   29  C   UNL     1      -4.902 -13.535 -41.273  1.00  0.00     0.004 C 
HETATM   30  C   UNL     1      -4.330 -13.662 -39.872  1.00  0.00     0.028 C 
HETATM   31  C   UNL     1      -5.231 -14.491 -38.969  1.00  0.00     0.236 C 
HETATM   32  H   UNL     1      -6.509 -12.941 -38.558  1.00  0.00     0.281 HD
BRANCH  27  33
HETATM   33  C   UNL     1      -8.664 -13.268 -40.350  1.00  0.00     0.136 A 
HETATM   34  N   UNL     1      -9.810 -14.004 -40.566  1.00  0.00    -0.346 N 
HETATM   35  C   UNL     1      -9.949 -15.413 -40.843  1.00  0.00     0.157 C 
HETATM   36  C   UNL     1     -10.875 -13.147 -40.488  1.00  0.00     0.111 A 
HETATM   37  C   UNL     1     -10.339 -11.909 -40.249  1.00  0.00     0.136 A 
HETATM   38  N   UNL     1      -8.977 -11.992 -40.193  1.00  0.00    -0.244 NA
ENDBRANCH  27  33
ENDBRANCH   1  26
TORSDOF 7
ENDMDL
MODEL 4
REMARK VINA RESULT:      -8.1      6.879     14.106
REMARK  7 active torsions:
REMARK  status: ('A' for Active; 'I' for Inactive)
REMARK    1  A    between atoms: C_3  and  C_4 
REMARK    2  A    between atoms: N_5  and  C_7 
REMARK    3  A    between atoms: N_10  and  C_11 
REMARK    4  A    between atoms: C_14  and  C_15 
REMARK       I    between atoms: C_15  and  N_16 
REMARK    5  A    between atoms: N_16  and  C_17 
REMARK    6  A    between atoms: C_17  and  C_18 
REMARK    7  A    between atoms: C_18  and  N_19 
ROOT
HETATM    1  C   UNL     1      -3.124   7.030 -30.953  1.00  0.00     0.191 C 
HETATM    2  C   UNL     1      -2.352   6.257 -29.883  1.00  0.00     0.048 C 
HETATM    3  C   UNL     1      -1.098   6.947 -29.399  1.00  0.00     0.098 C 
HETATM    4  N   UNL     1      -1.429   8.320 -28.996  1.00  0.00    -0.283 NA
HETATM    5  C   UNL     1      -1.920   9.164 -30.081  1.00  0.00     0.098 C 
HETATM    6  C   UNL     1      -3.192   8.547 -30.680  1.00  0.00     0.048 C 
ENDROOT
BRANCH   4   7
HETATM    7  C   UNL     1      -0.422   8.826 -28.151  1.00  0.00     0.010 A 
HETATM    8  C   UNL     1       0.850   8.253 -28.013  1.00  0.00     0.024 A 
HETATM    9  C   UNL     1       1.723   8.670 -26.994  1.00  0.00     0.019 A 
HETATM   10  C   UNL     1       1.326   9.680 -26.112  1.00  0.00     0.032 A 
HETATM   11  C   UNL     1       0.103  10.321 -26.290  1.00  0.00     0.019 A 
HETATM   12  C   UNL     1      -0.749   9.907 -27.312  1.00  0.00     0.024 A 
BRANCH  10  13
HETATM   13  C   UNL     1       2.086   9.972 -24.878  1.00  0.00     0.251 C 
HETATM   14  N   UNL     1       3.449   9.825 -24.914  1.00  0.00    -0.355 N 
HETATM   15  H   UNL     1       3.864   9.537 -25.796  1.00  0.00     0.162 HD
HETATM   16  O   UNL     1       1.477  10.315 -23.869  1.00  0.00    -0.268 OA
BRANCH  14  17
HETATM   17  C   UNL     1       4.317   9.781 -23.735  1.00  0.00     0.150 C 
BRANCH  17  18
HETATM   18  C   UNL     1       4.340   8.476 -22.900  1.00  0.00     0.254 C 
BRANCH  18  19
HETATM   19  N   UNL     1       5.637   7.711 -23.006  1.00  0.00    -0.066 N 
HETATM   20  H   UNL     1       5.646   7.327 -23.976  1.00  0.00     0.280 HD
HETATM   21  C   UNL     1       6.903   8.536 -22.873  1.00  0.00     0.261 C 
HETATM   22  C   UNL     1       8.124   7.640 -23.120  1.00  0.00     0.195 C 
HETATM   23  O   UNL     1       8.141   6.533 -22.213  1.00  0.00    -0.388 OA
HETATM   24  C   UNL     1       6.980   5.708 -22.371  1.00  0.00     0.195 C 
HETATM   25  C   UNL     1       5.698   6.501 -22.090  1.00  0.00     0.261 C 
ENDBRANCH  18  19
ENDBRANCH  17  18
ENDBRANCH  14  17
ENDBRANCH  10  13
ENDBRANCH   4   7
BRANCH   1  26
HETATM   26  N   UNL     1      -2.714   6.705 -32.423  1.00  0.00    -0.056 N 
HETATM   27  C   UNL     1      -3.363   5.411 -32.981  1.00  0.00     0.257 C 
HETATM   28  C   UNL     1      -3.058   5.269 -34.477  1.00  0.00     0.041 C 
HETATM   29  C   UNL     1      -1.560   5.304 -34.748  1.00  0.00     0.004 C 
HETATM   30  C   UNL     1      -0.962   6.587 -34.199  1.00  0.00     0.028 C 
HETATM   31  C   UNL     1      -1.232   6.741 -32.710  1.00  0.00     0.236 C 
HETATM   32  H   UNL     1      -3.133   7.464 -32.971  1.00  0.00     0.281 HD
BRANCH  27  33
HETATM   33  C   UNL     1      -4.824   5.229 -32.647  1.00  0.00     0.136 A 
HETATM   34  N   UNL     1      -5.396   4.350 -31.751  1.00  0.00    -0.346 N 
HETATM   35  C   UNL     1      -4.762   3.358 -30.916  1.00  0.00     0.157 C 
HETATM   36  C   UNL     1      -6.749   4.556 -31.774  1.00  0.00     0.111 A 
HETATM   37  C   UNL     1      -6.960   5.541 -32.703  1.00  0.00     0.136 A 
HETATM   38  N   UNL     1      -5.771   5.927 -33.252  1.00  0.00    -0.244 NA
ENDBRANCH  27  33
ENDBRANCH   1  26
TORSDOF 7
ENDMDL
MODEL 5
REMARK VINA RESULT:      -7.8      5.072     12.095
REMARK  7 active torsions:
REMARK  status: ('A' for Active; 'I' for Inactive)
REMARK    1  A    between atoms: C_3  and  C_4 
REMARK    2  A    between atoms: N_5  and  C_7 
REMARK    3  A    between atoms: N_10  and  C_11 
REMARK    4  A    between atoms: C_14  and  C_15 
REMARK       I    between atoms: C_15  and  N_16 
REMARK    5  A    between atoms: N_16  and  C_17 
REMARK    6  A    between atoms: C_17  and  C_18 
REMARK    7  A    between atoms: C_18  and  N_19 
ROOT
HETATM    1  C   UNL     1      -6.750   3.716 -32.977  1.00  0.00     0.191 C 
HETATM    2  C   UNL     1      -6.443   3.950 -31.497  1.00  0.00     0.048 C 
HETATM    3  C   UNL     1      -4.969   4.027 -31.172  1.00  0.00     0.098 C 
HETATM    4  N   UNL     1      -4.331   5.009 -32.058  1.00  0.00    -0.283 NA
HETATM    5  C   UNL     1      -4.379   4.661 -33.475  1.00  0.00     0.098 C 
HETATM    6  C   UNL     1      -5.840   4.526 -33.925  1.00  0.00     0.048 C 
ENDROOT
BRANCH   4   7
HETATM    7  C   UNL     1      -3.103   5.424 -31.506  1.00  0.00     0.010 A 
HETATM    8  C   UNL     1      -1.932   4.652 -31.526  1.00  0.00     0.024 A 
HETATM    9  C   UNL     1      -0.810   5.024 -30.767  1.00  0.00     0.019 A 
HETATM   10  C   UNL     1      -0.853   6.187 -29.990  1.00  0.00     0.032 A 
HETATM   11  C   UNL     1      -1.976   7.010 -30.028  1.00  0.00     0.019 A 
HETATM   12  C   UNL     1      -3.077   6.636 -30.795  1.00  0.00     0.024 A 
BRANCH  10  13
HETATM   13  C   UNL     1       0.186   6.481 -28.981  1.00  0.00     0.251 C 
HETATM   14  N   UNL     1       0.241   7.753 -28.468  1.00  0.00    -0.355 N 
HETATM   15  H   UNL     1      -0.450   8.420 -28.802  1.00  0.00     0.162 HD
HETATM   16  O   UNL     1       0.968   5.593 -28.652  1.00  0.00    -0.268 OA
BRANCH  14  17
HETATM   17  C   UNL     1       1.362   8.297 -27.701  1.00  0.00     0.150 C 
BRANCH  17  18
HETATM   18  C   UNL     1       1.170   9.672 -27.011  1.00  0.00     0.254 C 
BRANCH  18  19
HETATM   19  N   UNL     1       2.049   9.870 -25.800  1.00  0.00    -0.066 N 
HETATM   20  H   UNL     1       2.987  10.114 -26.183  1.00  0.00     0.280 HD
HETATM   21  C   UNL     1       1.662  11.014 -24.883  1.00  0.00     0.261 C 
HETATM   22  C   UNL     1       2.712  11.157 -23.773  1.00  0.00     0.195 C 
HETATM   23  O   UNL     1       2.847   9.938 -23.035  1.00  0.00    -0.388 OA
HETATM   24  C   UNL     1       3.274   8.860 -23.877  1.00  0.00     0.195 C 
HETATM   25  C   UNL     1       2.258   8.598 -24.996  1.00  0.00     0.261 C 
ENDBRANCH  18  19
ENDBRANCH  17  18
ENDBRANCH  14  17
ENDBRANCH  10  13
ENDBRANCH   4   7
BRANCH   1  26
HETATM   26  N   UNL     1      -6.866   2.218 -33.396  1.00  0.00    -0.056 N 
HETATM   27  C   UNL     1      -8.155   1.524 -32.885  1.00  0.00     0.257 C 
HETATM   28  C   UNL     1      -8.277   0.121 -33.493  1.00  0.00     0.041 C 
HETATM   29  C   UNL     1      -7.042  -0.721 -33.210  1.00  0.00     0.004 C 
HETATM   30  C   UNL     1      -5.802  -0.017 -33.733  1.00  0.00     0.028 C 
HETATM   31  C   UNL     1      -5.646   1.370 -33.128  1.00  0.00     0.236 C 
HETATM   32  H   UNL     1      -6.975   2.253 -34.416  1.00  0.00     0.281 HD
BRANCH  27  33
HETATM   33  C   UNL     1      -9.418   2.343 -33.007  1.00  0.00     0.136 A 
HETATM   34  N   UNL     1     -10.103   3.016 -32.017  1.00  0.00    -0.346 N 
HETATM   35  C   UNL     1      -9.816   3.098 -30.605  1.00  0.00     0.157 C 
HETATM   36  C   UNL     1     -11.178   3.630 -32.600  1.00  0.00     0.111 A 
HETATM   37  C   UNL     1     -11.126   3.291 -33.927  1.00  0.00     0.136 A 
HETATM   38  N   UNL     1     -10.054   2.478 -34.159  1.00  0.00    -0.244 NA
ENDBRANCH  27  33
ENDBRANCH   1  26
TORSDOF 7
ENDMDL
MODEL 6
REMARK VINA RESULT:      -7.7      3.516     10.880
REMARK  7 active torsions:
REMARK  status: ('A' for Active; 'I' for Inactive)
REMARK    1  A    between atoms: C_3  and  C_4 
REMARK    2  A    between atoms: N_5  and  C_7 
REMARK    3  A    between atoms: N_10  and  C_11 
REMARK    4  A    between atoms: C_14  and  C_15 
REMARK       I    between atoms: C_15  and  N_16 
REMARK    5  A    between atoms: N_16  and  C_17 
REMARK    6  A    between atoms: C_17  and  C_18 
REMARK    7  A    between atoms: C_18  and  N_19 
ROOT
HETATM    1  C   UNL     1     -10.390   3.005 -33.064  1.00  0.00     0.191 C 
HETATM    2  C   UNL     1      -9.334   2.469 -34.032  1.00  0.00     0.048 C 
HETATM    3  C   UNL     1      -7.962   3.079 -33.857  1.00  0.00     0.098 C 
HETATM    4  N   UNL     1      -7.564   2.971 -32.447  1.00  0.00    -0.283 NA
HETATM    5  C   UNL     1      -8.418   3.710 -31.522  1.00  0.00     0.098 C 
HETATM    6  C   UNL     1      -9.860   3.195 -31.627  1.00  0.00     0.048 C 
ENDROOT
BRANCH   4   7
HETATM    7  C   UNL     1      -6.167   3.110 -32.334  1.00  0.00     0.010 A 
HETATM    8  C   UNL     1      -5.458   2.969 -31.132  1.00  0.00     0.024 A 
HETATM    9  C   UNL     1      -4.106   3.340 -31.044  1.00  0.00     0.019 A 
HETATM   10  C   UNL     1      -3.450   3.844 -32.172  1.00  0.00     0.032 A 
HETATM   11  C   UNL     1      -4.114   3.907 -33.395  1.00  0.00     0.019 A 
HETATM   12  C   UNL     1      -5.452   3.525 -33.472  1.00  0.00     0.024 A 
BRANCH  10  13
HETATM   13  C   UNL     1      -2.123   4.487 -32.073  1.00  0.00     0.251 C 
HETATM   14  N   UNL     1      -1.609   4.707 -30.820  1.00  0.00    -0.355 N 
HETATM   15  H   UNL     1      -2.167   4.402 -30.026  1.00  0.00     0.162 HD
HETATM   16  O   UNL     1      -1.539   4.814 -33.102  1.00  0.00    -0.268 OA
BRANCH  14  17
HETATM   17  C   UNL     1      -0.472   5.581 -30.524  1.00  0.00     0.150 C 
BRANCH  17  18
HETATM   18  C   UNL     1      -0.719   6.814 -29.619  1.00  0.00     0.254 C 
BRANCH  18  19
HETATM   19  N   UNL     1      -1.309   6.468 -28.273  1.00  0.00    -0.066 N 
HETATM   20  H   UNL     1      -1.737   5.526 -28.399  1.00  0.00     0.280 HD
HETATM   21  C   UNL     1      -0.318   6.328 -27.134  1.00  0.00     0.261 C 
HETATM   22  C   UNL     1      -1.055   5.863 -25.870  1.00  0.00     0.195 C 
HETATM   23  O   UNL     1      -2.103   6.774 -25.523  1.00  0.00    -0.388 OA
HETATM   24  C   UNL     1      -3.082   6.869 -26.565  1.00  0.00     0.195 C 
HETATM   25  C   UNL     1      -2.453   7.382 -27.866  1.00  0.00     0.261 C 
ENDBRANCH  18  19
ENDBRANCH  17  18
ENDBRANCH  14  17
ENDBRANCH  10  13
ENDBRANCH   4   7
BRANCH   1  26
HETATM   26  N   UNL     1     -11.184   4.245 -33.577  1.00  0.00    -0.056 N 
HETATM   27  C   UNL     1     -12.312   3.893 -34.582  1.00  0.00     0.257 C 
HETATM   28  C   UNL     1     -13.154   5.138 -34.889  1.00  0.00     0.041 C 
HETATM   29  C   UNL     1     -12.292   6.286 -35.397  1.00  0.00     0.004 C 
HETATM   30  C   UNL     1     -11.207   6.610 -34.385  1.00  0.00     0.028 C 
HETATM   31  C   UNL     1     -10.343   5.395 -34.079  1.00  0.00     0.236 C 
HETATM   32  H   UNL     1     -11.674   4.589 -32.744  1.00  0.00     0.281 HD
BRANCH  27  33
HETATM   33  C   UNL     1     -13.139   2.684 -34.222  1.00  0.00     0.136 A 
HETATM   34  N   UNL     1     -13.865   2.453 -33.072  1.00  0.00    -0.346 N 
HETATM   35  C   UNL     1     -14.009   3.285 -31.903  1.00  0.00     0.157 C 
HETATM   36  C   UNL     1     -14.465   1.228 -33.199  1.00  0.00     0.111 A 
HETATM   37  C   UNL     1     -14.065   0.742 -34.416  1.00  0.00     0.136 A 
HETATM   38  N   UNL     1     -13.229   1.635 -35.023  1.00  0.00    -0.244 NA
ENDBRANCH  27  33
ENDBRANCH   1  26
TORSDOF 7
ENDMDL
MODEL 7
REMARK VINA RESULT:      -7.6      4.495     10.780
REMARK  7 active torsions:
REMARK  status: ('A' for Active; 'I' for Inactive)
REMARK    1  A    between atoms: C_3  and  C_4 
REMARK    2  A    between atoms: N_5  and  C_7 
REMARK    3  A    between atoms: N_10  and  C_11 
REMARK    4  A    between atoms: C_14  and  C_15 
REMARK       I    between atoms: C_15  and  N_16 
REMARK    5  A    between atoms: N_16  and  C_17 
REMARK    6  A    between atoms: C_17  and  C_18 
REMARK    7  A    between atoms: C_18  and  N_19 
ROOT
HETATM    1  C   UNL     1      -5.812   2.732 -32.620  1.00  0.00     0.191 C 
HETATM    2  C   UNL     1      -5.737   3.232 -31.176  1.00  0.00     0.048 C 
HETATM    3  C   UNL     1      -4.490   4.023 -30.855  1.00  0.00     0.098 C 
HETATM    4  N   UNL     1      -4.331   5.093 -31.847  1.00  0.00    -0.283 NA
HETATM    5  C   UNL     1      -4.128   4.623 -33.214  1.00  0.00     0.098 C 
HETATM    6  C   UNL     1      -5.330   3.774 -33.652  1.00  0.00     0.048 C 
ENDROOT
BRANCH   4   7
HETATM    7  C   UNL     1      -3.471   6.089 -31.342  1.00  0.00     0.010 A 
HETATM    8  C   UNL     1      -2.129   6.236 -31.723  1.00  0.00     0.024 A 
HETATM    9  C   UNL     1      -1.271   7.099 -31.021  1.00  0.00     0.019 A 
HETATM   10  C   UNL     1      -1.761   7.833 -29.936  1.00  0.00     0.032 A 
HETATM   11  C   UNL     1      -3.111   7.765 -29.600  1.00  0.00     0.019 A 
HETATM   12  C   UNL     1      -3.955   6.915 -30.312  1.00  0.00     0.024 A 
BRANCH  10  13
HETATM   13  C   UNL     1      -0.854   8.544 -29.011  1.00  0.00     0.251 C 
HETATM   14  N   UNL     1       0.329   7.935 -28.676  1.00  0.00    -0.355 N 
HETATM   15  H   UNL     1       0.522   7.029 -29.096  1.00  0.00     0.162 HD
HETATM   16  O   UNL     1      -1.191   9.638 -28.566  1.00  0.00    -0.268 OA
BRANCH  14  17
HETATM   17  C   UNL     1       1.196   8.342 -27.568  1.00  0.00     0.150 C 
BRANCH  17  18
HETATM   18  C   UNL     1       0.713   8.052 -26.125  1.00  0.00     0.254 C 
BRANCH  18  19
HETATM   19  N   UNL     1      -0.745   8.365 -25.899  1.00  0.00    -0.066 N 
HETATM   20  H   UNL     1      -1.048   8.877 -26.755  1.00  0.00     0.280 HD
HETATM   21  C   UNL     1      -1.668   7.167 -25.780  1.00  0.00     0.261 C 
HETATM   22  C   UNL     1      -3.120   7.649 -25.672  1.00  0.00     0.195 C 
HETATM   23  O   UNL     1      -3.287   8.532 -24.558  1.00  0.00    -0.388 OA
HETATM   24  C   UNL     1      -2.468   9.700 -24.686  1.00  0.00     0.195 C 
HETATM   25  C   UNL     1      -0.982   9.328 -24.747  1.00  0.00     0.261 C 
ENDBRANCH  18  19
ENDBRANCH  17  18
ENDBRANCH  14  17
ENDBRANCH  10  13
ENDBRANCH   4   7
BRANCH   1  26
HETATM   26  N   UNL     1      -5.194   1.322 -32.862  1.00  0.00    -0.056 N 
HETATM   27  C   UNL     1      -6.105   0.153 -32.404  1.00  0.00     0.257 C 
HETATM   28  C   UNL     1      -5.506  -1.189 -32.845  1.00  0.00     0.041 C 
HETATM   29  C   UNL     1      -4.082  -1.360 -32.335  1.00  0.00     0.004 C 
HETATM   30  C   UNL     1      -3.217  -0.206 -32.811  1.00  0.00     0.028 C 
HETATM   31  C   UNL     1      -3.779   1.137 -32.367  1.00  0.00     0.236 C 
HETATM   32  H   UNL     1      -5.155   1.239 -33.883  1.00  0.00     0.281 HD
BRANCH  27  33
HETATM   33  C   UNL     1      -7.566   0.301 -32.755  1.00  0.00     0.136 A 
HETATM   34  N   UNL     1      -8.146   0.364 -34.005  1.00  0.00    -0.346 N 
HETATM   35  C   UNL     1      -7.518   0.330 -35.303  1.00  0.00     0.157 C 
HETATM   36  C   UNL     1      -9.498   0.484 -33.829  1.00  0.00     0.111 A 
HETATM   37  C   UNL     1      -9.696   0.513 -32.474  1.00  0.00     0.136 A 
HETATM   38  N   UNL     1      -8.498   0.428 -31.824  1.00  0.00    -0.244 NA
ENDBRANCH  27  33
ENDBRANCH   1  26
TORSDOF 7
ENDMDL
MODEL 8
REMARK VINA RESULT:      -7.6      1.353      2.057
REMARK  7 active torsions:
REMARK  status: ('A' for Active; 'I' for Inactive)
REMARK    1  A    between atoms: C_3  and  C_4 
REMARK    2  A    between atoms: N_5  and  C_7 
REMARK    3  A    between atoms: N_10  and  C_11 
REMARK    4  A    between atoms: C_14  and  C_15 
REMARK       I    between atoms: C_15  and  N_16 
REMARK    5  A    between atoms: N_16  and  C_17 
REMARK    6  A    between atoms: C_17  and  C_18 
REMARK    7  A    between atoms: C_18  and  N_19 
ROOT
HETATM    1  C   UNL     1      -3.224   4.117 -31.182  1.00  0.00     0.191 C 
HETATM    2  C   UNL     1      -4.561   4.741 -30.778  1.00  0.00     0.048 C 
HETATM    3  C   UNL     1      -5.739   4.282 -31.606  1.00  0.00     0.098 C 
HETATM    4  N   UNL     1      -5.768   2.814 -31.627  1.00  0.00    -0.283 NA
HETATM    5  C   UNL     1      -4.607   2.196 -32.262  1.00  0.00     0.098 C 
HETATM    6  C   UNL     1      -3.330   2.615 -31.519  1.00  0.00     0.048 C 
ENDROOT
BRANCH   4   7
HETATM    7  C   UNL     1      -7.054   2.367 -31.992  1.00  0.00     0.010 A 
HETATM    8  C   UNL     1      -7.322   1.591 -33.129  1.00  0.00     0.024 A 
HETATM    9  C   UNL     1      -8.642   1.371 -33.556  1.00  0.00     0.019 A 
HETATM   10  C   UNL     1      -9.706   1.919 -32.833  1.00  0.00     0.032 A 
HETATM   11  C   UNL     1      -9.461   2.617 -31.653  1.00  0.00     0.019 A 
HETATM   12  C   UNL     1      -8.148   2.818 -31.233  1.00  0.00     0.024 A 
BRANCH  10  13
HETATM   13  C   UNL     1     -11.081   1.940 -33.375  1.00  0.00     0.251 C 
HETATM   14  N   UNL     1     -11.843   3.059 -33.150  1.00  0.00    -0.355 N 
HETATM   15  H   UNL     1     -11.412   3.820 -32.630  1.00  0.00     0.162 HD
HETATM   16  O   UNL     1     -11.496   0.962 -33.990  1.00  0.00    -0.268 OA
BRANCH  14  17
HETATM   17  C   UNL     1     -13.291   3.138 -33.348  1.00  0.00     0.150 C 
BRANCH  17  18
HETATM   18  C   UNL     1     -14.198   2.278 -32.431  1.00  0.00     0.254 C 
BRANCH  18  19
HETATM   19  N   UNL     1     -15.419   3.008 -31.929  1.00  0.00    -0.066 N 
HETATM   20  H   UNL     1     -15.436   2.833 -30.901  1.00  0.00     0.280 HD
HETATM   21  C   UNL     1     -15.403   4.516 -32.096  1.00  0.00     0.261 C 
HETATM   22  C   UNL     1     -16.651   5.116 -31.436  1.00  0.00     0.195 C 
HETATM   23  O   UNL     1     -17.845   4.556 -31.991  1.00  0.00    -0.388 OA
HETATM   24  C   UNL     1     -17.906   3.139 -31.785  1.00  0.00     0.195 C 
HETATM   25  C   UNL     1     -16.722   2.434 -32.459  1.00  0.00     0.261 C 
ENDBRANCH  18  19
ENDBRANCH  17  18
ENDBRANCH  14  17
ENDBRANCH  10  13
ENDBRANCH   4   7
BRANCH   1  26
HETATM   26  N   UNL     1      -2.423   4.914 -32.256  1.00  0.00    -0.056 N 
HETATM   27  C   UNL     1      -2.036   6.349 -31.808  1.00  0.00     0.257 C 
HETATM   28  C   UNL     1      -1.099   6.989 -32.840  1.00  0.00     0.041 C 
HETATM   29  C   UNL     1      -1.713   6.987 -34.232  1.00  0.00     0.004 C 
HETATM   30  C   UNL     1      -2.069   5.568 -34.641  1.00  0.00     0.028 C 
HETATM   31  C   UNL     1      -3.017   4.917 -33.644  1.00  0.00     0.236 C 
HETATM   32  H   UNL     1      -1.531   4.412 -32.324  1.00  0.00     0.281 HD
BRANCH  27  33
HETATM   33  C   UNL     1      -1.535   6.466 -30.389  1.00  0.00     0.136 A 
HETATM   34  N   UNL     1      -0.408   5.904 -29.828  1.00  0.00    -0.346 N 
HETATM   35  C   UNL     1       0.576   5.040 -30.432  1.00  0.00     0.157 C 
HETATM   36  C   UNL     1      -0.355   6.301 -28.518  1.00  0.00     0.111 A 
HETATM   37  C   UNL     1      -1.467   7.075 -28.318  1.00  0.00     0.136 A 
HETATM   38  N   UNL     1      -2.199   7.147 -29.469  1.00  0.00    -0.244 NA
ENDBRANCH  27  33
ENDBRANCH   1  26
TORSDOF 7
ENDMDL
MODEL 9
REMARK VINA RESULT:      -7.4      8.449     15.510
REMARK  7 active torsions:
REMARK  status: ('A' for Active; 'I' for Inactive)
REMARK    1  A    between atoms: C_3  and  C_4 
REMARK    2  A    between atoms: N_5  and  C_7 
REMARK    3  A    between atoms: N_10  and  C_11 
REMARK    4  A    between atoms: C_14  and  C_15 
REMARK       I    between atoms: C_15  and  N_16 
REMARK    5  A    between atoms: N_16  and  C_17 
REMARK    6  A    between atoms: C_17  and  C_18 
REMARK    7  A    between atoms: C_18  and  N_19 
ROOT
HETATM    1  C   UNL     1      -1.742   8.145 -28.395  1.00  0.00     0.191 C 
HETATM    2  C   UNL     1      -1.181   7.142 -27.385  1.00  0.00     0.048 C 
HETATM    3  C   UNL     1       0.107   7.577 -26.726  1.00  0.00     0.098 C 
HETATM    4  N   UNL     1      -0.069   8.924 -26.167  1.00  0.00    -0.283 NA
HETATM    5  C   UNL     1      -0.342   9.958 -27.162  1.00  0.00     0.098 C 
HETATM    6  C   UNL     1      -1.627   9.611 -27.927  1.00  0.00     0.048 C 
ENDROOT
BRANCH   4   7
HETATM    7  C   UNL     1       0.918   9.170 -25.192  1.00  0.00     0.010 A 
HETATM    8  C   UNL     1       0.739  10.018 -24.089  1.00  0.00     0.024 A 
HETATM    9  C   UNL     1       1.827  10.394 -23.285  1.00  0.00     0.019 A 
HETATM   10  C   UNL     1       3.106   9.907 -23.576  1.00  0.00     0.032 A 
HETATM   11  C   UNL     1       3.286   8.996 -24.614  1.00  0.00     0.019 A 
HETATM   12  C   UNL     1       2.196   8.621 -25.397  1.00  0.00     0.024 A 
BRANCH  10  13
HETATM   13  C   UNL     1       4.312  10.470 -22.934  1.00  0.00     0.251 C 
HETATM   14  N   UNL     1       5.498  10.400 -23.621  1.00  0.00    -0.355 N 
HETATM   15  H   UNL     1       5.477   9.974 -24.544  1.00  0.00     0.162 HD
HETATM   16  O   UNL     1       4.218  10.962 -21.813  1.00  0.00    -0.268 OA
BRANCH  14  17
HETATM   17  C   UNL     1       6.820  10.629 -23.034  1.00  0.00     0.150 C 
BRANCH  17  18
HETATM   18  C   UNL     1       7.872   9.497 -23.151  1.00  0.00     0.254 C 
BRANCH  18  19
HETATM   19  N   UNL     1       7.438   8.198 -22.519  1.00  0.00    -0.066 N 
HETATM   20  H   UNL     1       6.552   7.943 -23.007  1.00  0.00     0.280 HD
HETATM   21  C   UNL     1       8.376   7.022 -22.714  1.00  0.00     0.261 C 
HETATM   22  C   UNL     1       7.741   5.758 -22.119  1.00  0.00     0.195 C 
HETATM   23  O   UNL     1       7.436   5.941 -20.732  1.00  0.00    -0.388 OA
HETATM   24  C   UNL     1       6.501   7.009 -20.537  1.00  0.00     0.195 C 
HETATM   25  C   UNL     1       7.066   8.338 -21.053  1.00  0.00     0.261 C 
ENDBRANCH  18  19
ENDBRANCH  17  18
ENDBRANCH  14  17
ENDBRANCH  10  13
ENDBRANCH   4   7
BRANCH   1  26
HETATM   26  N   UNL     1      -1.250   7.946 -29.862  1.00  0.00    -0.056 N 
HETATM   27  C   UNL     1      -2.402   7.819 -30.894  1.00  0.00     0.257 C 
HETATM   28  C   UNL     1      -1.835   7.814 -32.320  1.00  0.00     0.041 C 
HETATM   29  C   UNL     1      -0.796   6.718 -32.505  1.00  0.00     0.004 C 
HETATM   30  C   UNL     1       0.319   6.880 -31.487  1.00  0.00     0.028 C 
HETATM   31  C   UNL     1      -0.215   6.866 -30.062  1.00  0.00     0.236 C 
HETATM   32  H   UNL     1      -0.790   8.834 -30.092  1.00  0.00     0.281 HD
BRANCH  27  33
HETATM   33  C   UNL     1      -3.544   8.787 -30.706  1.00  0.00     0.136 A 
HETATM   34  N   UNL     1      -4.811   8.536 -30.223  1.00  0.00    -0.346 N 
HETATM   35  C   UNL     1      -5.391   7.286 -29.794  1.00  0.00     0.157 C 
HETATM   36  C   UNL     1      -5.496   9.721 -30.218  1.00  0.00     0.111 A 
HETATM   37  C   UNL     1      -4.628  10.655 -30.721  1.00  0.00     0.136 A 
HETATM   38  N   UNL     1      -3.441  10.063 -31.043  1.00  0.00    -0.244 NA
ENDBRANCH  27  33
ENDBRANCH   1  26
TORSDOF 7
ENDMDL
MODEL 10
REMARK VINA RESULT:      -7.4      1.863      2.294
REMARK  7 active torsions:
REMARK  status: ('A' for Active; 'I' for Inactive)
REMARK    1  A    between atoms: C_3  and  C_4 
REMARK    2  A    between atoms: N_5  and  C_7 
REMARK    3  A    between atoms: N_10  and  C_11 
REMARK    4  A    between atoms: C_14  and  C_15 
REMARK       I    between atoms: C_15  and  N_16 
REMARK    5  A    between atoms: N_16  and  C_17 
REMARK    6  A    between atoms: C_17  and  C_18 
REMARK    7  A    between atoms: C_18  and  N_19 
ROOT
HETATM    1  C   UNL     1      -4.074   5.850 -30.256  1.00  0.00     0.191 C 
HETATM    2  C   UNL     1      -5.345   5.328 -29.583  1.00  0.00     0.048 C 
HETATM    3  C   UNL     1      -6.354   4.731 -30.536  1.00  0.00     0.098 C 
HETATM    4  N   UNL     1      -5.687   3.726 -31.375  1.00  0.00    -0.283 NA
HETATM    5  C   UNL     1      -4.637   4.261 -32.236  1.00  0.00     0.098 C 
HETATM    6  C   UNL     1      -3.553   4.926 -31.376  1.00  0.00     0.048 C 
ENDROOT
BRANCH   4   7
HETATM    7  C   UNL     1      -6.647   2.862 -31.938  1.00  0.00     0.010 A 
HETATM    8  C   UNL     1      -6.652   2.463 -33.283  1.00  0.00     0.024 A 
HETATM    9  C   UNL     1      -7.755   1.787 -33.830  1.00  0.00     0.019 A 
HETATM   10  C   UNL     1      -8.858   1.493 -33.023  1.00  0.00     0.032 A 
HETATM   11  C   UNL     1      -8.832   1.803 -31.666  1.00  0.00     0.019 A 
HETATM   12  C   UNL     1      -7.727   2.463 -31.132  1.00  0.00     0.024 A 
BRANCH  10  13
HETATM   13  C   UNL     1     -10.136   1.025 -33.601  1.00  0.00     0.251 C 
HETATM   14  N   UNL     1     -10.639   1.705 -34.681  1.00  0.00    -0.355 N 
HETATM   15  H   UNL     1     -10.095   2.488 -35.034  1.00  0.00     0.162 HD
HETATM   16  O   UNL     1     -10.706   0.065 -33.091  1.00  0.00    -0.268 OA
BRANCH  14  17
HETATM   17  C   UNL     1     -12.007   1.576 -35.188  1.00  0.00     0.150 C 
BRANCH  17  18
HETATM   18  C   UNL     1     -12.878   2.855 -35.261  1.00  0.00     0.254 C 
BRANCH  18  19
HETATM   19  N   UNL     1     -13.667   3.123 -34.003  1.00  0.00    -0.066 N 
HETATM   20  H   UNL     1     -14.512   3.646 -34.320  1.00  0.00     0.280 HD
HETATM   21  C   UNL     1     -14.184   1.898 -33.274  1.00  0.00     0.261 C 
HETATM   22  C   UNL     1     -15.058   2.339 -32.092  1.00  0.00     0.195 C 
HETATM   23  O   UNL     1     -14.328   3.190 -31.203  1.00  0.00    -0.388 OA
HETATM   24  C   UNL     1     -13.887   4.383 -31.862  1.00  0.00     0.195 C 
HETATM   25  C   UNL     1     -12.956   4.053 -33.035  1.00  0.00     0.261 C 
ENDBRANCH  18  19
ENDBRANCH  17  18
ENDBRANCH  14  17
ENDBRANCH  10  13
ENDBRANCH   4   7
BRANCH   1  26
HETATM   26  N   UNL     1      -4.129   7.346 -30.693  1.00  0.00    -0.056 N 
HETATM   27  C   UNL     1      -2.960   8.203 -30.137  1.00  0.00     0.257 C 
HETATM   28  C   UNL     1      -2.988   9.603 -30.761  1.00  0.00     0.041 C 
HETATM   29  C   UNL     1      -4.331  10.286 -30.546  1.00  0.00     0.004 C 
HETATM   30  C   UNL     1      -5.449   9.426 -31.111  1.00  0.00     0.028 C 
HETATM   31  C   UNL     1      -5.456   8.037 -30.491  1.00  0.00     0.236 C 
HETATM   32  H   UNL     1      -3.971   7.315 -31.706  1.00  0.00     0.281 HD
BRANCH  27  33
HETATM   33  C   UNL     1      -1.601   7.549 -30.191  1.00  0.00     0.136 A 
HETATM   34  N   UNL     1      -0.865   7.013 -29.155  1.00  0.00    -0.346 N 
HETATM   35  C   UNL     1      -1.180   6.955 -27.748  1.00  0.00     0.157 C 
HETATM   36  C   UNL     1       0.296   6.517 -29.685  1.00  0.00     0.111 A 
HETATM   37  C   UNL     1       0.239   6.788 -31.026  1.00  0.00     0.136 A 
HETATM   38  N   UNL     1      -0.920   7.447 -31.321  1.00  0.00    -0.244 NA
ENDBRANCH  27  33
ENDBRANCH   1  26
TORSDOF 7
ENDMDL
