MODEL 1
REMARK VINA RESULT:      -8.3      0.000      0.000
REMARK  4 active torsions:
REMARK  status: ('A' for Active; 'I' for Inactive)
REMARK    1  A    between atoms: C_8  and  N_9 
REMARK       I    between atoms: N_9  and  C_10 
REMARK       I    between atoms: C_10  and  N_11 
REMARK    2  A    between atoms: N_11  and  C_12 
REMARK    3  A    between atoms: C_15  and  C_16 
REMARK       I    between atoms: C_16  and  N_17 
REMARK    4  A    between atoms: N_17  and  C_18 
ROOT
HETATM    1  C   UNL     1      -4.341   2.642 -31.173  1.00  0.00     0.036 A 
HETATM    2  C   UNL     1      -5.676   2.238 -31.234  1.00  0.00     0.030 A 
HETATM    3  C   UNL     1      -6.031   1.034 -31.857  1.00  0.00     0.019 A 
HETATM    4  C   UNL     1      -5.051   0.230 -32.447  1.00  0.00     0.032 A 
HETATM    5  C   UNL     1      -3.707   0.602 -32.334  1.00  0.00     0.019 A 
HETATM    6  C   UNL     1      -3.356   1.798 -31.701  1.00  0.00     0.030 A 
ENDROOT
BRANCH   1   7
HETATM    7  N   UNL     1      -3.917   3.888 -30.668  1.00  0.00    -0.309 N 
HETATM    8  C   UNL     1      -3.830   5.095 -31.350  1.00  0.00     0.325 C 
HETATM    9  N   UNL     1      -3.064   5.992 -30.623  1.00  0.00    -0.305 N 
HETATM   10  O   UNL     1      -4.318   5.313 -32.449  1.00  0.00    -0.247 OA
HETATM   11  H   UNL     1      -2.472   5.595 -29.912  1.00  0.00     0.171 HD
HETATM   12  H   UNL     1      -3.683   3.915 -29.688  1.00  0.00     0.170 HD
BRANCH   9  13
HETATM   13  C   UNL     1      -2.771   7.301 -30.971  1.00  0.00     0.086 A 
HETATM   14  C   UNL     1      -3.195   8.370 -30.203  1.00  0.00     0.052 A 
HETATM   15  C   UNL     1      -3.966   8.459 -28.941  1.00  0.00     0.072 C 
HETATM   16  N   UNL     1      -2.715   9.488 -30.822  1.00  0.00    -0.280 N 
HETATM   17  H   UNL     1      -2.810  10.456 -30.533  1.00  0.00     0.189 HD
HETATM   18  N   UNL     1      -2.044   9.236 -31.948  1.00  0.00    -0.177 NA
HETATM   19  C   UNL     1      -2.070   7.899 -32.060  1.00  0.00     0.079 A 
HETATM   20  C   UNL     1      -1.433   7.285 -33.251  1.00  0.00     0.075 C 
ENDBRANCH   9  13
ENDBRANCH   1   7
BRANCH   4  21
HETATM   21  C   UNL     1      -5.383  -0.991 -33.239  1.00  0.00     0.252 C 
HETATM   22  N   UNL     1      -4.337  -1.564 -33.936  1.00  0.00    -0.352 N 
HETATM   23  H   UNL     1      -3.407  -1.219 -33.745  1.00  0.00     0.163 HD
HETATM   24  O   UNL     1      -6.514  -1.461 -33.187  1.00  0.00    -0.268 OA
BRANCH  22  25
HETATM   25  C   UNL     1      -4.396  -2.873 -34.553  1.00  0.00     0.084 C 
HETATM   26  C   UNL     1      -4.089  -4.022 -33.593  1.00  0.00     0.025 C 
HETATM   27  C   UNL     1      -4.627  -5.231 -34.338  1.00  0.00     0.002 C 
HETATM   28  C   UNL     1      -5.942  -4.728 -34.919  1.00  0.00     0.002 C 
HETATM   29  C   UNL     1      -5.719  -3.247 -35.234  1.00  0.00     0.025 C 
ENDBRANCH  22  25
ENDBRANCH   4  21
TORSDOF 4
ENDMDL
MODEL 2
REMARK VINA RESULT:      -8.2      6.328     11.783
REMARK  4 active torsions:
REMARK  status: ('A' for Active; 'I' for Inactive)
REMARK    1  A    between atoms: C_8  and  N_9 
REMARK       I    between atoms: N_9  and  C_10 
REMARK       I    between atoms: C_10  and  N_11 
REMARK    2  A    between atoms: N_11  and  C_12 
REMARK    3  A    between atoms: C_15  and  C_16 
REMARK       I    between atoms: C_16  and  N_17 
REMARK    4  A    between atoms: N_17  and  C_18 
ROOT
HETATM    1  C   UNL     1       0.135   6.599 -28.411  1.00  0.00     0.036 A 
HETATM    2  C   UNL     1      -0.161   6.334 -27.073  1.00  0.00     0.030 A 
HETATM    3  C   UNL     1       0.351   7.148 -26.053  1.00  0.00     0.019 A 
HETATM    4  C   UNL     1       1.185   8.226 -26.363  1.00  0.00     0.032 A 
HETATM    5  C   UNL     1       1.434   8.530 -27.706  1.00  0.00     0.019 A 
HETATM    6  C   UNL     1       0.911   7.723 -28.721  1.00  0.00     0.030 A 
ENDROOT
BRANCH   1   7
HETATM    7  N   UNL     1      -0.245   5.765 -29.482  1.00  0.00    -0.309 N 
HETATM    8  C   UNL     1      -1.337   5.914 -30.328  1.00  0.00     0.325 C 
HETATM    9  N   UNL     1      -1.563   4.734 -31.018  1.00  0.00    -0.305 N 
HETATM   10  O   UNL     1      -2.022   6.923 -30.412  1.00  0.00    -0.247 OA
HETATM   11  H   UNL     1      -1.140   3.906 -30.630  1.00  0.00     0.171 HD
HETATM   12  H   UNL     1       0.365   4.987 -29.679  1.00  0.00     0.170 HD
BRANCH   9  13
HETATM   13  C   UNL     1      -2.549   4.505 -31.964  1.00  0.00     0.086 A 
HETATM   14  C   UNL     1      -2.403   4.908 -33.279  1.00  0.00     0.052 A 
HETATM   15  C   UNL     1      -1.308   5.592 -34.006  1.00  0.00     0.072 C 
HETATM   16  N   UNL     1      -3.539   4.505 -33.920  1.00  0.00    -0.280 N 
HETATM   17  H   UNL     1      -3.777   4.609 -34.901  1.00  0.00     0.189 HD
HETATM   18  N   UNL     1      -4.426   3.906 -33.123  1.00  0.00    -0.177 NA
HETATM   19  C   UNL     1      -3.840   3.899 -31.916  1.00  0.00     0.079 A 
HETATM   20  C   UNL     1      -4.596   3.327 -30.775  1.00  0.00     0.075 C 
ENDBRANCH   9  13
ENDBRANCH   1   7
BRANCH   4  21
HETATM   21  C   UNL     1       1.866   9.042 -25.314  1.00  0.00     0.252 C 
HETATM   22  N   UNL     1       2.534   8.333 -24.335  1.00  0.00    -0.352 N 
HETATM   23  H   UNL     1       2.647   7.339 -24.476  1.00  0.00     0.163 HD
HETATM   24  O   UNL     1       1.864  10.265 -25.399  1.00  0.00    -0.268 OA
BRANCH  22  25
HETATM   25  C   UNL     1       3.451   8.931 -23.386  1.00  0.00     0.084 C 
HETATM   26  C   UNL     1       3.481   8.227 -22.030  1.00  0.00     0.025 C 
HETATM   27  C   UNL     1       4.769   8.746 -21.415  1.00  0.00     0.002 C 
HETATM   28  C   UNL     1       5.748   8.726 -22.581  1.00  0.00     0.002 C 
HETATM   29  C   UNL     1       4.916   9.039 -23.827  1.00  0.00     0.025 C 
ENDBRANCH  22  25
ENDBRANCH   4  21
TORSDOF 4
ENDMDL
MODEL 3
REMARK VINA RESULT:      -8.2      6.411     11.766
REMARK  4 active torsions:
REMARK  status: ('A' for Active; 'I' for Inactive)
REMARK    1  A    between atoms: C_8  and  N_9 
REMARK       I    between atoms: N_9  and  C_10 
REMARK       I    between atoms: C_10  and  N_11 
REMARK    2  A    between atoms: N_11  and  C_12 
REMARK    3  A    between atoms: C_15  and  C_16 
REMARK       I    between atoms: C_16  and  N_17 
REMARK    4  A    between atoms: N_17  and  C_18 
ROOT
HETATM    1  C   UNL     1       0.337   6.769 -28.501  1.00  0.00     0.036 A 
HETATM    2  C   UNL     1       0.035   6.397 -27.189  1.00  0.00     0.030 A 
HETATM    3  C   UNL     1       0.498   7.156 -26.107  1.00  0.00     0.019 A 
HETATM    4  C   UNL     1       1.290   8.288 -26.326  1.00  0.00     0.032 A 
HETATM    5  C   UNL     1       1.543   8.697 -27.640  1.00  0.00     0.019 A 
HETATM    6  C   UNL     1       1.068   7.943 -28.718  1.00  0.00     0.030 A 
ENDROOT
BRANCH   1   7
HETATM    7  N   UNL     1       0.006   5.998 -29.634  1.00  0.00    -0.309 N 
HETATM    8  C   UNL     1      -1.069   6.176 -30.497  1.00  0.00     0.325 C 
HETATM    9  N   UNL     1      -1.245   5.039 -31.269  1.00  0.00    -0.305 N 
HETATM   10  O   UNL     1      -1.777   7.171 -30.534  1.00  0.00    -0.247 OA
HETATM   11  H   UNL     1      -0.811   4.198 -30.924  1.00  0.00     0.171 HD
HETATM   12  H   UNL     1       0.641   5.251 -29.865  1.00  0.00     0.170 HD
BRANCH   9  13
HETATM   13  C   UNL     1      -2.200   4.849 -32.254  1.00  0.00     0.086 A 
HETATM   14  C   UNL     1      -3.078   3.780 -32.218  1.00  0.00     0.052 A 
HETATM   15  C   UNL     1      -3.272   2.670 -31.257  1.00  0.00     0.072 C 
HETATM   16  N   UNL     1      -3.879   3.919 -33.315  1.00  0.00    -0.280 N 
HETATM   17  H   UNL     1      -4.653   3.331 -33.605  1.00  0.00     0.189 HD
HETATM   18  N   UNL     1      -3.571   4.968 -34.080  1.00  0.00    -0.177 NA
HETATM   19  C   UNL     1      -2.540   5.551 -33.448  1.00  0.00     0.079 A 
HETATM   20  C   UNL     1      -1.924   6.748 -34.073  1.00  0.00     0.075 C 
ENDBRANCH   9  13
ENDBRANCH   1   7
BRANCH   4  21
HETATM   21  C   UNL     1       1.922   9.054 -25.212  1.00  0.00     0.252 C 
HETATM   22  N   UNL     1       2.601   8.305 -24.271  1.00  0.00    -0.352 N 
HETATM   23  H   UNL     1       2.754   7.327 -24.477  1.00  0.00     0.163 HD
HETATM   24  O   UNL     1       1.875  10.280 -25.213  1.00  0.00    -0.268 OA
BRANCH  22  25
HETATM   25  C   UNL     1       3.479   8.870 -23.266  1.00  0.00     0.084 C 
HETATM   26  C   UNL     1       3.499   8.086 -21.954  1.00  0.00     0.025 C 
HETATM   27  C   UNL     1       4.758   8.602 -21.278  1.00  0.00     0.002 C 
HETATM   28  C   UNL     1       5.762   8.680 -22.420  1.00  0.00     0.002 C 
HETATM   29  C   UNL     1       4.950   9.044 -23.665  1.00  0.00     0.025 C 
ENDBRANCH  22  25
ENDBRANCH   4  21
TORSDOF 4
ENDMDL
MODEL 4
REMARK VINA RESULT:      -8.1      3.818      9.401
REMARK  4 active torsions:
REMARK  status: ('A' for Active; 'I' for Inactive)
REMARK    1  A    between atoms: C_8  and  N_9 
REMARK       I    between atoms: N_9  and  C_10 
REMARK       I    between atoms: C_10  and  N_11 
REMARK    2  A    between atoms: N_11  and  C_12 
REMARK    3  A    between atoms: C_15  and  C_16 
REMARK       I    between atoms: C_16  and  N_17 
REMARK    4  A    between atoms: N_17  and  C_18 
ROOT
HETATM    1  C   UNL     1      -4.669   4.464 -32.498  1.00  0.00     0.036 A 
HETATM    2  C   UNL     1      -4.557   5.619 -31.721  1.00  0.00     0.030 A 
HETATM    3  C   UNL     1      -3.333   5.975 -31.141  1.00  0.00     0.019 A 
HETATM    4  C   UNL     1      -2.207   5.163 -31.315  1.00  0.00     0.032 A 
HETATM    5  C   UNL     1      -2.301   4.039 -32.143  1.00  0.00     0.019 A 
HETATM    6  C   UNL     1      -3.522   3.694 -32.730  1.00  0.00     0.030 A 
ENDROOT
BRANCH   1   7
HETATM    7  N   UNL     1      -5.886   3.979 -33.018  1.00  0.00    -0.309 N 
HETATM    8  C   UNL     1      -6.751   3.060 -32.436  1.00  0.00     0.325 C 
HETATM    9  N   UNL     1      -7.646   2.590 -33.384  1.00  0.00    -0.305 N 
HETATM   10  O   UNL     1      -6.698   2.691 -31.272  1.00  0.00    -0.247 OA
HETATM   11  H   UNL     1      -7.383   2.728 -34.347  1.00  0.00     0.171 HD
HETATM   12  H   UNL     1      -6.181   4.369 -33.899  1.00  0.00     0.170 HD
BRANCH   9  13
HETATM   13  C   UNL     1      -8.669   1.680 -33.176  1.00  0.00     0.086 A 
HETATM   14  C   UNL     1      -9.921   2.079 -32.748  1.00  0.00     0.052 A 
HETATM   15  C   UNL     1     -10.503   3.406 -32.437  1.00  0.00     0.072 C 
HETATM   16  N   UNL     1     -10.671   0.940 -32.673  1.00  0.00    -0.280 N 
HETATM   17  H   UNL     1     -11.647   0.846 -32.414  1.00  0.00     0.189 HD
HETATM   18  N   UNL     1      -9.998  -0.171 -32.983  1.00  0.00    -0.177 NA
HETATM   19  C   UNL     1      -8.765   0.261 -33.291  1.00  0.00     0.079 A 
HETATM   20  C   UNL     1      -7.740  -0.750 -33.649  1.00  0.00     0.075 C 
ENDBRANCH   9  13
ENDBRANCH   1   7
BRANCH   4  21
HETATM   21  C   UNL     1      -0.915   5.420 -30.613  1.00  0.00     0.252 C 
HETATM   22  N   UNL     1      -0.978   6.265 -29.522  1.00  0.00    -0.352 N 
HETATM   23  H   UNL     1      -1.895   6.524 -29.186  1.00  0.00     0.163 HD
HETATM   24  O   UNL     1       0.101   4.837 -30.975  1.00  0.00    -0.268 OA
BRANCH  22  25
HETATM   25  C   UNL     1       0.102   6.441 -28.572  1.00  0.00     0.084 C 
HETATM   26  C   UNL     1       0.769   7.814 -28.644  1.00  0.00     0.025 C 
HETATM   27  C   UNL     1       1.518   7.889 -27.325  1.00  0.00     0.002 C 
HETATM   28  C   UNL     1       0.530   7.301 -26.326  1.00  0.00     0.002 C 
HETATM   29  C   UNL     1      -0.249   6.231 -27.094  1.00  0.00     0.025 C 
ENDBRANCH  22  25
ENDBRANCH   4  21
TORSDOF 4
ENDMDL
MODEL 5
REMARK VINA RESULT:      -8.0      2.930      3.474
REMARK  4 active torsions:
REMARK  status: ('A' for Active; 'I' for Inactive)
REMARK    1  A    between atoms: C_8  and  N_9 
REMARK       I    between atoms: N_9  and  C_10 
REMARK       I    between atoms: C_10  and  N_11 
REMARK    2  A    between atoms: N_11  and  C_12 
REMARK    3  A    between atoms: C_15  and  C_16 
REMARK       I    between atoms: C_16  and  N_17 
REMARK    4  A    between atoms: N_17  and  C_18 
ROOT
HETATM    1  C   UNL     1      -5.118   2.411 -30.270  1.00  0.00     0.036 A 
HETATM    2  C   UNL     1      -4.037   2.539 -31.145  1.00  0.00     0.030 A 
HETATM    3  C   UNL     1      -3.787   1.563 -32.118  1.00  0.00     0.019 A 
HETATM    4  C   UNL     1      -4.607   0.434 -32.213  1.00  0.00     0.032 A 
HETATM    5  C   UNL     1      -5.726   0.335 -31.379  1.00  0.00     0.019 A 
HETATM    6  C   UNL     1      -5.979   1.317 -30.416  1.00  0.00     0.030 A 
ENDROOT
BRANCH   1   7
HETATM    7  N   UNL     1      -5.368   3.288 -29.195  1.00  0.00    -0.309 N 
HETATM    8  C   UNL     1      -5.742   4.625 -29.259  1.00  0.00     0.325 C 
HETATM    9  N   UNL     1      -5.563   5.223 -28.023  1.00  0.00    -0.305 N 
HETATM   10  O   UNL     1      -6.128   5.194 -30.269  1.00  0.00    -0.247 OA
HETATM   11  H   UNL     1      -4.953   4.741 -27.381  1.00  0.00     0.171 HD
HETATM   12  H   UNL     1      -5.301   2.890 -28.271  1.00  0.00     0.170 HD
BRANCH   9  13
HETATM   13  C   UNL     1      -5.844   6.539 -27.692  1.00  0.00     0.086 A 
HETATM   14  C   UNL     1      -4.883   7.374 -27.151  1.00  0.00     0.052 A 
HETATM   15  C   UNL     1      -3.453   7.178 -26.815  1.00  0.00     0.072 C 
HETATM   16  N   UNL     1      -5.495   8.582 -26.974  1.00  0.00    -0.280 N 
HETATM   17  H   UNL     1      -5.094   9.443 -26.617  1.00  0.00     0.189 HD
HETATM   18  N   UNL     1      -6.784   8.591 -27.323  1.00  0.00    -0.177 NA
HETATM   19  C   UNL     1      -7.019   7.344 -27.762  1.00  0.00     0.079 A 
HETATM   20  C   UNL     1      -8.397   7.006 -28.197  1.00  0.00     0.075 C 
ENDBRANCH   9  13
ENDBRANCH   1   7
BRANCH   4  21
HETATM   21  C   UNL     1      -4.310  -0.699 -33.138  1.00  0.00     0.252 C 
HETATM   22  N   UNL     1      -5.336  -1.604 -33.335  1.00  0.00    -0.352 N 
HETATM   23  H   UNL     1      -6.247  -1.360 -32.971  1.00  0.00     0.163 HD
HETATM   24  O   UNL     1      -3.232  -0.744 -33.720  1.00  0.00    -0.268 OA
BRANCH  22  25
HETATM   25  C   UNL     1      -5.333  -2.617 -34.370  1.00  0.00     0.084 C 
HETATM   26  C   UNL     1      -4.602  -3.900 -33.976  1.00  0.00     0.025 C 
HETATM   27  C   UNL     1      -5.105  -4.899 -35.003  1.00  0.00     0.002 C 
HETATM   28  C   UNL     1      -6.590  -4.578 -35.107  1.00  0.00     0.002 C 
HETATM   29  C   UNL     1      -6.705  -3.068 -34.887  1.00  0.00     0.025 C 
ENDBRANCH  22  25
ENDBRANCH   4  21
TORSDOF 4
ENDMDL
MODEL 6
REMARK VINA RESULT:      -8.0      4.242      9.320
REMARK  4 active torsions:
REMARK  status: ('A' for Active; 'I' for Inactive)
REMARK    1  A    between atoms: C_8  and  N_9 
REMARK       I    between atoms: N_9  and  C_10 
REMARK       I    between atoms: C_10  and  N_11 
REMARK    2  A    between atoms: N_11  and  C_12 
REMARK    3  A    between atoms: C_15  and  C_16 
REMARK       I    between atoms: C_16  and  N_17 
REMARK    4  A    between atoms: N_17  and  C_18 
ROOT
HETATM    1  C   UNL     1      -4.816   3.836 -32.716  1.00  0.00     0.036 A 
HETATM    2  C   UNL     1      -3.925   2.907 -32.174  1.00  0.00     0.030 A 
HETATM    3  C   UNL     1      -2.741   3.329 -31.557  1.00  0.00     0.019 A 
HETATM    4  C   UNL     1      -2.424   4.690 -31.494  1.00  0.00     0.032 A 
HETATM    5  C   UNL     1      -3.343   5.625 -31.980  1.00  0.00     0.019 A 
HETATM    6  C   UNL     1      -4.530   5.200 -32.586  1.00  0.00     0.030 A 
ENDROOT
BRANCH   1   7
HETATM    7  N   UNL     1      -5.967   3.487 -33.451  1.00  0.00    -0.309 N 
HETATM    8  C   UNL     1      -7.277   3.413 -32.993  1.00  0.00     0.325 C 
HETATM    9  N   UNL     1      -8.056   2.720 -33.905  1.00  0.00    -0.305 N 
HETATM   10  O   UNL     1      -7.668   3.856 -31.924  1.00  0.00    -0.247 OA
HETATM   11  H   UNL     1      -7.558   2.147 -34.568  1.00  0.00     0.171 HD
HETATM   12  H   UNL     1      -5.830   3.301 -34.432  1.00  0.00     0.170 HD
BRANCH   9  13
HETATM   13  C   UNL     1      -9.413   2.462 -33.805  1.00  0.00     0.086 A 
HETATM   14  C   UNL     1      -9.901   1.422 -33.033  1.00  0.00     0.052 A 
HETATM   15  C   UNL     1      -9.240   0.411 -32.175  1.00  0.00     0.072 C 
HETATM   16  N   UNL     1     -11.260   1.477 -33.148  1.00  0.00    -0.280 N 
HETATM   17  H   UNL     1     -11.952   0.884 -32.704  1.00  0.00     0.189 HD
HETATM   18  N   UNL     1     -11.694   2.443 -33.960  1.00  0.00    -0.177 NA
HETATM   19  C   UNL     1     -10.576   3.057 -34.377  1.00  0.00     0.079 A 
HETATM   20  C   UNL     1     -10.712   4.176 -35.343  1.00  0.00     0.075 C 
ENDBRANCH   9  13
ENDBRANCH   1   7
BRANCH   4  21
HETATM   21  C   UNL     1      -1.117   5.187 -30.970  1.00  0.00     0.252 C 
HETATM   22  N   UNL     1      -1.180   5.969 -29.833  1.00  0.00    -0.352 N 
HETATM   23  H   UNL     1      -2.068   6.023 -29.353  1.00  0.00     0.163 HD
HETATM   24  O   UNL     1      -0.073   4.837 -31.508  1.00  0.00    -0.268 OA
BRANCH  22  25
HETATM   25  C   UNL     1      -0.025   6.336 -29.038  1.00  0.00     0.084 C 
HETATM   26  C   UNL     1       0.408   7.790 -29.216  1.00  0.00     0.025 C 
HETATM   27  C   UNL     1       1.302   8.020 -28.010  1.00  0.00     0.002 C 
HETATM   28  C   UNL     1       0.556   7.322 -26.881  1.00  0.00     0.002 C 
HETATM   29  C   UNL     1      -0.143   6.122 -27.524  1.00  0.00     0.025 C 
ENDBRANCH  22  25
ENDBRANCH   4  21
TORSDOF 4
ENDMDL
MODEL 7
REMARK VINA RESULT:      -7.9     16.872     18.474
REMARK  4 active torsions:
REMARK  status: ('A' for Active; 'I' for Inactive)
REMARK    1  A    between atoms: C_8  and  N_9 
REMARK       I    between atoms: N_9  and  C_10 
REMARK       I    between atoms: C_10  and  N_11 
REMARK    2  A    between atoms: N_11  and  C_12 
REMARK    3  A    between atoms: C_15  and  C_16 
REMARK       I    between atoms: C_16  and  N_17 
REMARK    4  A    between atoms: N_17  and  C_18 
ROOT
HETATM    1  C   UNL     1      -6.868 -13.894 -34.095  1.00  0.00     0.036 A 
HETATM    2  C   UNL     1      -7.295 -15.159 -33.688  1.00  0.00     0.030 A 
HETATM    3  C   UNL     1      -6.729 -15.777 -32.565  1.00  0.00     0.019 A 
HETATM    4  C   UNL     1      -5.711 -15.141 -31.848  1.00  0.00     0.032 A 
HETATM    5  C   UNL     1      -5.324 -13.848 -32.217  1.00  0.00     0.019 A 
HETATM    6  C   UNL     1      -5.900 -13.230 -33.332  1.00  0.00     0.030 A 
ENDROOT
BRANCH   1   7
HETATM    7  N   UNL     1      -7.304 -13.258 -35.275  1.00  0.00    -0.309 N 
HETATM    8  C   UNL     1      -6.944 -13.558 -36.584  1.00  0.00     0.325 C 
HETATM    9  N   UNL     1      -7.306 -12.515 -37.422  1.00  0.00    -0.305 N 
HETATM   10  O   UNL     1      -6.356 -14.571 -36.931  1.00  0.00    -0.247 OA
HETATM   11  H   UNL     1      -7.484 -11.630 -36.976  1.00  0.00     0.171 HD
HETATM   12  H   UNL     1      -7.982 -12.522 -35.160  1.00  0.00     0.170 HD
BRANCH   9  13
HETATM   13  C   UNL     1      -7.128 -12.458 -38.794  1.00  0.00     0.086 A 
HETATM   14  C   UNL     1      -8.192 -12.571 -39.670  1.00  0.00     0.052 A 
HETATM   15  C   UNL     1      -9.650 -12.742 -39.466  1.00  0.00     0.072 C 
HETATM   16  N   UNL     1      -7.660 -12.450 -40.922  1.00  0.00    -0.280 N 
HETATM   17  H   UNL     1      -8.144 -12.461 -41.814  1.00  0.00     0.189 HD
HETATM   18  N   UNL     1      -6.333 -12.304 -40.933  1.00  0.00    -0.177 NA
HETATM   19  C   UNL     1      -5.986 -12.311 -39.636  1.00  0.00     0.079 A 
HETATM   20  C   UNL     1      -4.545 -12.206 -39.299  1.00  0.00     0.075 C 
ENDBRANCH   9  13
ENDBRANCH   1   7
BRANCH   4  21
HETATM   21  C   UNL     1      -4.981 -15.806 -30.728  1.00  0.00     0.252 C 
HETATM   22  N   UNL     1      -3.898 -16.583 -31.090  1.00  0.00    -0.352 N 
HETATM   23  H   UNL     1      -3.585 -16.528 -32.049  1.00  0.00     0.163 HD
HETATM   24  O   UNL     1      -5.315 -15.588 -29.569  1.00  0.00    -0.268 OA
BRANCH  22  25
HETATM   25  C   UNL     1      -2.924 -17.102 -30.151  1.00  0.00     0.084 C 
HETATM   26  C   UNL     1      -2.123 -16.017 -29.431  1.00  0.00     0.025 C 
HETATM   27  C   UNL     1      -1.529 -16.769 -28.253  1.00  0.00     0.002 C 
HETATM   28  C   UNL     1      -2.679 -17.650 -27.783  1.00  0.00     0.002 C 
HETATM   29  C   UNL     1      -3.463 -18.018 -29.045  1.00  0.00     0.025 C 
ENDBRANCH  22  25
ENDBRANCH   4  21
TORSDOF 4
ENDMDL
MODEL 8
REMARK VINA RESULT:      -7.8      3.781      9.728
REMARK  4 active torsions:
REMARK  status: ('A' for Active; 'I' for Inactive)
REMARK    1  A    between atoms: C_8  and  N_9 
REMARK       I    between atoms: N_9  and  C_10 
REMARK       I    between atoms: C_10  and  N_11 
REMARK    2  A    between atoms: N_11  and  C_12 
REMARK    3  A    between atoms: C_15  and  C_16 
REMARK       I    between atoms: C_16  and  N_17 
REMARK    4  A    between atoms: N_17  and  C_18 
ROOT
HETATM    1  C   UNL     1      -3.676   4.173 -32.106  1.00  0.00     0.036 A 
HETATM    2  C   UNL     1      -3.938   5.156 -31.150  1.00  0.00     0.030 A 
HETATM    3  C   UNL     1      -2.925   6.023 -30.721  1.00  0.00     0.019 A 
HETATM    4  C   UNL     1      -1.628   5.901 -31.231  1.00  0.00     0.032 A 
HETATM    5  C   UNL     1      -1.378   4.957 -32.233  1.00  0.00     0.019 A 
HETATM    6  C   UNL     1      -2.395   4.101 -32.667  1.00  0.00     0.030 A 
ENDROOT
BRANCH   1   7
HETATM    7  N   UNL     1      -4.608   3.192 -32.503  1.00  0.00    -0.309 N 
HETATM    8  C   UNL     1      -5.804   3.385 -33.184  1.00  0.00     0.325 C 
HETATM    9  N   UNL     1      -6.588   2.246 -33.090  1.00  0.00    -0.305 N 
HETATM   10  O   UNL     1      -6.131   4.422 -33.741  1.00  0.00    -0.247 OA
HETATM   11  H   UNL     1      -6.347   1.602 -32.354  1.00  0.00     0.171 HD
HETATM   12  H   UNL     1      -4.363   2.236 -32.299  1.00  0.00     0.170 HD
BRANCH   9  13
HETATM   13  C   UNL     1      -7.837   2.053 -33.657  1.00  0.00     0.086 A 
HETATM   14  C   UNL     1      -8.057   1.086 -34.620  1.00  0.00     0.052 A 
HETATM   15  C   UNL     1      -7.175   0.078 -35.254  1.00  0.00     0.072 C 
HETATM   16  N   UNL     1      -9.385   1.163 -34.930  1.00  0.00    -0.280 N 
HETATM   17  H   UNL     1      -9.911   0.593 -35.584  1.00  0.00     0.189 HD
HETATM   18  N   UNL     1     -10.038   2.125 -34.274  1.00  0.00    -0.177 NA
HETATM   19  C   UNL     1      -9.105   2.686 -33.490  1.00  0.00     0.079 A 
HETATM   20  C   UNL     1      -9.505   3.838 -32.643  1.00  0.00     0.075 C 
ENDBRANCH   9  13
ENDBRANCH   1   7
BRANCH   4  21
HETATM   21  C   UNL     1      -0.482   6.705 -30.714  1.00  0.00     0.252 C 
HETATM   22  N   UNL     1      -0.630   7.219 -29.440  1.00  0.00    -0.352 N 
HETATM   23  H   UNL     1      -1.418   6.895 -28.896  1.00  0.00     0.163 HD
HETATM   24  O   UNL     1       0.536   6.817 -31.387  1.00  0.00    -0.268 OA
BRANCH  22  25
HETATM   25  C   UNL     1       0.451   7.807 -28.674  1.00  0.00     0.084 C 
HETATM   26  C   UNL     1       0.040   9.046 -27.880  1.00  0.00     0.025 C 
HETATM   27  C   UNL     1       1.173   9.190 -26.879  1.00  0.00     0.002 C 
HETATM   28  C   UNL     1       1.438   7.756 -26.441  1.00  0.00     0.002 C 
HETATM   29  C   UNL     1       1.153   6.887 -27.668  1.00  0.00     0.025 C 
ENDBRANCH  22  25
ENDBRANCH   4  21
TORSDOF 4
ENDMDL
MODEL 9
REMARK VINA RESULT:      -7.7      4.991      9.277
REMARK  4 active torsions:
REMARK  status: ('A' for Active; 'I' for Inactive)
REMARK    1  A    between atoms: C_8  and  N_9 
REMARK       I    between atoms: N_9  and  C_10 
REMARK       I    between atoms: C_10  and  N_11 
REMARK    2  A    between atoms: N_11  and  C_12 
REMARK    3  A    between atoms: C_15  and  C_16 
REMARK       I    between atoms: C_16  and  N_17 
REMARK    4  A    between atoms: N_17  and  C_18 
ROOT
HETATM    1  C   UNL     1      -7.647   2.597 -31.282  1.00  0.00     0.036 A 
HETATM    2  C   UNL     1      -6.737   1.660 -30.787  1.00  0.00     0.030 A 
HETATM    3  C   UNL     1      -5.369   1.955 -30.730  1.00  0.00     0.019 A 
HETATM    4  C   UNL     1      -4.892   3.186 -31.191  1.00  0.00     0.032 A 
HETATM    5  C   UNL     1      -5.808   4.148 -31.630  1.00  0.00     0.019 A 
HETATM    6  C   UNL     1      -7.175   3.855 -31.674  1.00  0.00     0.030 A 
ENDROOT
BRANCH   1   7
HETATM    7  N   UNL     1      -9.019   2.335 -31.477  1.00  0.00    -0.309 N 
HETATM    8  C   UNL     1      -9.690   2.182 -32.685  1.00  0.00     0.325 C 
HETATM    9  N   UNL     1     -11.057   2.275 -32.478  1.00  0.00    -0.305 N 
HETATM   10  O   UNL     1      -9.149   2.033 -33.770  1.00  0.00    -0.247 OA
HETATM   11  H   UNL     1     -11.346   2.707 -31.615  1.00  0.00     0.171 HD
HETATM   12  H   UNL     1      -9.572   2.209 -30.644  1.00  0.00     0.170 HD
BRANCH   9  13
HETATM   13  C   UNL     1     -12.048   2.154 -33.438  1.00  0.00     0.086 A 
HETATM   14  C   UNL     1     -12.503   3.246 -34.155  1.00  0.00     0.052 A 
HETATM   15  C   UNL     1     -12.127   4.680 -34.151  1.00  0.00     0.072 C 
HETATM   16  N   UNL     1     -13.448   2.762 -35.013  1.00  0.00    -0.280 N 
HETATM   17  H   UNL     1     -13.984   3.270 -35.709  1.00  0.00     0.189 HD
HETATM   18  N   UNL     1     -13.671   1.452 -34.887  1.00  0.00    -0.177 NA
HETATM   19  C   UNL     1     -12.825   1.060 -33.922  1.00  0.00     0.079 A 
HETATM   20  C   UNL     1     -12.850  -0.364 -33.507  1.00  0.00     0.075 C 
ENDBRANCH   9  13
ENDBRANCH   1   7
BRANCH   4  21
HETATM   21  C   UNL     1      -3.436   3.502 -31.280  1.00  0.00     0.252 C 
HETATM   22  N   UNL     1      -3.091   4.825 -31.084  1.00  0.00    -0.352 N 
HETATM   23  H   UNL     1      -3.812   5.449 -30.748  1.00  0.00     0.163 HD
HETATM   24  O   UNL     1      -2.626   2.597 -31.447  1.00  0.00    -0.268 OA
BRANCH  22  25
HETATM   25  C   UNL     1      -1.732   5.286 -30.885  1.00  0.00     0.084 C 
HETATM   26  C   UNL     1      -1.007   5.643 -32.182  1.00  0.00     0.025 C 
HETATM   27  C   UNL     1       0.167   6.471 -31.690  1.00  0.00     0.002 C 
HETATM   28  C   UNL     1      -0.450   7.347 -30.608  1.00  0.00     0.002 C 
HETATM   29  C   UNL     1      -1.551   6.500 -29.965  1.00  0.00     0.025 C 
ENDBRANCH  22  25
ENDBRANCH   4  21
TORSDOF 4
ENDMDL
MODEL 10
REMARK VINA RESULT:      -7.4      3.880      5.148
REMARK  4 active torsions:
REMARK  status: ('A' for Active; 'I' for Inactive)
REMARK    1  A    between atoms: C_8  and  N_9 
REMARK       I    between atoms: N_9  and  C_10 
REMARK       I    between atoms: C_10  and  N_11 
REMARK    2  A    between atoms: N_11  and  C_12 
REMARK    3  A    between atoms: C_15  and  C_16 
REMARK       I    between atoms: C_16  and  N_17 
REMARK    4  A    between atoms: N_17  and  C_18 
ROOT
HETATM    1  C   UNL     1      -5.771   2.831 -30.799  1.00  0.00     0.036 A 
HETATM    2  C   UNL     1      -6.985   3.288 -30.282  1.00  0.00     0.030 A 
HETATM    3  C   UNL     1      -8.194   2.690 -30.662  1.00  0.00     0.019 A 
HETATM    4  C   UNL     1      -8.202   1.639 -31.584  1.00  0.00     0.032 A 
HETATM    5  C   UNL     1      -6.984   1.139 -32.056  1.00  0.00     0.019 A 
HETATM    6  C   UNL     1      -5.778   1.731 -31.665  1.00  0.00     0.030 A 
ENDROOT
BRANCH   1   7
HETATM    7  N   UNL     1      -4.528   3.451 -30.556  1.00  0.00    -0.309 N 
HETATM    8  C   UNL     1      -3.967   4.524 -31.238  1.00  0.00     0.325 C 
HETATM    9  N   UNL     1      -2.619   4.621 -30.934  1.00  0.00    -0.305 N 
HETATM   10  O   UNL     1      -4.567   5.243 -32.022  1.00  0.00    -0.247 OA
HETATM   11  H   UNL     1      -2.193   3.797 -30.540  1.00  0.00     0.171 HD
HETATM   12  H   UNL     1      -3.999   3.097 -29.775  1.00  0.00     0.170 HD
BRANCH   9  13
HETATM   13  C   UNL     1      -1.732   5.575 -31.405  1.00  0.00     0.086 A 
HETATM   14  C   UNL     1      -1.155   6.509 -30.565  1.00  0.00     0.052 A 
HETATM   15  C   UNL     1      -1.259   6.751 -29.106  1.00  0.00     0.072 C 
HETATM   16  N   UNL     1      -0.332   7.263 -31.353  1.00  0.00    -0.280 N 
HETATM   17  H   UNL     1       0.271   8.030 -31.077  1.00  0.00     0.189 HD
HETATM   18  N   UNL     1      -0.356   6.918 -32.642  1.00  0.00    -0.177 NA
HETATM   19  C   UNL     1      -1.213   5.887 -32.697  1.00  0.00     0.079 A 
HETATM   20  C   UNL     1      -1.498   5.285 -34.023  1.00  0.00     0.075 C 
ENDBRANCH   9  13
ENDBRANCH   1   7
BRANCH   4  21
HETATM   21  C   UNL     1      -9.464   1.055 -32.126  1.00  0.00     0.252 C 
HETATM   22  N   UNL     1     -10.405   1.962 -32.574  1.00  0.00    -0.352 N 
HETATM   23  H   UNL     1     -10.122   2.929 -32.648  1.00  0.00     0.163 HD
HETATM   24  O   UNL     1      -9.584  -0.162 -32.213  1.00  0.00    -0.268 OA
BRANCH  22  25
HETATM   25  C   UNL     1     -11.573   1.598 -33.352  1.00  0.00     0.084 C 
HETATM   26  C   UNL     1     -12.797   2.467 -33.069  1.00  0.00     0.025 C 
HETATM   27  C   UNL     1     -13.690   2.182 -34.264  1.00  0.00     0.002 C 
HETATM   28  C   UNL     1     -12.716   2.167 -35.434  1.00  0.00     0.002 C 
HETATM   29  C   UNL     1     -11.406   1.605 -34.877  1.00  0.00     0.025 C 
ENDBRANCH  22  25
ENDBRANCH   4  21
TORSDOF 4
ENDMDL
