MODEL 1
REMARK VINA RESULT:      -9.6      0.000      0.000
REMARK  7 active torsions:
REMARK  status: ('A' for Active; 'I' for Inactive)
REMARK    1  A    between atoms: C_3  and  C_4 
REMARK    2  A    between atoms: C_11  and  N_12 
REMARK       I    between atoms: N_12  and  C_13 
REMARK    3  A    between atoms: C_13  and  C_14 
REMARK    4  A    between atoms: C_21  and  C_22 
REMARK       I    between atoms: C_22  and  N_23 
REMARK    5  A    between atoms: N_23  and  C_24 
REMARK    6  A    between atoms: C_24  and  C_25 
REMARK    7  A    between atoms: C_25  and  C_26 
ROOT
HETATM    1  C   UNL     1      -9.356   1.822 -33.130  1.00  0.00     0.158 C 
HETATM    2  N   UNL     1      -8.481   2.883 -33.567  1.00  0.00    -0.335 N 
HETATM    3  C   UNL     1      -8.931   4.141 -33.908  1.00  0.00     0.111 A 
HETATM    4  N   UNL     1      -7.939   4.998 -33.970  1.00  0.00    -0.233 NA
HETATM    5  C   UNL     1      -6.812   4.269 -33.709  1.00  0.00     0.089 A 
HETATM    6  C   UNL     1      -7.100   2.911 -33.523  1.00  0.00     0.091 A 
HETATM    7  C   UNL     1      -6.078   1.978 -33.266  1.00  0.00     0.065 A 
HETATM    8  C   UNL     1      -4.779   2.493 -33.104  1.00  0.00     0.049 A 
HETATM    9  C   UNL     1      -4.479   3.847 -33.287  1.00  0.00     0.036 A 
HETATM   10  C   UNL     1      -5.497   4.748 -33.601  1.00  0.00     0.051 A 
ENDROOT
BRANCH   9  11
HETATM   11  C   UNL     1      -3.060   4.273 -33.125  1.00  0.00     0.251 C 
HETATM   12  N   UNL     1      -2.559   5.173 -34.042  1.00  0.00    -0.357 N 
HETATM   13  H   UNL     1      -3.091   5.406 -34.870  1.00  0.00     0.162 HD
HETATM   14  O   UNL     1      -2.385   3.796 -32.218  1.00  0.00    -0.268 OA
BRANCH  12  15
HETATM   15  C   UNL     1      -1.169   5.595 -33.985  1.00  0.00     0.127 C 
BRANCH  15  16
HETATM   16  C   UNL     1      -1.026   7.086 -33.661  1.00  0.00     0.060 C 
BRANCH  16  17
HETATM   17  C   UNL     1      -1.170   7.365 -32.200  1.00  0.00    -0.029 A 
HETATM   18  C   UNL     1      -0.504   6.668 -31.140  1.00  0.00    -0.002 A 
HETATM   19  C   UNL     1      -0.912   7.245 -29.937  1.00  0.00     0.042 A 
HETATM   20  C   UNL     1       0.408   5.595 -31.097  1.00  0.00     0.014 A 
HETATM   21  C   UNL     1      -0.450   6.806 -28.691  1.00  0.00     0.030 A 
HETATM   22  N   UNL     1      -1.793   8.254 -30.254  1.00  0.00    -0.365 N 
HETATM   23  C   UNL     1       0.458   5.742 -28.675  1.00  0.00     0.002 A 
HETATM   24  C   UNL     1       0.881   5.143 -29.859  1.00  0.00     0.001 A 
HETATM   25  H   UNL     1      -2.251   8.845 -29.574  1.00  0.00     0.165 HD
HETATM   26  C   UNL     1      -1.957   8.334 -31.611  1.00  0.00     0.096 A 
ENDBRANCH  16  17
ENDBRANCH  15  16
ENDBRANCH  12  15
ENDBRANCH   9  11
BRANCH   7  27
HETATM   27  N   UNL     1      -6.206   0.584 -33.144  1.00  0.00    -0.323 N 
HETATM   28  C   UNL     1      -6.443  -0.307 -34.179  1.00  0.00     0.251 C 
HETATM   29  O   UNL     1      -6.734  -0.018 -35.335  1.00  0.00    -0.270 OA
HETATM   30  H   UNL     1      -5.695   0.142 -32.379  1.00  0.00     0.169 HD
BRANCH  28  31
HETATM   31  C   UNL     1      -6.304  -1.764 -33.694  1.00  0.00     0.213 C 
HETATM   32  O   UNL     1      -4.905  -2.099 -33.555  1.00  0.00    -0.376 OA
HETATM   33  C   UNL     1      -4.573  -3.005 -34.612  1.00  0.00     0.168 C 
HETATM   34  C   UNL     1      -5.830  -3.799 -34.858  1.00  0.00     0.029 C 
HETATM   35  C   UNL     1      -6.918  -2.769 -34.662  1.00  0.00     0.044 C 
ENDBRANCH  28  31
ENDBRANCH   7  27
BRANCH   3  36
HETATM   36  C   UNL     1     -10.390   4.536 -34.114  1.00  0.00     0.056 C 
HETATM   37  C   UNL     1     -10.560   6.035 -34.514  1.00  0.00     0.012 C 
HETATM   38  C   UNL     1     -11.692   5.584 -35.454  1.00  0.00     0.002 C 
HETATM   39  C   UNL     1     -10.972   4.224 -35.524  1.00  0.00     0.012 C 
ENDBRANCH   3  36
TORSDOF 7
ENDMDL
MODEL 2
REMARK VINA RESULT:      -9.5      3.164      8.684
REMARK  7 active torsions:
REMARK  status: ('A' for Active; 'I' for Inactive)
REMARK    1  A    between atoms: C_3  and  C_4 
REMARK    2  A    between atoms: C_11  and  N_12 
REMARK       I    between atoms: N_12  and  C_13 
REMARK    3  A    between atoms: C_13  and  C_14 
REMARK    4  A    between atoms: C_21  and  C_22 
REMARK       I    between atoms: C_22  and  N_23 
REMARK    5  A    between atoms: N_23  and  C_24 
REMARK    6  A    between atoms: C_24  and  C_25 
REMARK    7  A    between atoms: C_25  and  C_26 
ROOT
HETATM    1  C   UNL     1      -3.944   7.638 -30.184  1.00  0.00     0.158 C 
HETATM    2  N   UNL     1      -5.004   6.722 -29.839  1.00  0.00    -0.335 N 
HETATM    3  C   UNL     1      -6.178   7.119 -29.236  1.00  0.00     0.111 A 
HETATM    4  N   UNL     1      -7.090   6.176 -29.307  1.00  0.00    -0.233 NA
HETATM    5  C   UNL     1      -6.476   5.125 -29.930  1.00  0.00     0.089 A 
HETATM    6  C   UNL     1      -5.133   5.398 -30.216  1.00  0.00     0.091 A 
HETATM    7  C   UNL     1      -4.310   4.439 -30.835  1.00  0.00     0.065 A 
HETATM    8  C   UNL     1      -4.930   3.243 -31.242  1.00  0.00     0.049 A 
HETATM    9  C   UNL     1      -6.271   2.958 -30.961  1.00  0.00     0.036 A 
HETATM   10  C   UNL     1      -7.055   3.898 -30.292  1.00  0.00     0.051 A 
ENDROOT
BRANCH   9  11
HETATM   11  C   UNL     1      -6.811   1.644 -31.408  1.00  0.00     0.251 C 
HETATM   12  N   UNL     1      -7.311   1.567 -32.692  1.00  0.00    -0.357 N 
HETATM   13  H   UNL     1      -7.441   2.407 -33.238  1.00  0.00     0.162 HD
HETATM   14  O   UNL     1      -6.823   0.697 -30.628  1.00  0.00    -0.268 OA
BRANCH  12  15
HETATM   15  C   UNL     1      -7.906   0.335 -33.184  1.00  0.00     0.127 C 
BRANCH  15  16
HETATM   16  C   UNL     1      -7.217  -0.178 -34.452  1.00  0.00     0.060 C 
BRANCH  16  17
HETATM   17  C   UNL     1      -6.011  -1.007 -34.147  1.00  0.00    -0.029 A 
HETATM   18  C   UNL     1      -5.879  -2.416 -34.370  1.00  0.00    -0.002 A 
HETATM   19  C   UNL     1      -4.602  -2.789 -33.954  1.00  0.00     0.042 A 
HETATM   20  C   UNL     1      -6.736  -3.408 -34.888  1.00  0.00     0.014 A 
HETATM   21  C   UNL     1      -4.134  -4.107 -34.034  1.00  0.00     0.030 A 
HETATM   22  N   UNL     1      -3.980  -1.652 -33.494  1.00  0.00    -0.365 N 
HETATM   23  C   UNL     1      -5.002  -5.072 -34.555  1.00  0.00     0.002 A 
HETATM   24  C   UNL     1      -6.285  -4.731 -34.975  1.00  0.00     0.001 A 
HETATM   25  H   UNL     1      -3.039  -1.624 -33.128  1.00  0.00     0.165 HD
HETATM   26  C   UNL     1      -4.818  -0.574 -33.604  1.00  0.00     0.096 A 
ENDBRANCH  16  17
ENDBRANCH  15  16
ENDBRANCH  12  15
ENDBRANCH   9  11
BRANCH   7  27
HETATM   27  N   UNL     1      -2.935   4.541 -31.104  1.00  0.00    -0.323 N 
HETATM   28  C   UNL     1      -2.366   5.094 -32.241  1.00  0.00     0.251 C 
HETATM   29  O   UNL     1      -2.959   5.440 -33.257  1.00  0.00    -0.270 OA
HETATM   30  H   UNL     1      -2.314   4.619 -30.298  1.00  0.00     0.169 HD
BRANCH  28  31
HETATM   31  C   UNL     1      -0.837   5.224 -32.084  1.00  0.00     0.213 C 
HETATM   32  O   UNL     1      -0.414   4.545 -30.879  1.00  0.00    -0.376 OA
HETATM   33  C   UNL     1      -0.038   5.548 -29.930  1.00  0.00     0.168 C 
HETATM   34  C   UNL     1       0.517   6.681 -30.756  1.00  0.00     0.029 C 
HETATM   35  C   UNL     1      -0.376   6.672 -31.975  1.00  0.00     0.044 C 
ENDBRANCH  28  31
ENDBRANCH   7  27
BRANCH   3  36
HETATM   36  C   UNL     1      -6.444   8.493 -28.629  1.00  0.00     0.056 C 
HETATM   37  C   UNL     1      -7.166   9.462 -29.616  1.00  0.00     0.012 C 
HETATM   38  C   UNL     1      -7.963   9.987 -28.410  1.00  0.00     0.002 C 
HETATM   39  C   UNL     1      -7.739   8.603 -27.771  1.00  0.00     0.012 C 
ENDBRANCH   3  36
TORSDOF 7
ENDMDL
MODEL 3
REMARK VINA RESULT:      -9.4      2.906      8.133
REMARK  7 active torsions:
REMARK  status: ('A' for Active; 'I' for Inactive)
REMARK    1  A    between atoms: C_3  and  C_4 
REMARK    2  A    between atoms: C_11  and  N_12 
REMARK       I    between atoms: N_12  and  C_13 
REMARK    3  A    between atoms: C_13  and  C_14 
REMARK    4  A    between atoms: C_21  and  C_22 
REMARK       I    between atoms: C_22  and  N_23 
REMARK    5  A    between atoms: N_23  and  C_24 
REMARK    6  A    between atoms: C_24  and  C_25 
REMARK    7  A    between atoms: C_25  and  C_26 
ROOT
HETATM    1  C   UNL     1      -3.341  -0.165 -32.843  1.00  0.00     0.158 C 
HETATM    2  N   UNL     1      -4.573  -0.526 -33.502  1.00  0.00    -0.335 N 
HETATM    3  C   UNL     1      -4.859  -1.808 -33.920  1.00  0.00     0.111 A 
HETATM    4  N   UNL     1      -6.135  -1.942 -34.201  1.00  0.00    -0.233 NA
HETATM    5  C   UNL     1      -6.681  -0.704 -34.004  1.00  0.00     0.089 A 
HETATM    6  C   UNL     1      -5.716   0.241 -33.636  1.00  0.00     0.091 A 
HETATM    7  C   UNL     1      -6.062   1.586 -33.408  1.00  0.00     0.065 A 
HETATM    8  C   UNL     1      -7.431   1.904 -33.468  1.00  0.00     0.049 A 
HETATM    9  C   UNL     1      -8.405   0.969 -33.836  1.00  0.00     0.036 A 
HETATM   10  C   UNL     1      -8.034  -0.346 -34.117  1.00  0.00     0.051 A 
ENDROOT
BRANCH   9  11
HETATM   11  C   UNL     1      -9.821   1.429 -33.902  1.00  0.00     0.251 C 
HETATM   12  N   UNL     1     -10.118   2.442 -34.789  1.00  0.00    -0.357 N 
HETATM   13  H   UNL     1      -9.375   2.946 -35.254  1.00  0.00     0.162 HD
HETATM   14  O   UNL     1     -10.656   0.925 -33.157  1.00  0.00    -0.268 OA
BRANCH  12  15
HETATM   15  C   UNL     1     -11.464   2.985 -34.873  1.00  0.00     0.127 C 
BRANCH  15  16
HETATM   16  C   UNL     1     -11.620   4.283 -34.076  1.00  0.00     0.060 C 
BRANCH  16  17
HETATM   17  C   UNL     1     -10.302   4.871 -33.686  1.00  0.00    -0.029 A 
HETATM   18  C   UNL     1      -9.646   4.706 -32.423  1.00  0.00    -0.002 A 
HETATM   19  C   UNL     1      -8.445   5.411 -32.478  1.00  0.00     0.042 A 
HETATM   20  C   UNL     1      -9.971   4.020 -31.235  1.00  0.00     0.014 A 
HETATM   21  C   UNL     1      -7.546   5.462 -31.405  1.00  0.00     0.030 A 
HETATM   22  N   UNL     1      -8.372   5.985 -33.726  1.00  0.00    -0.365 N 
HETATM   23  C   UNL     1      -7.889   4.770 -30.240  1.00  0.00     0.002 A 
HETATM   24  C   UNL     1      -9.085   4.060 -30.152  1.00  0.00     0.001 A 
HETATM   25  H   UNL     1      -7.604   6.558 -34.047  1.00  0.00     0.165 HD
HETATM   26  C   UNL     1      -9.483   5.669 -34.461  1.00  0.00     0.096 A 
ENDBRANCH  16  17
ENDBRANCH  15  16
ENDBRANCH  12  15
ENDBRANCH   9  11
BRANCH   7  27
HETATM   27  N   UNL     1      -5.196   2.653 -33.118  1.00  0.00    -0.323 N 
HETATM   28  C   UNL     1      -5.228   3.910 -33.700  1.00  0.00     0.251 C 
HETATM   29  O   UNL     1      -5.905   4.248 -34.665  1.00  0.00    -0.270 OA
HETATM   30  H   UNL     1      -4.811   2.687 -32.173  1.00  0.00     0.169 HD
BRANCH  28  31
HETATM   31  C   UNL     1      -4.269   4.877 -32.977  1.00  0.00     0.213 C 
HETATM   32  O   UNL     1      -4.060   6.054 -33.790  1.00  0.00    -0.376 OA
HETATM   33  C   UNL     1      -2.724   5.992 -34.300  1.00  0.00     0.168 C 
HETATM   34  C   UNL     1      -1.926   5.293 -33.228  1.00  0.00     0.029 C 
HETATM   35  C   UNL     1      -2.901   4.260 -32.710  1.00  0.00     0.044 C 
ENDBRANCH  28  31
ENDBRANCH   7  27
BRANCH   3  36
HETATM   36  C   UNL     1      -3.865  -2.964 -33.983  1.00  0.00     0.056 C 
HETATM   37  C   UNL     1      -3.566  -3.582 -32.582  1.00  0.00     0.012 C 
HETATM   38  C   UNL     1      -3.531  -4.956 -33.273  1.00  0.00     0.002 C 
HETATM   39  C   UNL     1      -4.478  -4.353 -34.326  1.00  0.00     0.012 C 
ENDBRANCH   3  36
TORSDOF 7
ENDMDL
MODEL 4
REMARK VINA RESULT:      -9.4      3.188      9.570
REMARK  7 active torsions:
REMARK  status: ('A' for Active; 'I' for Inactive)
REMARK    1  A    between atoms: C_3  and  C_4 
REMARK    2  A    between atoms: C_11  and  N_12 
REMARK       I    between atoms: N_12  and  C_13 
REMARK    3  A    between atoms: C_13  and  C_14 
REMARK    4  A    between atoms: C_21  and  C_22 
REMARK       I    between atoms: C_22  and  N_23 
REMARK    5  A    between atoms: N_23  and  C_24 
REMARK    6  A    between atoms: C_24  and  C_25 
REMARK    7  A    between atoms: C_25  and  C_26 
ROOT
HETATM    1  C   UNL     1      -4.588   1.125 -32.539  1.00  0.00     0.158 C 
HETATM    2  N   UNL     1      -6.029   1.120 -32.601  1.00  0.00    -0.335 N 
HETATM    3  C   UNL     1      -6.775  -0.029 -32.760  1.00  0.00     0.111 A 
HETATM    4  N   UNL     1      -8.040   0.185 -32.479  1.00  0.00    -0.233 NA
HETATM    5  C   UNL     1      -8.125   1.515 -32.175  1.00  0.00     0.089 A 
HETATM    6  C   UNL     1      -6.891   2.162 -32.313  1.00  0.00     0.091 A 
HETATM    7  C   UNL     1      -6.761   3.543 -32.072  1.00  0.00     0.065 A 
HETATM    8  C   UNL     1      -7.902   4.209 -31.589  1.00  0.00     0.049 A 
HETATM    9  C   UNL     1      -9.141   3.574 -31.447  1.00  0.00     0.036 A 
HETATM   10  C   UNL     1      -9.263   2.217 -31.749  1.00  0.00     0.051 A 
ENDROOT
BRANCH   9  11
HETATM   11  C   UNL     1     -10.289   4.389 -30.960  1.00  0.00     0.251 C 
HETATM   12  N   UNL     1     -11.397   3.711 -30.496  1.00  0.00    -0.357 N 
HETATM   13  H   UNL     1     -11.474   2.712 -30.629  1.00  0.00     0.162 HD
HETATM   14  O   UNL     1     -10.229   5.613 -31.015  1.00  0.00    -0.268 OA
BRANCH  12  15
HETATM   15  C   UNL     1     -12.579   4.433 -30.056  1.00  0.00     0.127 C 
BRANCH  15  16
HETATM   16  C   UNL     1     -13.567   4.684 -31.199  1.00  0.00     0.060 C 
BRANCH  16  17
HETATM   17  C   UNL     1     -13.896   3.434 -31.949  1.00  0.00    -0.029 A 
HETATM   18  C   UNL     1     -13.240   2.964 -33.133  1.00  0.00    -0.002 A 
HETATM   19  C   UNL     1     -13.849   1.765 -33.503  1.00  0.00     0.042 A 
HETATM   20  C   UNL     1     -12.181   3.454 -33.924  1.00  0.00     0.014 A 
HETATM   21  C   UNL     1     -13.450   1.028 -34.625  1.00  0.00     0.030 A 
HETATM   22  N   UNL     1     -14.840   1.516 -32.582  1.00  0.00    -0.365 N 
HETATM   23  C   UNL     1     -12.395   1.533 -35.391  1.00  0.00     0.002 A 
HETATM   24  C   UNL     1     -11.769   2.730 -35.049  1.00  0.00     0.001 A 
HETATM   25  H   UNL     1     -15.448   0.710 -32.602  1.00  0.00     0.165 HD
HETATM   26  C   UNL     1     -14.879   2.513 -31.644  1.00  0.00     0.096 A 
ENDBRANCH  16  17
ENDBRANCH  15  16
ENDBRANCH  12  15
ENDBRANCH   9  11
BRANCH   7  27
HETATM   27  N   UNL     1      -5.616   4.337 -32.251  1.00  0.00    -0.323 N 
HETATM   28  C   UNL     1      -5.199   4.910 -33.443  1.00  0.00     0.251 C 
HETATM   29  O   UNL     1      -5.665   4.694 -34.556  1.00  0.00    -0.270 OA
HETATM   30  H   UNL     1      -5.304   4.879 -31.445  1.00  0.00     0.169 HD
BRANCH  28  31
HETATM   31  C   UNL     1      -4.027   5.883 -33.205  1.00  0.00     0.213 C 
HETATM   32  O   UNL     1      -3.418   6.229 -34.470  1.00  0.00    -0.376 OA
HETATM   33  C   UNL     1      -2.142   5.583 -34.523  1.00  0.00     0.168 C 
HETATM   34  C   UNL     1      -1.662   5.544 -33.095  1.00  0.00     0.029 C 
HETATM   35  C   UNL     1      -2.936   5.289 -32.323  1.00  0.00     0.044 C 
ENDBRANCH  28  31
ENDBRANCH   7  27
BRANCH   3  36
HETATM   36  C   UNL     1      -6.223  -1.400 -33.134  1.00  0.00     0.056 C 
HETATM   37  C   UNL     1      -7.112  -2.147 -34.177  1.00  0.00     0.012 C 
HETATM   38  C   UNL     1      -5.810  -2.664 -34.813  1.00  0.00     0.002 C 
HETATM   39  C   UNL     1      -5.135  -1.400 -34.248  1.00  0.00     0.012 C 
ENDBRANCH   3  36
TORSDOF 7
ENDMDL
MODEL 5
REMARK VINA RESULT:      -9.4      2.489      9.445
REMARK  7 active torsions:
REMARK  status: ('A' for Active; 'I' for Inactive)
REMARK    1  A    between atoms: C_3  and  C_4 
REMARK    2  A    between atoms: C_11  and  N_12 
REMARK       I    between atoms: N_12  and  C_13 
REMARK    3  A    between atoms: C_13  and  C_14 
REMARK    4  A    between atoms: C_21  and  C_22 
REMARK       I    between atoms: C_22  and  N_23 
REMARK    5  A    between atoms: N_23  and  C_24 
REMARK    6  A    between atoms: C_24  and  C_25 
REMARK    7  A    between atoms: C_25  and  C_26 
ROOT
HETATM    1  C   UNL     1      -4.069  -0.432 -33.243  1.00  0.00     0.158 C 
HETATM    2  N   UNL     1      -5.479  -0.295 -33.517  1.00  0.00    -0.335 N 
HETATM    3  C   UNL     1      -6.307  -1.368 -33.773  1.00  0.00     0.111 A 
HETATM    4  N   UNL     1      -7.571  -1.023 -33.685  1.00  0.00    -0.233 NA
HETATM    5  C   UNL     1      -7.563   0.317 -33.412  1.00  0.00     0.089 A 
HETATM    6  C   UNL     1      -6.262   0.835 -33.373  1.00  0.00     0.091 A 
HETATM    7  C   UNL     1      -6.029   2.202 -33.130  1.00  0.00     0.065 A 
HETATM    8  C   UNL     1      -7.154   2.990 -32.829  1.00  0.00     0.049 A 
HETATM    9  C   UNL     1      -8.459   2.485 -32.865  1.00  0.00     0.036 A 
HETATM   10  C   UNL     1      -8.674   1.140 -33.167  1.00  0.00     0.051 A 
ENDROOT
BRANCH   9  11
HETATM   11  C   UNL     1      -9.577   3.423 -32.563  1.00  0.00     0.251 C 
HETATM   12  N   UNL     1      -9.689   4.549 -33.351  1.00  0.00    -0.357 N 
HETATM   13  H   UNL     1      -8.952   4.794 -33.998  1.00  0.00     0.162 HD
HETATM   14  O   UNL     1     -10.328   3.186 -31.623  1.00  0.00    -0.268 OA
BRANCH  12  15
HETATM   15  C   UNL     1     -10.719   5.541 -33.086  1.00  0.00     0.127 C 
BRANCH  15  16
HETATM   16  C   UNL     1     -11.776   5.593 -34.193  1.00  0.00     0.060 C 
BRANCH  16  17
HETATM   17  C   UNL     1     -12.155   4.232 -34.681  1.00  0.00    -0.029 A 
HETATM   18  C   UNL     1     -13.040   3.317 -34.023  1.00  0.00    -0.002 A 
HETATM   19  C   UNL     1     -13.122   2.171 -34.813  1.00  0.00     0.042 A 
HETATM   20  C   UNL     1     -13.776   3.362 -32.822  1.00  0.00     0.014 A 
HETATM   21  C   UNL     1     -13.910   1.066 -34.466  1.00  0.00     0.030 A 
HETATM   22  N   UNL     1     -12.317   2.379 -35.910  1.00  0.00    -0.365 N 
HETATM   23  C   UNL     1     -14.634   1.137 -33.272  1.00  0.00     0.002 A 
HETATM   24  C   UNL     1     -14.569   2.267 -32.459  1.00  0.00     0.001 A 
HETATM   25  H   UNL     1     -12.184   1.710 -36.655  1.00  0.00     0.165 HD
HETATM   26  C   UNL     1     -11.729   3.614 -35.840  1.00  0.00     0.096 A 
ENDBRANCH  16  17
ENDBRANCH  15  16
ENDBRANCH  12  15
ENDBRANCH   9  11
BRANCH   7  27
HETATM   27  N   UNL     1      -4.795   2.873 -33.146  1.00  0.00    -0.323 N 
HETATM   28  C   UNL     1      -3.963   3.074 -32.055  1.00  0.00     0.251 C 
HETATM   29  O   UNL     1      -4.233   2.843 -30.882  1.00  0.00    -0.270 OA
HETATM   30  H   UNL     1      -4.268   2.843 -34.019  1.00  0.00     0.169 HD
BRANCH  28  31
HETATM   31  C   UNL     1      -2.605   3.656 -32.499  1.00  0.00     0.213 C 
HETATM   32  O   UNL     1      -1.820   3.999 -31.335  1.00  0.00    -0.376 OA
HETATM   33  C   UNL     1      -1.777   5.428 -31.252  1.00  0.00     0.168 C 
HETATM   34  C   UNL     1      -1.812   5.905 -32.681  1.00  0.00     0.029 C 
HETATM   35  C   UNL     1      -2.751   4.920 -33.338  1.00  0.00     0.044 C 
ENDBRANCH  28  31
ENDBRANCH   7  27
BRANCH   3  36
HETATM   36  C   UNL     1      -5.849  -2.797 -34.045  1.00  0.00     0.056 C 
HETATM   37  C   UNL     1      -7.027  -3.749 -34.419  1.00  0.00     0.012 C 
HETATM   38  C   UNL     1      -6.076  -4.418 -35.426  1.00  0.00     0.002 C 
HETATM   39  C   UNL     1      -5.337  -3.069 -35.490  1.00  0.00     0.012 C 
ENDBRANCH   3  36
TORSDOF 7
ENDMDL
MODEL 6
REMARK VINA RESULT:      -9.3      2.015      5.321
REMARK  7 active torsions:
REMARK  status: ('A' for Active; 'I' for Inactive)
REMARK    1  A    between atoms: C_3  and  C_4 
REMARK    2  A    between atoms: C_11  and  N_12 
REMARK       I    between atoms: N_12  and  C_13 
REMARK    3  A    between atoms: C_13  and  C_14 
REMARK    4  A    between atoms: C_21  and  C_22 
REMARK       I    between atoms: C_22  and  N_23 
REMARK    5  A    between atoms: N_23  and  C_24 
REMARK    6  A    between atoms: C_24  and  C_25 
REMARK    7  A    between atoms: C_25  and  C_26 
ROOT
HETATM    1  C   UNL     1      -7.880  -0.039 -35.325  1.00  0.00     0.158 C 
HETATM    2  N   UNL     1      -6.765  -0.026 -34.409  1.00  0.00    -0.335 N 
HETATM    3  C   UNL     1      -5.822  -1.030 -34.354  1.00  0.00     0.111 A 
HETATM    4  N   UNL     1      -4.763  -0.649 -33.677  1.00  0.00    -0.233 NA
HETATM    5  C   UNL     1      -5.046   0.617 -33.244  1.00  0.00     0.089 A 
HETATM    6  C   UNL     1      -6.333   1.022 -33.619  1.00  0.00     0.091 A 
HETATM    7  C   UNL     1      -6.836   2.285 -33.253  1.00  0.00     0.065 A 
HETATM    8  C   UNL     1      -5.947   3.149 -32.586  1.00  0.00     0.049 A 
HETATM    9  C   UNL     1      -4.659   2.755 -32.205  1.00  0.00     0.036 A 
HETATM   10  C   UNL     1      -4.200   1.477 -32.525  1.00  0.00     0.051 A 
ENDROOT
BRANCH   9  11
HETATM   11  C   UNL     1      -3.819   3.743 -31.472  1.00  0.00     0.251 C 
HETATM   12  N   UNL     1      -2.507   3.883 -31.875  1.00  0.00    -0.357 N 
HETATM   13  H   UNL     1      -2.105   3.232 -32.535  1.00  0.00     0.162 HD
HETATM   14  O   UNL     1      -4.299   4.366 -30.530  1.00  0.00    -0.268 OA
BRANCH  12  15
HETATM   15  C   UNL     1      -1.608   4.785 -31.175  1.00  0.00     0.127 C 
BRANCH  15  16
HETATM   16  C   UNL     1      -1.599   6.190 -31.785  1.00  0.00     0.060 C 
BRANCH  16  17
HETATM   17  C   UNL     1      -1.840   7.254 -30.764  1.00  0.00    -0.029 A 
HETATM   18  C   UNL     1      -0.920   7.671 -29.748  1.00  0.00    -0.002 A 
HETATM   19  C   UNL     1      -1.534   8.687 -29.016  1.00  0.00     0.042 A 
HETATM   20  C   UNL     1       0.382   7.271 -29.385  1.00  0.00     0.014 A 
HETATM   21  C   UNL     1      -0.909   9.328 -27.940  1.00  0.00     0.030 A 
HETATM   22  N   UNL     1      -2.781   8.880 -29.564  1.00  0.00    -0.365 N 
HETATM   23  C   UNL     1       0.384   8.916 -27.602  1.00  0.00     0.002 A 
HETATM   24  C   UNL     1       1.022   7.901 -28.311  1.00  0.00     0.001 A 
HETATM   25  H   UNL     1      -3.451   9.559 -29.232  1.00  0.00     0.165 HD
HETATM   26  C   UNL     1      -2.977   8.024 -30.615  1.00  0.00     0.096 A 
ENDBRANCH  16  17
ENDBRANCH  15  16
ENDBRANCH  12  15
ENDBRANCH   9  11
BRANCH   7  27
HETATM   27  N   UNL     1      -8.126   2.790 -33.483  1.00  0.00    -0.323 N 
HETATM   28  C   UNL     1      -9.181   2.772 -32.584  1.00  0.00     0.251 C 
HETATM   29  O   UNL     1      -9.212   2.181 -31.510  1.00  0.00    -0.270 OA
HETATM   30  H   UNL     1      -8.203   3.570 -34.136  1.00  0.00     0.169 HD
BRANCH  28  31
HETATM   31  C   UNL     1     -10.366   3.606 -33.110  1.00  0.00     0.213 C 
HETATM   32  O   UNL     1     -11.474   2.732 -33.424  1.00  0.00    -0.376 OA
HETATM   33  C   UNL     1     -11.594   2.686 -34.849  1.00  0.00     0.168 C 
HETATM   34  C   UNL     1     -11.154   4.047 -35.325  1.00  0.00     0.029 C 
HETATM   35  C   UNL     1     -10.026   4.382 -34.377  1.00  0.00     0.044 C 
ENDBRANCH  28  31
ENDBRANCH   7  27
BRANCH   3  36
HETATM   36  C   UNL     1      -5.927  -2.387 -35.043  1.00  0.00     0.056 C 
HETATM   37  C   UNL     1      -4.809  -3.380 -34.599  1.00  0.00     0.012 C 
HETATM   38  C   UNL     1      -5.868  -4.494 -34.663  1.00  0.00     0.002 C 
HETATM   39  C   UNL     1      -6.911  -3.396 -34.382  1.00  0.00     0.012 C 
ENDBRANCH   3  36
TORSDOF 7
ENDMDL
MODEL 7
REMARK VINA RESULT:      -8.8      2.226      5.407
REMARK  7 active torsions:
REMARK  status: ('A' for Active; 'I' for Inactive)
REMARK    1  A    between atoms: C_3  and  C_4 
REMARK    2  A    between atoms: C_11  and  N_12 
REMARK       I    between atoms: N_12  and  C_13 
REMARK    3  A    between atoms: C_13  and  C_14 
REMARK    4  A    between atoms: C_21  and  C_22 
REMARK       I    between atoms: C_22  and  N_23 
REMARK    5  A    between atoms: N_23  and  C_24 
REMARK    6  A    between atoms: C_24  and  C_25 
REMARK    7  A    between atoms: C_25  and  C_26 
ROOT
HETATM    1  C   UNL     1      -7.388   0.649 -33.066  1.00  0.00     0.158 C 
HETATM    2  N   UNL     1      -6.121   1.145 -32.587  1.00  0.00    -0.335 N 
HETATM    3  C   UNL     1      -5.001   0.351 -32.452  1.00  0.00     0.111 A 
HETATM    4  N   UNL     1      -3.919   1.079 -32.300  1.00  0.00    -0.233 NA
HETATM    5  C   UNL     1      -4.353   2.376 -32.290  1.00  0.00     0.089 A 
HETATM    6  C   UNL     1      -5.747   2.461 -32.392  1.00  0.00     0.091 A 
HETATM    7  C   UNL     1      -6.404   3.706 -32.375  1.00  0.00     0.065 A 
HETATM    8  C   UNL     1      -5.586   4.851 -32.358  1.00  0.00     0.049 A 
HETATM    9  C   UNL     1      -4.192   4.778 -32.256  1.00  0.00     0.036 A 
HETATM   10  C   UNL     1      -3.563   3.534 -32.212  1.00  0.00     0.051 A 
ENDROOT
BRANCH   9  11
HETATM   11  C   UNL     1      -3.431   6.058 -32.208  1.00  0.00     0.251 C 
HETATM   12  N   UNL     1      -2.057   5.983 -32.306  1.00  0.00    -0.357 N 
HETATM   13  H   UNL     1      -1.592   5.087 -32.256  1.00  0.00     0.162 HD
HETATM   14  O   UNL     1      -4.034   7.116 -32.055  1.00  0.00    -0.268 OA
BRANCH  12  15
HETATM   15  C   UNL     1      -1.240   7.181 -32.213  1.00  0.00     0.127 C 
BRANCH  15  16
HETATM   16  C   UNL     1       0.193   6.876 -31.765  1.00  0.00     0.060 C 
BRANCH  16  17
HETATM   17  C   UNL     1       0.245   6.295 -30.388  1.00  0.00    -0.029 A 
HETATM   18  C   UNL     1      -0.058   6.987 -29.171  1.00  0.00    -0.002 A 
HETATM   19  C   UNL     1       0.111   6.083 -28.122  1.00  0.00     0.042 A 
HETATM   20  C   UNL     1      -0.460   8.303 -28.868  1.00  0.00     0.014 A 
HETATM   21  C   UNL     1      -0.107   6.429 -26.782  1.00  0.00     0.030 A 
HETATM   22  N   UNL     1       0.504   4.888 -28.679  1.00  0.00    -0.365 N 
HETATM   23  C   UNL     1      -0.509   7.740 -26.508  1.00  0.00     0.002 A 
HETATM   24  C   UNL     1      -0.682   8.666 -27.534  1.00  0.00     0.001 A 
HETATM   25  H   UNL     1       0.700   4.050 -28.151  1.00  0.00     0.165 HD
HETATM   26  C   UNL     1       0.590   5.004 -30.041  1.00  0.00     0.096 A 
ENDBRANCH  16  17
ENDBRANCH  15  16
ENDBRANCH  12  15
ENDBRANCH   9  11
BRANCH   7  27
HETATM   27  N   UNL     1      -7.789   3.940 -32.384  1.00  0.00    -0.323 N 
HETATM   28  C   UNL     1      -8.509   4.530 -33.411  1.00  0.00     0.251 C 
HETATM   29  O   UNL     1      -8.044   5.082 -34.402  1.00  0.00    -0.270 OA
HETATM   30  H   UNL     1      -8.366   3.295 -31.843  1.00  0.00     0.169 HD
BRANCH  28  31
HETATM   31  C   UNL     1     -10.026   4.421 -33.153  1.00  0.00     0.213 C 
HETATM   32  O   UNL     1     -10.318   3.164 -32.503  1.00  0.00    -0.376 OA
HETATM   33  C   UNL     1     -10.984   2.331 -33.457  1.00  0.00     0.168 C 
HETATM   34  C   UNL     1     -11.770   3.279 -34.326  1.00  0.00     0.029 C 
HETATM   35  C   UNL     1     -10.847   4.471 -34.436  1.00  0.00     0.044 C 
ENDBRANCH  28  31
ENDBRANCH   7  27
BRANCH   3  36
HETATM   36  C   UNL     1      -4.977  -1.172 -32.542  1.00  0.00     0.056 C 
HETATM   37  C   UNL     1      -4.754  -1.688 -33.997  1.00  0.00     0.012 C 
HETATM   38  C   UNL     1      -3.884  -2.805 -33.394  1.00  0.00     0.002 C 
HETATM   39  C   UNL     1      -3.604  -1.836 -32.230  1.00  0.00     0.012 C 
ENDBRANCH   3  36
TORSDOF 7
ENDMDL
MODEL 8
REMARK VINA RESULT:      -8.8      2.742      5.992
REMARK  7 active torsions:
REMARK  status: ('A' for Active; 'I' for Inactive)
REMARK    1  A    between atoms: C_3  and  C_4 
REMARK    2  A    between atoms: C_11  and  N_12 
REMARK       I    between atoms: N_12  and  C_13 
REMARK    3  A    between atoms: C_13  and  C_14 
REMARK    4  A    between atoms: C_21  and  C_22 
REMARK       I    between atoms: C_22  and  N_23 
REMARK    5  A    between atoms: N_23  and  C_24 
REMARK    6  A    between atoms: C_24  and  C_25 
REMARK    7  A    between atoms: C_25  and  C_26 
ROOT
HETATM    1  C   UNL     1      -7.726  -0.403 -35.460  1.00  0.00     0.158 C 
HETATM    2  N   UNL     1      -6.993  -0.115 -34.251  1.00  0.00    -0.335 N 
HETATM    3  C   UNL     1      -5.803  -0.731 -33.925  1.00  0.00     0.111 A 
HETATM    4  N   UNL     1      -5.189  -0.091 -32.956  1.00  0.00    -0.233 NA
HETATM    5  C   UNL     1      -6.023   0.937 -32.614  1.00  0.00     0.089 A 
HETATM    6  C   UNL     1      -7.211   0.914 -33.355  1.00  0.00     0.091 A 
HETATM    7  C   UNL     1      -8.221   1.872 -33.143  1.00  0.00     0.065 A 
HETATM    8  C   UNL     1      -7.931   2.903 -32.230  1.00  0.00     0.049 A 
HETATM    9  C   UNL     1      -6.748   2.936 -31.483  1.00  0.00     0.036 A 
HETATM   10  C   UNL     1      -5.785   1.943 -31.664  1.00  0.00     0.051 A 
ENDROOT
BRANCH   9  11
HETATM   11  C   UNL     1      -6.565   4.057 -30.519  1.00  0.00     0.251 C 
HETATM   12  N   UNL     1      -5.328   4.666 -30.482  1.00  0.00    -0.357 N 
HETATM   13  H   UNL     1      -4.547   4.262 -30.980  1.00  0.00     0.162 HD
HETATM   14  O   UNL     1      -7.491   4.377 -29.780  1.00  0.00    -0.268 OA
BRANCH  12  15
HETATM   15  C   UNL     1      -5.053   5.731 -29.531  1.00  0.00     0.127 C 
BRANCH  15  16
HETATM   16  C   UNL     1      -4.318   6.910 -30.173  1.00  0.00     0.060 C 
BRANCH  16  17
HETATM   17  C   UNL     1      -3.087   6.482 -30.905  1.00  0.00    -0.029 A 
HETATM   18  C   UNL     1      -3.019   6.083 -32.279  1.00  0.00    -0.002 A 
HETATM   19  C   UNL     1      -1.690   5.769 -32.560  1.00  0.00     0.042 A 
HETATM   20  C   UNL     1      -3.973   5.960 -33.309  1.00  0.00     0.014 A 
HETATM   21  C   UNL     1      -1.263   5.341 -33.823  1.00  0.00     0.030 A 
HETATM   22  N   UNL     1      -0.976   5.966 -31.401  1.00  0.00    -0.365 N 
HETATM   23  C   UNL     1      -2.228   5.231 -34.830  1.00  0.00     0.002 A 
HETATM   24  C   UNL     1      -3.565   5.534 -34.579  1.00  0.00     0.001 A 
HETATM   25  H   UNL     1       0.019   5.815 -31.311  1.00  0.00     0.165 HD
HETATM   26  C   UNL     1      -1.805   6.394 -30.398  1.00  0.00     0.096 A 
ENDBRANCH  16  17
ENDBRANCH  15  16
ENDBRANCH  12  15
ENDBRANCH   9  11
BRANCH   7  27
HETATM   27  N   UNL     1      -9.488   1.924 -33.746  1.00  0.00    -0.323 N 
HETATM   28  C   UNL     1     -10.537   1.047 -33.515  1.00  0.00     0.251 C 
HETATM   29  O   UNL     1     -10.485   0.002 -32.876  1.00  0.00    -0.270 OA
HETATM   30  H   UNL     1      -9.825   2.845 -34.027  1.00  0.00     0.169 HD
BRANCH  28  31
HETATM   31  C   UNL     1     -11.831   1.547 -34.189  1.00  0.00     0.213 C 
HETATM   32  O   UNL     1     -12.234   2.802 -33.596  1.00  0.00    -0.376 OA
HETATM   33  C   UNL     1     -13.402   2.550 -32.808  1.00  0.00     0.168 C 
HETATM   34  C   UNL     1     -14.126   1.439 -33.524  1.00  0.00     0.029 C 
HETATM   35  C   UNL     1     -12.993   0.575 -34.028  1.00  0.00     0.044 C 
ENDBRANCH  28  31
ENDBRANCH   7  27
BRANCH   3  36
HETATM   36  C   UNL     1      -5.210  -1.946 -34.630  1.00  0.00     0.056 C 
HETATM   37  C   UNL     1      -4.206  -2.736 -33.733  1.00  0.00     0.012 C 
HETATM   38  C   UNL     1      -4.774  -4.025 -34.352  1.00  0.00     0.002 C 
HETATM   39  C   UNL     1      -6.079  -3.237 -34.576  1.00  0.00     0.012 C 
ENDBRANCH   3  36
TORSDOF 7
ENDMDL
MODEL 9
REMARK VINA RESULT:      -8.8     17.576     19.088
REMARK  7 active torsions:
REMARK  status: ('A' for Active; 'I' for Inactive)
REMARK    1  A    between atoms: C_3  and  C_4 
REMARK    2  A    between atoms: C_11  and  N_12 
REMARK       I    between atoms: N_12  and  C_13 
REMARK    3  A    between atoms: C_13  and  C_14 
REMARK    4  A    between atoms: C_21  and  C_22 
REMARK       I    between atoms: C_22  and  N_23 
REMARK    5  A    between atoms: N_23  and  C_24 
REMARK    6  A    between atoms: C_24  and  C_25 
REMARK    7  A    between atoms: C_25  and  C_26 
ROOT
HETATM    1  C   UNL     1      -5.656 -14.070 -39.869  1.00  0.00     0.158 C 
HETATM    2  N   UNL     1      -6.334 -13.712 -38.647  1.00  0.00    -0.335 N 
HETATM    3  C   UNL     1      -7.696 -13.509 -38.571  1.00  0.00     0.111 A 
HETATM    4  N   UNL     1      -8.104 -13.501 -37.322  1.00  0.00    -0.233 NA
HETATM    5  C   UNL     1      -6.973 -13.655 -36.570  1.00  0.00     0.089 A 
HETATM    6  C   UNL     1      -5.821 -13.716 -37.364  1.00  0.00     0.091 A 
HETATM    7  C   UNL     1      -4.544 -13.849 -36.787  1.00  0.00     0.065 A 
HETATM    8  C   UNL     1      -4.498 -14.021 -35.391  1.00  0.00     0.049 A 
HETATM    9  C   UNL     1      -5.641 -13.962 -34.586  1.00  0.00     0.036 A 
HETATM   10  C   UNL     1      -6.892 -13.769 -35.172  1.00  0.00     0.051 A 
ENDROOT
BRANCH   9  11
HETATM   11  C   UNL     1      -5.466 -14.122 -33.116  1.00  0.00     0.251 C 
HETATM   12  N   UNL     1      -5.251 -15.398 -32.637  1.00  0.00    -0.357 N 
HETATM   13  H   UNL     1      -5.364 -16.195 -33.248  1.00  0.00     0.162 HD
HETATM   14  O   UNL     1      -5.548 -13.139 -32.386  1.00  0.00    -0.268 OA
BRANCH  12  15
HETATM   15  C   UNL     1      -5.126 -15.644 -31.210  1.00  0.00     0.127 C 
BRANCH  15  16
HETATM   16  C   UNL     1      -4.056 -16.693 -30.892  1.00  0.00     0.060 C 
BRANCH  16  17
HETATM   17  C   UNL     1      -2.698 -16.276 -31.356  1.00  0.00    -0.029 A 
HETATM   18  C   UNL     1      -2.128 -16.546 -32.643  1.00  0.00    -0.002 A 
HETATM   19  C   UNL     1      -0.853 -15.981 -32.664  1.00  0.00     0.042 A 
HETATM   20  C   UNL     1      -2.583 -17.225 -33.791  1.00  0.00     0.014 A 
HETATM   21  C   UNL     1      -0.010 -16.055 -33.780  1.00  0.00     0.030 A 
HETATM   22  N   UNL     1      -0.654 -15.391 -31.437  1.00  0.00    -0.365 N 
HETATM   23  C   UNL     1      -0.487 -16.730 -34.908  1.00  0.00     0.002 A 
HETATM   24  C   UNL     1      -1.754 -17.309 -34.916  1.00  0.00     0.001 A 
HETATM   25  H   UNL     1       0.189 -14.902 -31.170  1.00  0.00     0.165 HD
HETATM   26  C   UNL     1      -1.755 -15.563 -30.642  1.00  0.00     0.096 A 
ENDBRANCH  16  17
ENDBRANCH  15  16
ENDBRANCH  12  15
ENDBRANCH   9  11
BRANCH   7  27
HETATM   27  N   UNL     1      -3.304 -13.838 -37.446  1.00  0.00    -0.323 N 
HETATM   28  C   UNL     1      -2.698 -12.734 -38.024  1.00  0.00     0.251 C 
HETATM   29  O   UNL     1      -3.206 -11.631 -38.194  1.00  0.00    -0.270 OA
HETATM   30  H   UNL     1      -2.615 -14.526 -37.138  1.00  0.00     0.169 HD
BRANCH  28  31
HETATM   31  C   UNL     1      -1.255 -13.062 -38.459  1.00  0.00     0.213 C 
HETATM   32  O   UNL     1      -1.231 -13.369 -39.872  1.00  0.00    -0.376 OA
HETATM   33  C   UNL     1      -0.999 -14.775 -40.002  1.00  0.00     0.168 C 
HETATM   34  C   UNL     1      -0.129 -15.140 -38.827  1.00  0.00     0.029 C 
HETATM   35  C   UNL     1      -0.677 -14.265 -37.723  1.00  0.00     0.044 C 
ENDBRANCH  28  31
ENDBRANCH   7  27
BRANCH   3  36
HETATM   36  C   UNL     1      -8.643 -13.387 -39.759  1.00  0.00     0.056 C 
HETATM   37  C   UNL     1     -10.073 -13.933 -39.452  1.00  0.00     0.012 C 
HETATM   38  C   UNL     1     -10.623 -12.770 -40.296  1.00  0.00     0.002 C 
HETATM   39  C   UNL     1      -9.341 -12.005 -39.917  1.00  0.00     0.012 C 
ENDBRANCH   3  36
TORSDOF 7
ENDMDL
MODEL 10
REMARK VINA RESULT:      -8.7     17.638     19.052
REMARK  7 active torsions:
REMARK  status: ('A' for Active; 'I' for Inactive)
REMARK    1  A    between atoms: C_3  and  C_4 
REMARK    2  A    between atoms: C_11  and  N_12 
REMARK       I    between atoms: N_12  and  C_13 
REMARK    3  A    between atoms: C_13  and  C_14 
REMARK    4  A    between atoms: C_21  and  C_22 
REMARK       I    between atoms: C_22  and  N_23 
REMARK    5  A    between atoms: N_23  and  C_24 
REMARK    6  A    between atoms: C_24  and  C_25 
REMARK    7  A    between atoms: C_25  and  C_26 
ROOT
HETATM    1  C   UNL     1      -5.630 -14.133 -39.774  1.00  0.00     0.158 C 
HETATM    2  N   UNL     1      -6.276 -13.796 -38.529  1.00  0.00    -0.335 N 
HETATM    3  C   UNL     1      -7.637 -13.607 -38.412  1.00  0.00     0.111 A 
HETATM    4  N   UNL     1      -8.010 -13.618 -37.152  1.00  0.00    -0.233 NA
HETATM    5  C   UNL     1      -6.857 -13.771 -36.434  1.00  0.00     0.089 A 
HETATM    6  C   UNL     1      -5.728 -13.811 -37.261  1.00  0.00     0.091 A 
HETATM    7  C   UNL     1      -4.434 -13.939 -36.721  1.00  0.00     0.065 A 
HETATM    8  C   UNL     1      -4.346 -14.128 -35.330  1.00  0.00     0.049 A 
HETATM    9  C   UNL     1      -5.467 -14.089 -34.493  1.00  0.00     0.036 A 
HETATM   10  C   UNL     1      -6.736 -13.901 -35.041  1.00  0.00     0.051 A 
ENDROOT
BRANCH   9  11
HETATM   11  C   UNL     1      -5.249 -14.265 -33.030  1.00  0.00     0.251 C 
HETATM   12  N   UNL     1      -4.296 -15.182 -32.636  1.00  0.00    -0.357 N 
HETATM   13  H   UNL     1      -3.882 -15.808 -33.313  1.00  0.00     0.162 HD
HETATM   14  O   UNL     1      -5.931 -13.627 -32.235  1.00  0.00    -0.268 OA
BRANCH  12  15
HETATM   15  C   UNL     1      -4.063 -15.452 -31.227  1.00  0.00     0.127 C 
BRANCH  15  16
HETATM   16  C   UNL     1      -3.061 -16.590 -31.010  1.00  0.00     0.060 C 
BRANCH  16  17
HETATM   17  C   UNL     1      -1.838 -16.138 -30.278  1.00  0.00    -0.029 A 
HETATM   18  C   UNL     1      -1.356 -16.666 -29.037  1.00  0.00    -0.002 A 
HETATM   19  C   UNL     1      -0.193 -15.971 -28.709  1.00  0.00     0.042 A 
HETATM   20  C   UNL     1      -1.808 -17.674 -28.162  1.00  0.00     0.014 A 
HETATM   21  C   UNL     1       0.546 -16.236 -27.549  1.00  0.00     0.030 A 
HETATM   22  N   UNL     1       0.024 -15.053 -29.710  1.00  0.00    -0.365 N 
HETATM   23  C   UNL     1       0.079 -17.243 -26.700  1.00  0.00     0.002 A 
HETATM   24  C   UNL     1      -1.082 -17.953 -26.998  1.00  0.00     0.001 A 
HETATM   25  H   UNL     1       0.801 -14.408 -29.734  1.00  0.00     0.165 HD
HETATM   26  C   UNL     1      -0.960 -15.143 -30.659  1.00  0.00     0.096 A 
ENDBRANCH  16  17
ENDBRANCH  15  16
ENDBRANCH  12  15
ENDBRANCH   9  11
BRANCH   7  27
HETATM   27  N   UNL     1      -3.213 -13.909 -37.415  1.00  0.00    -0.323 N 
HETATM   28  C   UNL     1      -2.637 -12.793 -38.003  1.00  0.00     0.251 C 
HETATM   29  O   UNL     1      -3.163 -11.695 -38.152  1.00  0.00    -0.270 OA
HETATM   30  H   UNL     1      -2.507 -14.589 -37.131  1.00  0.00     0.169 HD
BRANCH  28  31
HETATM   31  C   UNL     1      -1.203 -13.100 -38.480  1.00  0.00     0.213 C 
HETATM   32  O   UNL     1      -1.210 -13.361 -39.902  1.00  0.00    -0.376 OA
HETATM   33  C   UNL     1      -0.975 -14.761 -40.084  1.00  0.00     0.168 C 
HETATM   34  C   UNL     1      -0.078 -15.160 -38.941  1.00  0.00     0.029 C 
HETATM   35  C   UNL     1      -0.604 -14.324 -37.797  1.00  0.00     0.044 C 
ENDBRANCH  28  31
ENDBRANCH   7  27
BRANCH   3  36
HETATM   36  C   UNL     1      -8.619 -13.480 -39.572  1.00  0.00     0.056 C 
HETATM   37  C   UNL     1     -10.102 -13.366 -39.100  1.00  0.00     0.012 C 
HETATM   38  C   UNL     1     -10.317 -12.360 -40.244  1.00  0.00     0.002 C 
HETATM   39  C   UNL     1      -8.815 -12.038 -40.124  1.00  0.00     0.012 C 
ENDBRANCH   3  36
TORSDOF 7
ENDMDL
