MODEL 1
REMARK VINA RESULT:      -7.6      0.000      0.000
REMARK  2 active torsions:
REMARK  status: ('A' for Active; 'I' for Inactive)
REMARK    1  A    between atoms: C_6  and  C_7 
REMARK    2  A    between atoms: C_7  and  N_8 
ROOT
HETATM    1  N   UNL     1      -4.845   2.506 -32.672  1.00  0.00    -0.203 NA
HETATM    2  S   UNL     1      -3.981   2.666 -31.217  1.00  0.00     0.219 S 
HETATM    3  O   UNL     1      -2.873   1.747 -31.231  1.00  0.00    -0.211 OA
HETATM    4  O   UNL     1      -4.933   2.750 -30.130  1.00  0.00    -0.211 OA
HETATM    5  C   UNL     1      -3.416   4.338 -31.488  1.00  0.00     0.164 C 
HETATM    6  C   UNL     1      -3.770   4.655 -32.932  1.00  0.00     0.116 C 
HETATM    7  O   UNL     1      -2.562   4.327 -33.655  1.00  0.00    -0.369 OA
HETATM    8  C   UNL     1      -1.507   4.890 -32.843  1.00  0.00     0.149 C 
HETATM    9  C   UNL     1      -1.511   6.412 -33.099  1.00  0.00     0.264 C 
HETATM   10  N   UNL     1      -2.862   7.000 -32.721  1.00  0.00    -0.070 N 
HETATM   11  H   UNL     1      -2.900   7.156 -31.704  1.00  0.00     0.277 HD
HETATM   12  H   UNL     1      -2.938   7.940 -33.140  1.00  0.00     0.277 HD
HETATM   13  C   UNL     1      -4.037   6.155 -33.181  1.00  0.00     0.273 C 
HETATM   14  C   UNL     1      -4.968   3.802 -33.369  1.00  0.00     0.148 C 
HETATM   15  C   UNL     1      -1.907   4.530 -31.411  1.00  0.00     0.058 C 
ENDROOT
BRANCH   1  16
HETATM   16  C   UNL     1      -6.122   1.751 -32.598  1.00  0.00     0.145 C 
BRANCH  16  17
HETATM   17  C   UNL     1      -6.120   0.427 -33.317  1.00  0.00    -0.043 A 
HETATM   18  C   UNL     1      -5.157  -0.546 -33.017  1.00  0.00     0.032 A 
HETATM   19  C   UNL     1      -5.131  -1.749 -33.723  1.00  0.00     0.034 A 
HETATM   20  C   UNL     1      -6.061  -1.999 -34.729  1.00  0.00     0.024 A 
HETATM   21 CL   UNL     1      -3.931  -2.926 -33.356  1.00  0.00    -0.084 Cl
HETATM   22  C   UNL     1      -7.030  -1.042 -35.027  1.00  0.00     0.002 A 
HETATM   23  C   UNL     1      -7.061   0.163 -34.325  1.00  0.00     0.008 A 
ENDBRANCH  16  17
ENDBRANCH   1  16
TORSDOF 2
ENDMDL
MODEL 2
REMARK VINA RESULT:      -7.6      2.344      3.071
REMARK  2 active torsions:
REMARK  status: ('A' for Active; 'I' for Inactive)
REMARK    1  A    between atoms: C_6  and  C_7 
REMARK    2  A    between atoms: C_7  and  N_8 
ROOT
HETATM    1  N   UNL     1      -6.582   1.207 -32.705  1.00  0.00    -0.203 NA
HETATM    2  S   UNL     1      -7.173   1.879 -31.260  1.00  0.00     0.219 S 
HETATM    3  O   UNL     1      -6.270   1.544 -30.189  1.00  0.00    -0.211 OA
HETATM    4  O   UNL     1      -8.600   1.647 -31.201  1.00  0.00    -0.211 OA
HETATM    5  C   UNL     1      -6.986   3.591 -31.730  1.00  0.00     0.164 C 
HETATM    6  C   UNL     1      -6.192   3.570 -33.026  1.00  0.00     0.116 C 
HETATM    7  O   UNL     1      -4.824   3.735 -32.586  1.00  0.00    -0.369 OA
HETATM    8  C   UNL     1      -4.901   4.784 -31.595  1.00  0.00     0.149 C 
HETATM    9  C   UNL     1      -5.047   6.115 -32.364  1.00  0.00     0.264 C 
HETATM   10  N   UNL     1      -6.301   6.084 -33.224  1.00  0.00    -0.070 N 
HETATM   11  H   UNL     1      -7.123   6.310 -32.646  1.00  0.00     0.277 HD
HETATM   12  H   UNL     1      -6.241   6.846 -33.916  1.00  0.00     0.277 HD
HETATM   13  C   UNL     1      -6.501   4.766 -33.952  1.00  0.00     0.273 C 
HETATM   14  C   UNL     1      -6.421   2.238 -33.750  1.00  0.00     0.148 C 
HETATM   15  C   UNL     1      -6.146   4.433 -30.778  1.00  0.00     0.058 C 
ENDROOT
BRANCH   1  16
HETATM   16  C   UNL     1      -7.266  -0.021 -33.186  1.00  0.00     0.145 C 
BRANCH  16  17
HETATM   17  C   UNL     1      -6.347  -1.132 -33.621  1.00  0.00    -0.043 A 
HETATM   18  C   UNL     1      -6.841  -2.218 -34.356  1.00  0.00     0.032 A 
HETATM   19  C   UNL     1      -5.993  -3.268 -34.711  1.00  0.00     0.034 A 
HETATM   20  C   UNL     1      -4.650  -3.249 -34.344  1.00  0.00     0.024 A 
HETATM   21 CL   UNL     1      -6.619  -4.604 -35.597  1.00  0.00    -0.084 Cl
HETATM   22  C   UNL     1      -4.147  -2.168 -33.622  1.00  0.00     0.002 A 
HETATM   23  C   UNL     1      -4.990  -1.114 -33.264  1.00  0.00     0.008 A 
ENDBRANCH  16  17
ENDBRANCH   1  16
TORSDOF 2
ENDMDL
MODEL 3
REMARK VINA RESULT:      -7.5      4.035      5.064
REMARK  2 active torsions:
REMARK  status: ('A' for Active; 'I' for Inactive)
REMARK    1  A    between atoms: C_6  and  C_7 
REMARK    2  A    between atoms: C_7  and  N_8 
ROOT
HETATM    1  N   UNL     1      -6.590   0.585 -32.962  1.00  0.00    -0.203 NA
HETATM    2  S   UNL     1      -7.161   1.812 -33.991  1.00  0.00     0.219 S 
HETATM    3  O   UNL     1      -8.259   1.294 -34.766  1.00  0.00    -0.211 OA
HETATM    4  O   UNL     1      -6.020   2.484 -34.574  1.00  0.00    -0.211 OA
HETATM    5  C   UNL     1      -7.756   2.904 -32.709  1.00  0.00     0.164 C 
HETATM    6  C   UNL     1      -7.680   2.097 -31.423  1.00  0.00     0.116 C 
HETATM    7  O   UNL     1      -9.006   1.533 -31.300  1.00  0.00    -0.369 OA
HETATM    8  C   UNL     1      -9.883   2.635 -31.619  1.00  0.00     0.149 C 
HETATM    9  C   UNL     1      -9.918   3.553 -30.378  1.00  0.00     0.264 C 
HETATM   10  N   UNL     1      -8.516   4.048 -30.058  1.00  0.00    -0.070 N 
HETATM   11  H   UNL     1      -8.284   4.849 -30.662  1.00  0.00     0.277 HD
HETATM   12  H   UNL     1      -8.514   4.426 -29.098  1.00  0.00     0.277 HD
HETATM   13  C   UNL     1      -7.454   2.967 -30.168  1.00  0.00     0.273 C 
HETATM   14  C   UNL     1      -6.593   1.023 -31.552  1.00  0.00     0.148 C 
HETATM   15  C   UNL     1      -9.222   3.300 -32.828  1.00  0.00     0.058 C 
ENDROOT
BRANCH   1  16
HETATM   16  C   UNL     1      -5.328  -0.081 -33.373  1.00  0.00     0.145 C 
BRANCH  16  17
HETATM   17  C   UNL     1      -5.479  -1.511 -33.818  1.00  0.00    -0.043 A 
HETATM   18  C   UNL     1      -4.414  -2.413 -33.693  1.00  0.00     0.032 A 
HETATM   19  C   UNL     1      -4.546  -3.723 -34.156  1.00  0.00     0.034 A 
HETATM   20  C   UNL     1      -5.734  -4.151 -34.742  1.00  0.00     0.024 A 
HETATM   21 CL   UNL     1      -3.222  -4.814 -34.012  1.00  0.00    -0.084 Cl
HETATM   22  C   UNL     1      -6.804  -3.264 -34.862  1.00  0.00     0.002 A 
HETATM   23  C   UNL     1      -6.678  -1.953 -34.402  1.00  0.00     0.008 A 
ENDBRANCH  16  17
ENDBRANCH   1  16
TORSDOF 2
ENDMDL
MODEL 4
REMARK VINA RESULT:      -7.4      3.138      3.771
REMARK  2 active torsions:
REMARK  status: ('A' for Active; 'I' for Inactive)
REMARK    1  A    between atoms: C_6  and  C_7 
REMARK    2  A    between atoms: C_7  and  N_8 
ROOT
HETATM    1  N   UNL     1      -6.497   1.286 -33.071  1.00  0.00    -0.203 NA
HETATM    2  S   UNL     1      -7.506   1.036 -31.726  1.00  0.00     0.219 S 
HETATM    3  O   UNL     1      -6.776   0.295 -30.729  1.00  0.00    -0.211 OA
HETATM    4  O   UNL     1      -8.816   0.650 -32.205  1.00  0.00    -0.211 OA
HETATM    5  C   UNL     1      -7.656   2.750 -31.251  1.00  0.00     0.164 C 
HETATM    6  C   UNL     1      -6.643   3.496 -32.105  1.00  0.00     0.116 C 
HETATM    7  O   UNL     1      -5.471   3.558 -31.260  1.00  0.00    -0.369 OA
HETATM    8  C   UNL     1      -5.996   3.921 -29.964  1.00  0.00     0.149 C 
HETATM    9  C   UNL     1      -6.310   5.432 -30.016  1.00  0.00     0.264 C 
HETATM   10  N   UNL     1      -7.325   5.714 -31.112  1.00  0.00    -0.070 N 
HETATM   11  H   UNL     1      -8.274   5.514 -30.767  1.00  0.00     0.277 HD
HETATM   12  H   UNL     1      -7.319   6.727 -31.310  1.00  0.00     0.277 HD
HETATM   13  C   UNL     1      -7.049   4.956 -32.400  1.00  0.00     0.273 C 
HETATM   14  C   UNL     1      -6.392   2.720 -33.404  1.00  0.00     0.148 C 
HETATM   15  C   UNL     1      -7.252   3.061 -29.816  1.00  0.00     0.058 C 
ENDROOT
BRANCH   1  16
HETATM   16  C   UNL     1      -6.751   0.422 -34.252  1.00  0.00     0.145 C 
BRANCH  16  17
HETATM   17  C   UNL     1      -6.010  -0.889 -34.252  1.00  0.00    -0.043 A 
HETATM   18  C   UNL     1      -6.570  -2.024 -34.854  1.00  0.00     0.032 A 
HETATM   19  C   UNL     1      -5.899  -3.247 -34.805  1.00  0.00     0.034 A 
HETATM   20  C   UNL     1      -4.669  -3.355 -34.162  1.00  0.00     0.024 A 
HETATM   21 CL   UNL     1      -6.608  -4.636 -35.533  1.00  0.00    -0.084 Cl
HETATM   22  C   UNL     1      -4.099  -2.229 -33.570  1.00  0.00     0.002 A 
HETATM   23  C   UNL     1      -4.764  -1.003 -33.615  1.00  0.00     0.008 A 
ENDBRANCH  16  17
ENDBRANCH   1  16
TORSDOF 2
ENDMDL
MODEL 5
REMARK VINA RESULT:      -7.2      4.585      5.133
REMARK  2 active torsions:
REMARK  status: ('A' for Active; 'I' for Inactive)
REMARK    1  A    between atoms: C_6  and  C_7 
REMARK    2  A    between atoms: C_7  and  N_8 
ROOT
HETATM    1  N   UNL     1      -8.006   1.247 -33.625  1.00  0.00    -0.203 NA
HETATM    2  S   UNL     1      -8.793   0.788 -32.190  1.00  0.00     0.219 S 
HETATM    3  O   UNL     1      -7.801   0.538 -31.176  1.00  0.00    -0.211 OA
HETATM    4  O   UNL     1      -9.843  -0.149 -32.527  1.00  0.00    -0.211 OA
HETATM    5  C   UNL     1      -9.618   2.344 -31.893  1.00  0.00     0.164 C 
HETATM    6  C   UNL     1      -9.017   3.317 -32.894  1.00  0.00     0.116 C 
HETATM    7  O   UNL     1      -7.952   3.952 -32.150  1.00  0.00    -0.369 OA
HETATM    8  C   UNL     1      -8.548   4.237 -30.865  1.00  0.00     0.149 C 
HETATM    9  C   UNL     1      -9.452   5.475 -31.056  1.00  0.00     0.264 C 
HETATM   10  N   UNL     1     -10.520   5.183 -32.099  1.00  0.00    -0.070 N 
HETATM   11  H   UNL     1     -11.296   4.664 -31.665  1.00  0.00     0.277 HD
HETATM   12  H   UNL     1     -10.931   6.077 -32.405  1.00  0.00     0.277 HD
HETATM   13  C   UNL     1      -9.990   4.440 -33.314  1.00  0.00     0.273 C 
HETATM   14  C   UNL     1      -8.502   2.547 -34.117  1.00  0.00     0.148 C 
HETATM   15  C   UNL     1      -9.341   2.972 -30.533  1.00  0.00     0.058 C 
ENDROOT
BRANCH   1  16
HETATM   16  C   UNL     1      -7.914   0.210 -34.683  1.00  0.00     0.145 C 
BRANCH  16  17
HETATM   17  C   UNL     1      -6.792  -0.780 -34.508  1.00  0.00    -0.043 A 
HETATM   18  C   UNL     1      -6.957  -2.118 -34.890  1.00  0.00     0.032 A 
HETATM   19  C   UNL     1      -5.931  -3.040 -34.677  1.00  0.00     0.034 A 
HETATM   20  C   UNL     1      -4.733  -2.642 -34.088  1.00  0.00     0.024 A 
HETATM   21 CL   UNL     1      -6.155  -4.684 -35.134  1.00  0.00    -0.084 Cl
HETATM   22  C   UNL     1      -4.555  -1.311 -33.714  1.00  0.00     0.002 A 
HETATM   23  C   UNL     1      -5.578  -0.385 -33.924  1.00  0.00     0.008 A 
ENDBRANCH  16  17
ENDBRANCH   1  16
TORSDOF 2
ENDMDL
MODEL 6
REMARK VINA RESULT:      -7.0      3.130      6.543
REMARK  2 active torsions:
REMARK  status: ('A' for Active; 'I' for Inactive)
REMARK    1  A    between atoms: C_6  and  C_7 
REMARK    2  A    between atoms: C_7  and  N_8 
ROOT
HETATM    1  N   UNL     1      -4.521   2.032 -32.598  1.00  0.00    -0.203 NA
HETATM    2  S   UNL     1      -6.002   1.244 -32.326  1.00  0.00     0.219 S 
HETATM    3  O   UNL     1      -6.798   1.324 -33.523  1.00  0.00    -0.211 OA
HETATM    4  O   UNL     1      -6.488   1.629 -31.018  1.00  0.00    -0.211 OA
HETATM    5  C   UNL     1      -5.334  -0.400 -32.122  1.00  0.00     0.164 C 
HETATM    6  C   UNL     1      -3.874  -0.295 -32.532  1.00  0.00     0.116 C 
HETATM    7  O   UNL     1      -3.887  -0.676 -33.927  1.00  0.00    -0.369 OA
HETATM    8  C   UNL     1      -4.751  -1.833 -33.964  1.00  0.00     0.149 C 
HETATM    9  C   UNL     1      -3.930  -3.021 -33.420  1.00  0.00     0.264 C 
HETATM   10  N   UNL     1      -3.471  -2.730 -31.999  1.00  0.00    -0.070 N 
HETATM   11  H   UNL     1      -4.234  -2.935 -31.339  1.00  0.00     0.277 HD
HETATM   12  H   UNL     1      -2.720  -3.393 -31.756  1.00  0.00     0.277 HD
HETATM   13  C   UNL     1      -2.962  -1.311 -31.809  1.00  0.00     0.273 C 
HETATM   14  C   UNL     1      -3.379   1.140 -32.317  1.00  0.00     0.148 C 
HETATM   15  C   UNL     1      -5.920  -1.454 -33.052  1.00  0.00     0.058 C 
ENDROOT
BRANCH   1  16
HETATM   16  C   UNL     1      -4.377   3.384 -32.001  1.00  0.00     0.145 C 
BRANCH  16  17
HETATM   17  C   UNL     1      -3.239   4.204 -32.550  1.00  0.00    -0.043 A 
HETATM   18  C   UNL     1      -2.111   4.474 -31.763  1.00  0.00     0.032 A 
HETATM   19  C   UNL     1      -1.085   5.277 -32.261  1.00  0.00     0.034 A 
HETATM   20  C   UNL     1      -1.166   5.816 -33.543  1.00  0.00     0.024 A 
HETATM   21 CL   UNL     1       0.286   5.616 -31.276  1.00  0.00    -0.084 Cl
HETATM   22  C   UNL     1      -2.279   5.545 -34.337  1.00  0.00     0.002 A 
HETATM   23  C   UNL     1      -3.309   4.743 -33.844  1.00  0.00     0.008 A 
ENDBRANCH  16  17
ENDBRANCH   1  16
TORSDOF 2
ENDMDL
MODEL 7
REMARK VINA RESULT:      -7.0      4.926      6.538
REMARK  2 active torsions:
REMARK  status: ('A' for Active; 'I' for Inactive)
REMARK    1  A    between atoms: C_6  and  C_7 
REMARK    2  A    between atoms: C_7  and  N_8 
ROOT
HETATM    1  N   UNL     1      -9.133   1.427 -32.703  1.00  0.00    -0.203 NA
HETATM    2  S   UNL     1      -9.239   2.966 -31.989  1.00  0.00     0.219 S 
HETATM    3  O   UNL     1      -8.240   3.820 -32.577  1.00  0.00    -0.211 OA
HETATM    4  O   UNL     1      -9.400   2.795 -30.561  1.00  0.00    -0.211 OA
HETATM    5  C   UNL     1     -10.862   3.376 -32.608  1.00  0.00     0.164 C 
HETATM    6  C   UNL     1     -11.194   2.291 -33.620  1.00  0.00     0.116 C 
HETATM    7  O   UNL     1     -10.773   2.864 -34.879  1.00  0.00    -0.369 OA
HETATM    8  C   UNL     1     -11.262   4.223 -34.824  1.00  0.00     0.149 C 
HETATM    9  C   UNL     1     -12.779   4.164 -35.105  1.00  0.00     0.264 C 
HETATM   10  N   UNL     1     -13.468   3.295 -34.064  1.00  0.00    -0.070 N 
HETATM   11  H   UNL     1     -13.632   3.843 -33.208  1.00  0.00     0.277 HD
HETATM   12  H   UNL     1     -14.407   3.051 -34.412  1.00  0.00     0.277 HD
HETATM   13  C   UNL     1     -12.709   2.017 -33.747  1.00  0.00     0.273 C 
HETATM   14  C   UNL     1     -10.429   1.009 -33.271  1.00  0.00     0.148 C 
HETATM   15  C   UNL     1     -10.942   4.676 -33.398  1.00  0.00     0.058 C 
ENDROOT
BRANCH   1  16
HETATM   16  C   UNL     1      -8.475   0.371 -31.891  1.00  0.00     0.145 C 
BRANCH  16  17
HETATM   17  C   UNL     1      -7.290  -0.289 -32.547  1.00  0.00    -0.043 A 
HETATM   18  C   UNL     1      -6.076  -0.420 -31.858  1.00  0.00     0.032 A 
HETATM   19  C   UNL     1      -4.969  -0.987 -32.490  1.00  0.00     0.034 A 
HETATM   20  C   UNL     1      -5.056  -1.430 -33.808  1.00  0.00     0.024 A 
HETATM   21 CL   UNL     1      -3.480  -1.124 -31.638  1.00  0.00    -0.084 Cl
HETATM   22  C   UNL     1      -6.261  -1.314 -34.498  1.00  0.00     0.002 A 
HETATM   23  C   UNL     1      -7.373  -0.748 -33.871  1.00  0.00     0.008 A 
ENDBRANCH  16  17
ENDBRANCH   1  16
TORSDOF 2
ENDMDL
MODEL 8
REMARK VINA RESULT:      -7.0      3.526      6.539
REMARK  2 active torsions:
REMARK  status: ('A' for Active; 'I' for Inactive)
REMARK    1  A    between atoms: C_6  and  C_7 
REMARK    2  A    between atoms: C_7  and  N_8 
ROOT
HETATM    1  N   UNL     1      -4.765   3.047 -32.086  1.00  0.00    -0.203 NA
HETATM    2  S   UNL     1      -5.762   4.188 -31.315  1.00  0.00     0.219 S 
HETATM    3  O   UNL     1      -6.046   5.256 -32.239  1.00  0.00    -0.211 OA
HETATM    4  O   UNL     1      -5.256   4.404 -29.977  1.00  0.00    -0.211 OA
HETATM    5  C   UNL     1      -7.187   3.129 -31.122  1.00  0.00     0.164 C 
HETATM    6  C   UNL     1      -6.878   1.884 -31.939  1.00  0.00     0.116 C 
HETATM    7  O   UNL     1      -7.490   2.160 -33.219  1.00  0.00    -0.369 OA
HETATM    8  C   UNL     1      -8.779   2.714 -32.877  1.00  0.00     0.149 C 
HETATM    9  C   UNL     1      -9.676   1.530 -32.455  1.00  0.00     0.264 C 
HETATM   10  N   UNL     1      -9.060   0.808 -31.267  1.00  0.00    -0.070 N 
HETATM   11  H   UNL     1      -9.290   1.311 -30.398  1.00  0.00     0.277 HD
HETATM   12  H   UNL     1      -9.515  -0.113 -31.172  1.00  0.00     0.277 HD
HETATM   13  C   UNL     1      -7.559   0.610 -31.393  1.00  0.00     0.273 C 
HETATM   14  C   UNL     1      -5.359   1.697 -32.040  1.00  0.00     0.148 C 
HETATM   15  C   UNL     1      -8.479   3.669 -31.720  1.00  0.00     0.058 C 
ENDROOT
BRANCH   1  16
HETATM   16  C   UNL     1      -3.328   3.075 -31.713  1.00  0.00     0.145 C 
BRANCH  16  17
HETATM   17  C   UNL     1      -2.518   4.154 -32.382  1.00  0.00    -0.043 A 
HETATM   18  C   UNL     1      -1.561   4.879 -31.658  1.00  0.00     0.032 A 
HETATM   19  C   UNL     1      -0.852   5.912 -32.272  1.00  0.00     0.034 A 
HETATM   20  C   UNL     1      -1.080   6.232 -33.607  1.00  0.00     0.024 A 
HETATM   21 CL   UNL     1       0.306   6.806 -31.364  1.00  0.00    -0.084 Cl
HETATM   22  C   UNL     1      -2.021   5.509 -34.339  1.00  0.00     0.002 A 
HETATM   23  C   UNL     1      -2.735   4.475 -33.731  1.00  0.00     0.008 A 
ENDBRANCH  16  17
ENDBRANCH   1  16
TORSDOF 2
ENDMDL
MODEL 9
REMARK VINA RESULT:      -6.9      4.522      5.878
REMARK  2 active torsions:
REMARK  status: ('A' for Active; 'I' for Inactive)
REMARK    1  A    between atoms: C_6  and  C_7 
REMARK    2  A    between atoms: C_7  and  N_8 
ROOT
HETATM    1  N   UNL     1      -8.333   1.126 -33.153  1.00  0.00    -0.203 NA
HETATM    2  S   UNL     1      -7.805   2.709 -32.830  1.00  0.00     0.219 S 
HETATM    3  O   UNL     1      -6.922   3.129 -33.887  1.00  0.00    -0.211 OA
HETATM    4  O   UNL     1      -7.467   2.798 -31.426  1.00  0.00    -0.211 OA
HETATM    5  C   UNL     1      -9.398   3.501 -32.989  1.00  0.00     0.164 C 
HETATM    6  C   UNL     1     -10.322   2.436 -33.557  1.00  0.00     0.116 C 
HETATM    7  O   UNL     1     -10.271   2.672 -34.983  1.00  0.00    -0.369 OA
HETATM    8  C   UNL     1     -10.372   4.108 -35.103  1.00  0.00     0.149 C 
HETATM    9  C   UNL     1     -11.855   4.472 -34.873  1.00  0.00     0.264 C 
HETATM   10  N   UNL     1     -12.297   4.008 -33.493  1.00  0.00    -0.070 N 
HETATM   11  H   UNL     1     -12.002   4.695 -32.785  1.00  0.00     0.277 HD
HETATM   12  H   UNL     1     -13.327   4.014 -33.461  1.00  0.00     0.277 HD
HETATM   13  C   UNL     1     -11.797   2.619 -33.135  1.00  0.00     0.273 C 
HETATM   14  C   UNL     1      -9.807   1.045 -33.171  1.00  0.00     0.148 C 
HETATM   15  C   UNL     1      -9.455   4.639 -33.999  1.00  0.00     0.058 C 
ENDROOT
BRANCH   1  16
HETATM   16  C   UNL     1      -7.690   0.045 -32.362  1.00  0.00     0.145 C 
BRANCH  16  17
HETATM   17  C   UNL     1      -6.703  -0.799 -33.124  1.00  0.00    -0.043 A 
HETATM   18  C   UNL     1      -7.135  -1.912 -33.858  1.00  0.00     0.032 A 
HETATM   19  C   UNL     1      -6.208  -2.719 -34.519  1.00  0.00     0.034 A 
HETATM   20  C   UNL     1      -4.847  -2.428 -34.460  1.00  0.00     0.024 A 
HETATM   21 CL   UNL     1      -6.751  -4.093 -35.401  1.00  0.00    -0.084 Cl
HETATM   22  C   UNL     1      -4.409  -1.317 -33.742  1.00  0.00     0.002 A 
HETATM   23  C   UNL     1      -5.331  -0.507 -33.078  1.00  0.00     0.008 A 
ENDBRANCH  16  17
ENDBRANCH   1  16
TORSDOF 2
ENDMDL
MODEL 10
REMARK VINA RESULT:      -6.9     16.767     17.814
REMARK  2 active torsions:
REMARK  status: ('A' for Active; 'I' for Inactive)
REMARK    1  A    between atoms: C_6  and  C_7 
REMARK    2  A    between atoms: C_7  and  N_8 
ROOT
HETATM    1  N   UNL     1      -4.084 -13.450 -39.599  1.00  0.00    -0.203 NA
HETATM    2  S   UNL     1      -3.285 -12.720 -38.289  1.00  0.00     0.219 S 
HETATM    3  O   UNL     1      -3.759 -13.315 -37.066  1.00  0.00    -0.211 OA
HETATM    4  O   UNL     1      -3.248 -11.292 -38.517  1.00  0.00    -0.211 OA
HETATM    5  C   UNL     1      -1.647 -13.310 -38.683  1.00  0.00     0.164 C 
HETATM    6  C   UNL     1      -1.841 -14.327 -39.796  1.00  0.00     0.116 C 
HETATM    7  O   UNL     1      -1.923 -15.587 -39.091  1.00  0.00    -0.369 OA
HETATM    8  C   UNL     1      -0.858 -15.511 -38.118  1.00  0.00     0.149 C 
HETATM    9  C   UNL     1       0.461 -15.770 -38.878  1.00  0.00     0.264 C 
HETATM   10  N   UNL     1       0.645 -14.727 -39.969  1.00  0.00    -0.070 N 
HETATM   11  H   UNL     1       1.031 -13.863 -39.563  1.00  0.00     0.277 HD
HETATM   12  H   UNL     1       1.368 -15.063 -40.623  1.00  0.00     0.277 HD
HETATM   13  C   UNL     1      -0.628 -14.434 -40.745  1.00  0.00     0.273 C 
HETATM   14  C   UNL     1      -3.123 -14.003 -40.573  1.00  0.00     0.148 C 
HETATM   15  C   UNL     1      -0.955 -14.086 -37.570  1.00  0.00     0.058 C 
ENDROOT
BRANCH   1  16
HETATM   16  C   UNL     1      -5.174 -12.660 -40.227  1.00  0.00     0.145 C 
BRANCH  16  17
HETATM   17  C   UNL     1      -6.557 -12.968 -39.718  1.00  0.00    -0.043 A 
HETATM   18  C   UNL     1      -7.677 -12.325 -40.264  1.00  0.00     0.032 A 
HETATM   19  C   UNL     1      -8.950 -12.578 -39.752  1.00  0.00     0.034 A 
HETATM   20  C   UNL     1      -9.125 -13.473 -38.699  1.00  0.00     0.024 A 
HETATM   21 CL   UNL     1     -10.313 -11.767 -40.419  1.00  0.00    -0.084 Cl
HETATM   22  C   UNL     1      -8.019 -14.126 -38.157  1.00  0.00     0.002 A 
HETATM   23  C   UNL     1      -6.743 -13.877 -38.664  1.00  0.00     0.008 A 
ENDBRANCH  16  17
ENDBRANCH   1  16
TORSDOF 2
ENDMDL
