MODEL 1
REMARK VINA RESULT:      -7.7      0.000      0.000
REMARK  5 active torsions:
REMARK  status: ('A' for Active; 'I' for Inactive)
REMARK    1  A    between atoms: C_2  and  C_3 
REMARK    2  A    between atoms: C_3  and  N_4 
REMARK       I    between atoms: N_4  and  C_5 
REMARK    3  A    between atoms: C_5  and  C_6 
REMARK    4  A    between atoms: C_7  and  O_8 
REMARK    5  A    between atoms: O_8  and  C_9 
ROOT
HETATM    1  C   UNL     1      -2.694   5.437 -32.737  1.00  0.00     0.121 C 
HETATM    2  C   UNL     1      -1.659   4.888 -31.810  1.00  0.00     0.091 C 
HETATM    3  N   UNL     1      -0.882   4.440 -31.071  1.00  0.00    -0.195 NA
HETATM    4  C   UNL     1      -2.628   6.975 -32.633  1.00  0.00     0.055 C 
ENDROOT
BRANCH   1   5
HETATM    5  C   UNL     1      -2.413   4.944 -34.202  1.00  0.00     0.020 C 
HETATM    6  C   UNL     1      -1.102   5.503 -34.780  1.00  0.00     0.013 C 
HETATM    7  C   UNL     1      -3.558   5.235 -35.187  1.00  0.00     0.013 C 
ENDBRANCH   1   5
BRANCH   1   8
HETATM    8  N   UNL     1      -4.017   4.965 -32.265  1.00  0.00    -0.335 N 
HETATM    9  C   UNL     1      -4.358   3.647 -32.068  1.00  0.00     0.257 C 
HETATM   10  O   UNL     1      -3.581   2.724 -32.289  1.00  0.00    -0.267 OA
HETATM   11  H   UNL     1      -4.706   5.680 -32.055  1.00  0.00     0.164 HD
BRANCH   9  12
HETATM   12  C   UNL     1      -5.716   3.339 -31.533  1.00  0.00     0.085 A 
HETATM   13  C   UNL     1      -6.719   2.656 -32.220  1.00  0.00     0.185 A 
HETATM   14  N   UNL     1      -7.958   2.431 -31.705  1.00  0.00    -0.236 NA
HETATM   15  C   UNL     1      -8.203   2.868 -30.453  1.00  0.00     0.119 A 
HETATM   16  C   UNL     1      -7.270   3.531 -29.681  1.00  0.00     0.020 A 
HETATM   17  C   UNL     1      -6.012   3.769 -30.232  1.00  0.00     0.023 A 
BRANCH  13  18
HETATM   18  O   UNL     1      -6.459   2.223 -33.516  1.00  0.00    -0.291 OA
BRANCH  18  19
HETATM   19  C   UNL     1      -6.492   0.872 -33.768  1.00  0.00     0.078 A 
HETATM   20  C   UNL     1      -7.327   0.437 -34.799  1.00  0.00     0.039 A 
HETATM   21  C   UNL     1      -7.362  -0.916 -35.140  1.00  0.00     0.026 A 
HETATM   22  C   UNL     1      -6.550  -1.824 -34.459  1.00  0.00     0.034 A 
HETATM   23 CL   UNL     1      -6.598  -3.492 -34.875  1.00  0.00    -0.084 Cl
HETATM   24  C   UNL     1      -5.695  -1.387 -33.447  1.00  0.00     0.026 A 
HETATM   25  C   UNL     1      -5.655  -0.033 -33.108  1.00  0.00     0.039 A 
ENDBRANCH  18  19
ENDBRANCH  13  18
ENDBRANCH   9  12
ENDBRANCH   1   8
TORSDOF 5
ENDMDL
MODEL 2
REMARK VINA RESULT:      -7.6      2.125      3.094
REMARK  5 active torsions:
REMARK  status: ('A' for Active; 'I' for Inactive)
REMARK    1  A    between atoms: C_2  and  C_3 
REMARK    2  A    between atoms: C_3  and  N_4 
REMARK       I    between atoms: N_4  and  C_5 
REMARK    3  A    between atoms: C_5  and  C_6 
REMARK    4  A    between atoms: C_7  and  O_8 
REMARK    5  A    between atoms: O_8  and  C_9 
ROOT
HETATM    1  C   UNL     1      -4.191   4.161 -32.826  1.00  0.00     0.121 C 
HETATM    2  C   UNL     1      -4.005   4.878 -34.123  1.00  0.00     0.091 C 
HETATM    3  N   UNL     1      -3.894   5.423 -35.143  1.00  0.00    -0.195 NA
HETATM    4  C   UNL     1      -2.945   3.275 -32.613  1.00  0.00     0.055 C 
ENDROOT
BRANCH   1   5
HETATM    5  C   UNL     1      -4.369   5.199 -31.661  1.00  0.00     0.020 C 
HETATM    6  C   UNL     1      -5.462   6.241 -31.952  1.00  0.00     0.013 C 
HETATM    7  C   UNL     1      -3.072   5.930 -31.276  1.00  0.00     0.013 C 
ENDBRANCH   1   5
BRANCH   1   8
HETATM    8  N   UNL     1      -5.392   3.301 -32.956  1.00  0.00    -0.335 N 
HETATM    9  C   UNL     1      -5.815   2.392 -32.015  1.00  0.00     0.257 C 
HETATM   10  O   UNL     1      -5.208   2.197 -30.966  1.00  0.00    -0.267 OA
HETATM   11  H   UNL     1      -5.945   3.419 -33.799  1.00  0.00     0.164 HD
BRANCH   9  12
HETATM   12  C   UNL     1      -7.079   1.643 -32.272  1.00  0.00     0.085 A 
HETATM   13  C   UNL     1      -7.261   0.684 -33.268  1.00  0.00     0.185 A 
HETATM   14  N   UNL     1      -8.446   0.052 -33.491  1.00  0.00    -0.236 NA
HETATM   15  C   UNL     1      -9.477   0.354 -32.676  1.00  0.00     0.119 A 
HETATM   16  C   UNL     1      -9.391   1.270 -31.645  1.00  0.00     0.020 A 
HETATM   17  C   UNL     1      -8.176   1.920 -31.444  1.00  0.00     0.023 A 
BRANCH  13  18
HETATM   18  O   UNL     1      -6.194   0.392 -34.111  1.00  0.00    -0.291 OA
BRANCH  18  19
HETATM   19  C   UNL     1      -5.549  -0.810 -33.948  1.00  0.00     0.078 A 
HETATM   20  C   UNL     1      -5.919  -1.852 -34.801  1.00  0.00     0.039 A 
HETATM   21  C   UNL     1      -5.261  -3.081 -34.722  1.00  0.00     0.026 A 
HETATM   22  C   UNL     1      -4.227  -3.256 -33.802  1.00  0.00     0.034 A 
HETATM   23 CL   UNL     1      -3.421  -4.772 -33.700  1.00  0.00    -0.084 Cl
HETATM   24  C   UNL     1      -3.837  -2.208 -32.968  1.00  0.00     0.026 A 
HETATM   25  C   UNL     1      -4.491  -0.976 -33.049  1.00  0.00     0.039 A 
ENDBRANCH  18  19
ENDBRANCH  13  18
ENDBRANCH   9  12
ENDBRANCH   1   8
TORSDOF 5
ENDMDL
MODEL 3
REMARK VINA RESULT:      -7.6      1.393      2.228
REMARK  5 active torsions:
REMARK  status: ('A' for Active; 'I' for Inactive)
REMARK    1  A    between atoms: C_2  and  C_3 
REMARK    2  A    between atoms: C_3  and  N_4 
REMARK       I    between atoms: N_4  and  C_5 
REMARK    3  A    between atoms: C_5  and  C_6 
REMARK    4  A    between atoms: C_7  and  O_8 
REMARK    5  A    between atoms: O_8  and  C_9 
ROOT
HETATM    1  C   UNL     1      -1.817   5.718 -32.076  1.00  0.00     0.121 C 
HETATM    2  C   UNL     1      -1.823   7.172 -32.420  1.00  0.00     0.091 C 
HETATM    3  N   UNL     1      -1.865   8.304 -32.676  1.00  0.00    -0.195 NA
HETATM    4  C   UNL     1      -1.330   4.957 -33.328  1.00  0.00     0.055 C 
ENDROOT
BRANCH   1   5
HETATM    5  C   UNL     1      -0.877   5.464 -30.843  1.00  0.00     0.020 C 
HETATM    6  C   UNL     1      -1.133   6.445 -29.686  1.00  0.00     0.013 C 
HETATM    7  C   UNL     1       0.621   5.479 -31.189  1.00  0.00     0.013 C 
ENDBRANCH   1   5
BRANCH   1   8
HETATM    8  N   UNL     1      -3.212   5.322 -31.768  1.00  0.00    -0.335 N 
HETATM    9  C   UNL     1      -3.615   4.050 -31.439  1.00  0.00     0.257 C 
HETATM   10  O   UNL     1      -2.835   3.103 -31.387  1.00  0.00    -0.267 OA
HETATM   11  H   UNL     1      -3.907   6.061 -31.786  1.00  0.00     0.164 HD
BRANCH   9  12
HETATM   12  C   UNL     1      -5.050   3.826 -31.101  1.00  0.00     0.085 A 
HETATM   13  C   UNL     1      -5.973   3.153 -31.900  1.00  0.00     0.185 A 
HETATM   14  N   UNL     1      -7.285   3.007 -31.568  1.00  0.00    -0.236 NA
HETATM   15  C   UNL     1      -7.689   3.514 -30.386  1.00  0.00     0.119 A 
HETATM   16  C   UNL     1      -6.848   4.174 -29.511  1.00  0.00     0.020 A 
HETATM   17  C   UNL     1      -5.513   4.331 -29.877  1.00  0.00     0.023 A 
BRANCH  13  18
HETATM   18  O   UNL     1      -5.547   2.648 -33.124  1.00  0.00    -0.291 OA
BRANCH  18  19
HETATM   19  C   UNL     1      -5.843   1.340 -33.424  1.00  0.00     0.078 A 
HETATM   20  C   UNL     1      -6.652   1.110 -34.539  1.00  0.00     0.039 A 
HETATM   21  C   UNL     1      -6.944  -0.199 -34.929  1.00  0.00     0.026 A 
HETATM   22  C   UNL     1      -6.412  -1.270 -34.210  1.00  0.00     0.034 A 
HETATM   23 CL   UNL     1      -6.776  -2.882 -34.687  1.00  0.00    -0.084 Cl
HETATM   24  C   UNL     1      -5.582  -1.043 -33.113  1.00  0.00     0.026 A 
HETATM   25  C   UNL     1      -5.286   0.266 -32.724  1.00  0.00     0.039 A 
ENDBRANCH  18  19
ENDBRANCH  13  18
ENDBRANCH   9  12
ENDBRANCH   1   8
TORSDOF 5
ENDMDL
MODEL 4
REMARK VINA RESULT:      -7.5      2.141      3.038
REMARK  5 active torsions:
REMARK  status: ('A' for Active; 'I' for Inactive)
REMARK    1  A    between atoms: C_2  and  C_3 
REMARK    2  A    between atoms: C_3  and  N_4 
REMARK       I    between atoms: N_4  and  C_5 
REMARK    3  A    between atoms: C_5  and  C_6 
REMARK    4  A    between atoms: C_7  and  O_8 
REMARK    5  A    between atoms: O_8  and  C_9 
ROOT
HETATM    1  C   UNL     1      -4.149   2.910 -31.847  1.00  0.00     0.121 C 
HETATM    2  C   UNL     1      -3.432   1.693 -31.359  1.00  0.00     0.091 C 
HETATM    3  N   UNL     1      -2.900   0.725 -30.997  1.00  0.00    -0.195 NA
HETATM    4  C   UNL     1      -4.472   3.774 -30.610  1.00  0.00     0.055 C 
ENDROOT
BRANCH   1   5
HETATM    5  C   UNL     1      -3.248   3.684 -32.875  1.00  0.00     0.020 C 
HETATM    6  C   UNL     1      -2.123   4.484 -32.198  1.00  0.00     0.013 C 
HETATM    7  C   UNL     1      -4.033   4.619 -33.810  1.00  0.00     0.013 C 
ENDBRANCH   1   5
BRANCH   1   8
HETATM    8  N   UNL     1      -5.412   2.462 -32.482  1.00  0.00    -0.335 N 
HETATM    9  C   UNL     1      -6.407   1.760 -31.845  1.00  0.00     0.257 C 
HETATM   10  O   UNL     1      -6.325   1.419 -30.669  1.00  0.00    -0.267 OA
HETATM   11  H   UNL     1      -5.546   2.719 -33.455  1.00  0.00     0.164 HD
BRANCH   9  12
HETATM   12  C   UNL     1      -7.644   1.433 -32.610  1.00  0.00     0.085 A 
HETATM   13  C   UNL     1      -7.681   0.840 -33.872  1.00  0.00     0.185 A 
HETATM   14  N   UNL     1      -8.835   0.594 -34.550  1.00  0.00    -0.236 NA
HETATM   15  C   UNL     1      -9.996   0.914 -33.943  1.00  0.00     0.119 A 
HETATM   16  C   UNL     1     -10.068   1.481 -32.686  1.00  0.00     0.020 A 
HETATM   17  C   UNL     1      -8.875   1.742 -32.014  1.00  0.00     0.023 A 
BRANCH  13  18
HETATM   18  O   UNL     1      -6.476   0.528 -34.493  1.00  0.00    -0.291 OA
BRANCH  18  19
HETATM   19  C   UNL     1      -5.964  -0.736 -34.319  1.00  0.00     0.078 A 
HETATM   20  C   UNL     1      -6.678  -1.795 -34.882  1.00  0.00     0.039 A 
HETATM   21  C   UNL     1      -6.181  -3.096 -34.786  1.00  0.00     0.026 A 
HETATM   22  C   UNL     1      -4.965  -3.328 -34.142  1.00  0.00     0.034 A 
HETATM   23 CL   UNL     1      -4.356  -4.932 -34.020  1.00  0.00    -0.084 Cl
HETATM   24  C   UNL     1      -4.237  -2.267 -33.603  1.00  0.00     0.026 A 
HETATM   25  C   UNL     1      -4.731  -0.965 -33.701  1.00  0.00     0.039 A 
ENDBRANCH  18  19
ENDBRANCH  13  18
ENDBRANCH   9  12
ENDBRANCH   1   8
TORSDOF 5
ENDMDL
MODEL 5
REMARK VINA RESULT:      -7.5      2.352      3.102
REMARK  5 active torsions:
REMARK  status: ('A' for Active; 'I' for Inactive)
REMARK    1  A    between atoms: C_2  and  C_3 
REMARK    2  A    between atoms: C_3  and  N_4 
REMARK       I    between atoms: N_4  and  C_5 
REMARK    3  A    between atoms: C_5  and  C_6 
REMARK    4  A    between atoms: C_7  and  O_8 
REMARK    5  A    between atoms: O_8  and  C_9 
ROOT
HETATM    1  C   UNL     1      -4.551   4.389 -33.481  1.00  0.00     0.121 C 
HETATM    2  C   UNL     1      -4.829   5.602 -32.656  1.00  0.00     0.091 C 
HETATM    3  N   UNL     1      -5.076   6.529 -31.999  1.00  0.00    -0.195 NA
HETATM    4  C   UNL     1      -4.450   4.852 -34.950  1.00  0.00     0.055 C 
ENDROOT
BRANCH   1   5
HETATM    5  C   UNL     1      -3.222   3.706 -32.997  1.00  0.00     0.020 C 
HETATM    6  C   UNL     1      -3.323   3.152 -31.565  1.00  0.00     0.013 C 
HETATM    7  C   UNL     1      -1.984   4.612 -33.096  1.00  0.00     0.013 C 
ENDBRANCH   1   5
BRANCH   1   8
HETATM    8  N   UNL     1      -5.704   3.469 -33.331  1.00  0.00    -0.335 N 
HETATM    9  C   UNL     1      -6.993   3.754 -33.716  1.00  0.00     0.257 C 
HETATM   10  O   UNL     1      -7.311   4.829 -34.215  1.00  0.00    -0.267 OA
HETATM   11  H   UNL     1      -5.508   2.557 -32.930  1.00  0.00     0.164 HD
BRANCH   9  12
HETATM   12  C   UNL     1      -8.032   2.697 -33.547  1.00  0.00     0.085 A 
HETATM   13  C   UNL     1      -7.948   1.395 -34.040  1.00  0.00     0.185 A 
HETATM   14  N   UNL     1      -8.940   0.475 -33.895  1.00  0.00    -0.236 NA
HETATM   15  C   UNL     1     -10.039   0.845 -33.207  1.00  0.00     0.119 A 
HETATM   16  C   UNL     1     -10.208   2.101 -32.658  1.00  0.00     0.020 A 
HETATM   17  C   UNL     1      -9.190   3.036 -32.833  1.00  0.00     0.023 A 
BRANCH  13  18
HETATM   18  O   UNL     1      -6.815   1.030 -34.759  1.00  0.00    -0.291 OA
BRANCH  18  19
HETATM   19  C   UNL     1      -6.114  -0.078 -34.348  1.00  0.00     0.078 A 
HETATM   20  C   UNL     1      -6.358  -1.274 -35.025  1.00  0.00     0.039 A 
HETATM   21  C   UNL     1      -5.636  -2.422 -34.691  1.00  0.00     0.026 A 
HETATM   22  C   UNL     1      -4.665  -2.363 -33.691  1.00  0.00     0.034 A 
HETATM   23 CL   UNL     1      -3.781  -3.778 -33.275  1.00  0.00    -0.084 Cl
HETATM   24  C   UNL     1      -4.401  -1.162 -33.031  1.00  0.00     0.026 A 
HETATM   25  C   UNL     1      -5.119  -0.012 -33.368  1.00  0.00     0.039 A 
ENDBRANCH  18  19
ENDBRANCH  13  18
ENDBRANCH   9  12
ENDBRANCH   1   8
TORSDOF 5
ENDMDL
MODEL 6
REMARK VINA RESULT:      -7.4      2.404      3.329
REMARK  5 active torsions:
REMARK  status: ('A' for Active; 'I' for Inactive)
REMARK    1  A    between atoms: C_2  and  C_3 
REMARK    2  A    between atoms: C_3  and  N_4 
REMARK       I    between atoms: N_4  and  C_5 
REMARK    3  A    between atoms: C_5  and  C_6 
REMARK    4  A    between atoms: C_7  and  O_8 
REMARK    5  A    between atoms: O_8  and  C_9 
ROOT
HETATM    1  C   UNL     1      -2.774   4.518 -32.752  1.00  0.00     0.121 C 
HETATM    2  C   UNL     1      -1.649   4.712 -31.788  1.00  0.00     0.091 C 
HETATM    3  N   UNL     1      -0.768   4.824 -31.039  1.00  0.00    -0.195 NA
HETATM    4  C   UNL     1      -4.020   5.189 -32.136  1.00  0.00     0.055 C 
ENDROOT
BRANCH   1   5
HETATM    5  C   UNL     1      -2.403   5.151 -34.141  1.00  0.00     0.020 C 
HETATM    6  C   UNL     1      -1.827   6.571 -34.015  1.00  0.00     0.013 C 
HETATM    7  C   UNL     1      -3.566   5.171 -35.146  1.00  0.00     0.013 C 
ENDBRANCH   1   5
BRANCH   1   8
HETATM    8  N   UNL     1      -3.010   3.060 -32.881  1.00  0.00    -0.335 N 
HETATM    9  C   UNL     1      -3.555   2.262 -31.903  1.00  0.00     0.257 C 
HETATM   10  O   UNL     1      -3.886   2.697 -30.804  1.00  0.00    -0.267 OA
HETATM   11  H   UNL     1      -2.765   2.638 -33.770  1.00  0.00     0.164 HD
BRANCH   9  12
HETATM   12  C   UNL     1      -3.780   0.820 -32.209  1.00  0.00     0.085 A 
HETATM   13  C   UNL     1      -4.753   0.319 -33.073  1.00  0.00     0.185 A 
HETATM   14  N   UNL     1      -4.947  -1.009 -33.294  1.00  0.00    -0.236 NA
HETATM   15  C   UNL     1      -4.125  -1.873 -32.663  1.00  0.00     0.119 A 
HETATM   16  C   UNL     1      -3.114  -1.477 -31.808  1.00  0.00     0.020 A 
HETATM   17  C   UNL     1      -2.943  -0.113 -31.581  1.00  0.00     0.023 A 
BRANCH  13  18
HETATM   18  O   UNL     1      -5.604   1.219 -33.706  1.00  0.00    -0.291 OA
BRANCH  18  19
HETATM   19  C   UNL     1      -6.959   1.046 -33.558  1.00  0.00     0.078 A 
HETATM   20  C   UNL     1      -7.713   0.889 -34.723  1.00  0.00     0.039 A 
HETATM   21  C   UNL     1      -9.086   0.654 -34.635  1.00  0.00     0.026 A 
HETATM   22  C   UNL     1      -9.695   0.562 -33.384  1.00  0.00     0.034 A 
HETATM   23 CL   UNL     1     -11.389   0.279 -33.277  1.00  0.00    -0.084 Cl
HETATM   24  C   UNL     1      -8.940   0.692 -32.218  1.00  0.00     0.026 A 
HETATM   25  C   UNL     1      -7.565   0.923 -32.304  1.00  0.00     0.039 A 
ENDBRANCH  18  19
ENDBRANCH  13  18
ENDBRANCH   9  12
ENDBRANCH   1   8
TORSDOF 5
ENDMDL
MODEL 7
REMARK VINA RESULT:      -7.3      2.110      3.142
REMARK  5 active torsions:
REMARK  status: ('A' for Active; 'I' for Inactive)
REMARK    1  A    between atoms: C_2  and  C_3 
REMARK    2  A    between atoms: C_3  and  N_4 
REMARK       I    between atoms: N_4  and  C_5 
REMARK    3  A    between atoms: C_5  and  C_6 
REMARK    4  A    between atoms: C_7  and  O_8 
REMARK    5  A    between atoms: O_8  and  C_9 
ROOT
HETATM    1  C   UNL     1      -1.882   6.158 -31.953  1.00  0.00     0.121 C 
HETATM    2  C   UNL     1      -2.170   7.618 -32.084  1.00  0.00     0.091 C 
HETATM    3  N   UNL     1      -2.432   8.747 -32.174  1.00  0.00    -0.195 NA
HETATM    4  C   UNL     1      -1.286   5.691 -33.298  1.00  0.00     0.055 C 
ENDROOT
BRANCH   1   5
HETATM    5  C   UNL     1      -0.886   5.915 -30.763  1.00  0.00     0.020 C 
HETATM    6  C   UNL     1      -1.269   6.696 -29.495  1.00  0.00     0.013 C 
HETATM    7  C   UNL     1       0.582   6.212 -31.109  1.00  0.00     0.013 C 
ENDBRANCH   1   5
BRANCH   1   8
HETATM    8  N   UNL     1      -3.170   5.465 -31.715  1.00  0.00    -0.335 N 
HETATM    9  C   UNL     1      -3.301   4.133 -31.400  1.00  0.00     0.257 C 
HETATM   10  O   UNL     1      -2.336   3.380 -31.303  1.00  0.00    -0.267 OA
HETATM   11  H   UNL     1      -4.009   6.033 -31.773  1.00  0.00     0.164 HD
BRANCH   9  12
HETATM   12  C   UNL     1      -4.667   3.598 -31.135  1.00  0.00     0.085 A 
HETATM   13  C   UNL     1      -5.271   2.546 -31.823  1.00  0.00     0.185 A 
HETATM   14  N   UNL     1      -6.537   2.116 -31.572  1.00  0.00    -0.236 NA
HETATM   15  C   UNL     1      -7.218   2.727 -30.581  1.00  0.00     0.119 A 
HETATM   16  C   UNL     1      -6.701   3.760 -29.824  1.00  0.00     0.020 A 
HETATM   17  C   UNL     1      -5.410   4.199 -30.108  1.00  0.00     0.023 A 
BRANCH  13  18
HETATM   18  O   UNL     1      -4.564   1.934 -32.853  1.00  0.00    -0.291 OA
BRANCH  18  19
HETATM   19  C   UNL     1      -4.209   0.615 -32.702  1.00  0.00     0.078 A 
HETATM   20  C   UNL     1      -3.227   0.324 -31.754  1.00  0.00     0.039 A 
HETATM   21  C   UNL     1      -2.862  -1.003 -31.515  1.00  0.00     0.026 A 
HETATM   22  C   UNL     1      -3.494  -2.031 -32.215  1.00  0.00     0.034 A 
HETATM   23 CL   UNL     1      -3.041  -3.665 -31.925  1.00  0.00    -0.084 Cl
HETATM   24  C   UNL     1      -4.495  -1.744 -33.143  1.00  0.00     0.026 A 
HETATM   25  C   UNL     1      -4.863  -0.418 -33.380  1.00  0.00     0.039 A 
ENDBRANCH  18  19
ENDBRANCH  13  18
ENDBRANCH   9  12
ENDBRANCH   1   8
TORSDOF 5
ENDMDL
MODEL 8
REMARK VINA RESULT:      -7.3      2.884      4.624
REMARK  5 active torsions:
REMARK  status: ('A' for Active; 'I' for Inactive)
REMARK    1  A    between atoms: C_2  and  C_3 
REMARK    2  A    between atoms: C_3  and  N_4 
REMARK       I    between atoms: N_4  and  C_5 
REMARK    3  A    between atoms: C_5  and  C_6 
REMARK    4  A    between atoms: C_7  and  O_8 
REMARK    5  A    between atoms: O_8  and  C_9 
ROOT
HETATM    1  C   UNL     1      -5.032   3.438 -31.712  1.00  0.00     0.121 C 
HETATM    2  C   UNL     1      -3.545   3.580 -31.736  1.00  0.00     0.091 C 
HETATM    3  N   UNL     1      -2.387   3.660 -31.780  1.00  0.00    -0.195 NA
HETATM    4  C   UNL     1      -5.452   3.302 -30.233  1.00  0.00     0.055 C 
ENDROOT
BRANCH   1   5
HETATM    5  C   UNL     1      -5.699   4.687 -32.390  1.00  0.00     0.020 C 
HETATM    6  C   UNL     1      -7.189   4.835 -32.037  1.00  0.00     0.013 C 
HETATM    7  C   UNL     1      -5.543   4.722 -33.919  1.00  0.00     0.013 C 
ENDBRANCH   1   5
BRANCH   1   8
HETATM    8  N   UNL     1      -5.377   2.193 -32.440  1.00  0.00    -0.335 N 
HETATM    9  C   UNL     1      -4.974   0.930 -32.074  1.00  0.00     0.257 C 
HETATM   10  O   UNL     1      -4.262   0.722 -31.097  1.00  0.00    -0.267 OA
HETATM   11  H   UNL     1      -5.972   2.295 -33.256  1.00  0.00     0.164 HD
BRANCH   9  12
HETATM   12  C   UNL     1      -5.454  -0.227 -32.882  1.00  0.00     0.085 A 
HETATM   13  C   UNL     1      -6.782  -0.639 -32.997  1.00  0.00     0.185 A 
HETATM   14  N   UNL     1      -7.169  -1.727 -33.717  1.00  0.00    -0.236 NA
HETATM   15  C   UNL     1      -6.212  -2.412 -34.375  1.00  0.00     0.119 A 
HETATM   16  C   UNL     1      -4.874  -2.072 -34.346  1.00  0.00     0.020 A 
HETATM   17  C   UNL     1      -4.494  -0.965 -33.589  1.00  0.00     0.023 A 
BRANCH  13  18
HETATM   18  O   UNL     1      -7.757   0.068 -32.302  1.00  0.00    -0.291 OA
BRANCH  18  19
HETATM   19  C   UNL     1      -8.780   0.640 -33.020  1.00  0.00     0.078 A 
HETATM   20  C   UNL     1     -10.051   0.082 -32.872  1.00  0.00     0.039 A 
HETATM   21  C   UNL     1     -11.141   0.652 -33.532  1.00  0.00     0.026 A 
HETATM   22  C   UNL     1     -10.956   1.786 -34.323  1.00  0.00     0.034 A 
HETATM   23 CL   UNL     1     -12.299   2.485 -35.141  1.00  0.00    -0.084 Cl
HETATM   24  C   UNL     1      -9.692   2.362 -34.450  1.00  0.00     0.026 A 
HETATM   25  C   UNL     1      -8.601   1.795 -33.787  1.00  0.00     0.039 A 
ENDBRANCH  18  19
ENDBRANCH  13  18
ENDBRANCH   9  12
ENDBRANCH   1   8
TORSDOF 5
ENDMDL
MODEL 9
REMARK VINA RESULT:      -7.2      2.054      2.557
REMARK  5 active torsions:
REMARK  status: ('A' for Active; 'I' for Inactive)
REMARK    1  A    between atoms: C_2  and  C_3 
REMARK    2  A    between atoms: C_3  and  N_4 
REMARK       I    between atoms: N_4  and  C_5 
REMARK    3  A    between atoms: C_5  and  C_6 
REMARK    4  A    between atoms: C_7  and  O_8 
REMARK    5  A    between atoms: O_8  and  C_9 
ROOT
HETATM    1  C   UNL     1      -1.560   5.688 -31.465  1.00  0.00     0.121 C 
HETATM    2  C   UNL     1      -0.426   5.058 -30.725  1.00  0.00     0.091 C 
HETATM    3  N   UNL     1       0.432   4.541 -30.135  1.00  0.00    -0.195 NA
HETATM    4  C   UNL     1      -1.576   7.184 -31.084  1.00  0.00     0.055 C 
ENDROOT
BRANCH   1   5
HETATM    5  C   UNL     1      -1.368   5.487 -33.011  1.00  0.00     0.020 C 
HETATM    6  C   UNL     1      -1.654   6.763 -33.819  1.00  0.00     0.013 C 
HETATM    7  C   UNL     1      -2.195   4.330 -33.595  1.00  0.00     0.013 C 
ENDBRANCH   1   5
BRANCH   1   8
HETATM    8  N   UNL     1      -2.813   5.046 -31.000  1.00  0.00    -0.335 N 
HETATM    9  C   UNL     1      -4.070   5.587 -31.130  1.00  0.00     0.257 C 
HETATM   10  O   UNL     1      -4.266   6.685 -31.641  1.00  0.00    -0.267 OA
HETATM   11  H   UNL     1      -2.721   4.130 -30.573  1.00  0.00     0.164 HD
BRANCH   9  12
HETATM   12  C   UNL     1      -5.238   4.787 -30.660  1.00  0.00     0.085 A 
HETATM   13  C   UNL     1      -5.624   3.547 -31.166  1.00  0.00     0.185 A 
HETATM   14  N   UNL     1      -6.722   2.870 -30.731  1.00  0.00    -0.236 NA
HETATM   15  C   UNL     1      -7.442   3.424 -29.735  1.00  0.00     0.119 A 
HETATM   16  C   UNL     1      -7.129   4.635 -29.149  1.00  0.00     0.020 A 
HETATM   17  C   UNL     1      -6.012   5.323 -29.621  1.00  0.00     0.023 A 
BRANCH  13  18
HETATM   18  O   UNL     1      -4.881   2.993 -32.202  1.00  0.00    -0.291 OA
BRANCH  18  19
HETATM   19  C   UNL     1      -4.464   1.689 -32.077  1.00  0.00     0.078 A 
HETATM   20  C   UNL     1      -5.079   0.743 -32.899  1.00  0.00     0.039 A 
HETATM   21  C   UNL     1      -4.661  -0.589 -32.859  1.00  0.00     0.026 A 
HETATM   22  C   UNL     1      -3.620  -0.963 -32.008  1.00  0.00     0.034 A 
HETATM   23 CL   UNL     1      -3.110  -2.605 -31.954  1.00  0.00    -0.084 Cl
HETATM   24  C   UNL     1      -2.987  -0.014 -31.206  1.00  0.00     0.026 A 
HETATM   25  C   UNL     1      -3.401   1.319 -31.248  1.00  0.00     0.039 A 
ENDBRANCH  18  19
ENDBRANCH  13  18
ENDBRANCH   9  12
ENDBRANCH   1   8
TORSDOF 5
ENDMDL
MODEL 10
REMARK VINA RESULT:      -7.2     16.455     17.671
REMARK  5 active torsions:
REMARK  status: ('A' for Active; 'I' for Inactive)
REMARK    1  A    between atoms: C_2  and  C_3 
REMARK    2  A    between atoms: C_3  and  N_4 
REMARK       I    between atoms: N_4  and  C_5 
REMARK    3  A    between atoms: C_5  and  C_6 
REMARK    4  A    between atoms: C_7  and  O_8 
REMARK    5  A    between atoms: O_8  and  C_9 
ROOT
HETATM    1  C   UNL     1      -2.819 -14.606 -39.668  1.00  0.00     0.121 C 
HETATM    2  C   UNL     1      -3.576 -13.975 -40.791  1.00  0.00     0.091 C 
HETATM    3  N   UNL     1      -4.193 -13.474 -41.639  1.00  0.00    -0.195 NA
HETATM    4  C   UNL     1      -2.558 -16.075 -40.065  1.00  0.00     0.055 C 
ENDROOT
BRANCH   1   5
HETATM    5  C   UNL     1      -1.478 -13.826 -39.423  1.00  0.00     0.020 C 
HETATM    6  C   UNL     1      -0.530 -13.872 -40.633  1.00  0.00     0.013 C 
HETATM    7  C   UNL     1      -0.712 -14.282 -38.171  1.00  0.00     0.013 C 
ENDBRANCH   1   5
BRANCH   1   8
HETATM    8  N   UNL     1      -3.683 -14.566 -38.464  1.00  0.00    -0.335 N 
HETATM    9  C   UNL     1      -4.070 -13.419 -37.812  1.00  0.00     0.257 C 
HETATM   10  O   UNL     1      -3.709 -12.302 -38.170  1.00  0.00    -0.267 OA
HETATM   11  H   UNL     1      -4.023 -15.457 -38.119  1.00  0.00     0.164 HD
BRANCH   9  12
HETATM   12  C   UNL     1      -4.990 -13.544 -36.645  1.00  0.00     0.085 A 
HETATM   13  C   UNL     1      -6.261 -14.116 -36.675  1.00  0.00     0.185 A 
HETATM   14  N   UNL     1      -7.082 -14.174 -35.592  1.00  0.00    -0.236 NA
HETATM   15  C   UNL     1      -6.614 -13.679 -34.428  1.00  0.00     0.119 A 
HETATM   16  C   UNL     1      -5.361 -13.115 -34.287  1.00  0.00     0.020 A 
HETATM   17  C   UNL     1      -4.542 -13.048 -35.412  1.00  0.00     0.023 A 
BRANCH  13  18
HETATM   18  O   UNL     1      -6.737 -14.610 -37.885  1.00  0.00    -0.291 OA
BRANCH  18  19
HETATM   19  C   UNL     1      -7.629 -13.842 -38.595  1.00  0.00     0.078 A 
HETATM   20  C   UNL     1      -8.985 -14.026 -38.321  1.00  0.00     0.039 A 
HETATM   21  C   UNL     1      -9.938 -13.236 -38.969  1.00  0.00     0.026 A 
HETATM   22  C   UNL     1      -9.527 -12.258 -39.874  1.00  0.00     0.034 A 
HETATM   23 CL   UNL     1     -10.700 -11.290 -40.677  1.00  0.00    -0.084 Cl
HETATM   24  C   UNL     1      -8.170 -12.054 -40.128  1.00  0.00     0.026 A 
HETATM   25  C   UNL     1      -7.216 -12.840 -39.478  1.00  0.00     0.039 A 
ENDBRANCH  18  19
ENDBRANCH  13  18
ENDBRANCH   9  12
ENDBRANCH   1   8
TORSDOF 5
ENDMDL
