MODEL 1
REMARK VINA RESULT:     -10.0      0.000      0.000
REMARK  6 active torsions:
REMARK  status: ('A' for Active; 'I' for Inactive)
REMARK    1  A    between atoms: C_4  and  C_5 
REMARK    2  A    between atoms: C_5  and  N_6 
REMARK    3  A    between atoms: C_14  and  C_15 
REMARK    4  A    between atoms: C_18  and  O_19 
REMARK    5  A    between atoms: O_19  and  C_20 
REMARK    6  A    between atoms: C_20  and  C_21 
ROOT
HETATM    1  N   UNL     1     -12.310   7.255 -35.645  1.00  0.00    -0.063 N 
HETATM    2  H   UNL     1     -11.496   7.004 -36.218  1.00  0.00     0.280 HD
HETATM    3  C   UNL     1     -11.856   7.056 -34.206  1.00  0.00     0.282 C 
HETATM    4  C   UNL     1     -11.602   5.610 -33.949  1.00  0.00     0.018 A 
HETATM    5  C   UNL     1     -12.068   4.570 -34.734  1.00  0.00    -0.023 A 
HETATM    6  C   UNL     1     -11.679   3.302 -34.194  1.00  0.00     0.073 A 
HETATM    7  C   UNL     1     -10.979   3.441 -33.020  1.00  0.00     0.088 A 
HETATM    8  N   UNL     1     -10.542   2.400 -32.286  1.00  0.00    -0.358 N 
HETATM    9  C   UNL     1     -10.519   1.072 -32.859  1.00  0.00     0.219 C 
HETATM   10  N   UNL     1     -11.462   0.942 -33.942  1.00  0.00    -0.332 N 
HETATM   11  C   UNL     1     -11.947   1.970 -34.699  1.00  0.00     0.256 C 
HETATM   12  O   UNL     1     -12.572   1.770 -35.735  1.00  0.00    -0.267 OA
HETATM   13  S   UNL     1     -10.738   5.068 -32.589  1.00  0.00    -0.074 SA
HETATM   14  C   UNL     1     -12.865   4.823 -35.980  1.00  0.00     0.068 C 
HETATM   15  C   UNL     1     -13.408   6.266 -36.020  1.00  0.00     0.240 C 
HETATM   16  H   UNL     1      -9.862   2.560 -31.550  1.00  0.00     0.162 HD
HETATM   17  H   UNL     1     -11.604   0.021 -34.331  1.00  0.00     0.165 HD
ENDROOT
BRANCH   9  18
HETATM   18  C   UNL     1      -9.100   0.689 -33.237  1.00  0.00    -0.016 A 
HETATM   19  C   UNL     1      -8.189   0.345 -32.221  1.00  0.00     0.014 A 
HETATM   20  C   UNL     1      -6.871  -0.017 -32.522  1.00  0.00     0.037 A 
HETATM   21  C   UNL     1      -6.439  -0.049 -33.846  1.00  0.00     0.069 A 
HETATM   22  C   UNL     1      -7.325   0.325 -34.858  1.00  0.00     0.037 A 
HETATM   23  C   UNL     1      -8.639   0.693 -34.561  1.00  0.00     0.014 A 
BRANCH  21  24
HETATM   24  O   UNL     1      -5.195  -0.413 -34.277  1.00  0.00    -0.347 OA
BRANCH  24  25
HETATM   25  C   UNL     1      -4.389  -1.163 -33.368  1.00  0.00     0.214 C 
BRANCH  25  26
HETATM   26  C   UNL     1      -4.513  -2.626 -33.714  1.00  0.00    -0.034 A 
HETATM   27  C   UNL     1      -3.623  -3.563 -33.169  1.00  0.00     0.009 A 
HETATM   28  C   UNL     1      -3.738  -4.916 -33.491  1.00  0.00     0.001 A 
HETATM   29  C   UNL     1      -4.738  -5.346 -34.362  1.00  0.00     0.000 A 
HETATM   30  C   UNL     1      -5.621  -4.421 -34.916  1.00  0.00     0.001 A 
HETATM   31  C   UNL     1      -5.508  -3.068 -34.597  1.00  0.00     0.009 A 
ENDBRANCH  25  26
ENDBRANCH  24  25
ENDBRANCH  21  24
ENDBRANCH   9  18
BRANCH   1  32
HETATM   32  C   UNL     1     -12.618   8.691 -35.987  1.00  0.00     0.273 C 
BRANCH  32  33
HETATM   33  C   UNL     1     -12.152   9.158 -37.340  1.00  0.00    -0.033 A 
HETATM   34  C   UNL     1     -10.822   9.569 -37.530  1.00  0.00     0.009 A 
HETATM   35  C   UNL     1     -10.394  10.035 -38.773  1.00  0.00     0.001 A 
HETATM   36  C   UNL     1     -11.286  10.092 -39.841  1.00  0.00     0.000 A 
HETATM   37  C   UNL     1     -12.603   9.675 -39.672  1.00  0.00     0.001 A 
HETATM   38  C   UNL     1     -13.036   9.207 -38.430  1.00  0.00     0.009 A 
ENDBRANCH  32  33
ENDBRANCH   1  32
TORSDOF 6
ENDMDL
MODEL 2
REMARK VINA RESULT:      -9.7      7.220     11.213
REMARK  6 active torsions:
REMARK  status: ('A' for Active; 'I' for Inactive)
REMARK    1  A    between atoms: C_4  and  C_5 
REMARK    2  A    between atoms: C_5  and  N_6 
REMARK    3  A    between atoms: C_14  and  C_15 
REMARK    4  A    between atoms: C_18  and  O_19 
REMARK    5  A    between atoms: O_19  and  C_20 
REMARK    6  A    between atoms: C_20  and  C_21 
ROOT
HETATM    1  N   UNL     1      -6.806  -0.125 -33.907  1.00  0.00    -0.063 N 
HETATM    2  H   UNL     1      -5.865  -0.282 -33.529  1.00  0.00     0.280 HD
HETATM    3  C   UNL     1      -6.706   1.181 -34.682  1.00  0.00     0.282 C 
HETATM    4  C   UNL     1      -6.446   2.310 -33.745  1.00  0.00     0.018 A 
HETATM    5  C   UNL     1      -6.650   2.269 -32.377  1.00  0.00    -0.023 A 
HETATM    6  C   UNL     1      -6.338   3.529 -31.771  1.00  0.00     0.073 A 
HETATM    7  C   UNL     1      -5.953   4.462 -32.704  1.00  0.00     0.088 A 
HETATM    8  N   UNL     1      -5.653   5.739 -32.400  1.00  0.00    -0.358 N 
HETATM    9  C   UNL     1      -5.420   6.117 -31.024  1.00  0.00     0.219 C 
HETATM   10  N   UNL     1      -6.063   5.211 -30.105  1.00  0.00    -0.332 N 
HETATM   11  C   UNL     1      -6.404   3.916 -30.376  1.00  0.00     0.256 C 
HETATM   12  O   UNL     1      -6.745   3.140 -29.491  1.00  0.00    -0.267 OA
HETATM   13  S   UNL     1      -5.911   3.832 -34.283  1.00  0.00    -0.074 SA
HETATM   14  C   UNL     1      -7.133   1.025 -31.692  1.00  0.00     0.068 C 
HETATM   15  C   UNL     1      -7.725   0.019 -32.699  1.00  0.00     0.240 C 
HETATM   16  H   UNL     1      -5.182   6.317 -33.089  1.00  0.00     0.162 HD
HETATM   17  H   UNL     1      -6.057   5.455 -29.125  1.00  0.00     0.165 HD
ENDROOT
BRANCH   9  18
HETATM   18  C   UNL     1      -3.934   6.289 -30.771  1.00  0.00    -0.016 A 
HETATM   19  C   UNL     1      -3.470   7.485 -30.193  1.00  0.00     0.014 A 
HETATM   20  C   UNL     1      -2.109   7.688 -29.939  1.00  0.00     0.037 A 
HETATM   21  C   UNL     1      -1.184   6.694 -30.254  1.00  0.00     0.069 A 
HETATM   22  C   UNL     1      -1.629   5.519 -30.862  1.00  0.00     0.037 A 
HETATM   23  C   UNL     1      -2.987   5.316 -31.122  1.00  0.00     0.014 A 
BRANCH  21  24
HETATM   24  O   UNL     1       0.163   6.751 -30.032  1.00  0.00    -0.347 OA
BRANCH  24  25
HETATM   25  C   UNL     1       0.635   6.245 -28.784  1.00  0.00     0.214 C 
BRANCH  25  26
HETATM   26  C   UNL     1       0.608   7.364 -27.773  1.00  0.00    -0.034 A 
HETATM   27  C   UNL     1      -0.320   7.350 -26.722  1.00  0.00     0.009 A 
HETATM   28  C   UNL     1      -0.345   8.387 -25.787  1.00  0.00     0.001 A 
HETATM   29  C   UNL     1       0.553   9.448 -25.896  1.00  0.00     0.000 A 
HETATM   30  C   UNL     1       1.473   9.476 -26.943  1.00  0.00     0.001 A 
HETATM   31  C   UNL     1       1.499   8.441 -27.878  1.00  0.00     0.009 A 
ENDBRANCH  25  26
ENDBRANCH  24  25
ENDBRANCH  21  24
ENDBRANCH   9  18
BRANCH   1  32
HETATM   32  C   UNL     1      -7.098  -1.322 -34.776  1.00  0.00     0.273 C 
BRANCH  32  33
HETATM   33  C   UNL     1      -6.178  -2.499 -34.602  1.00  0.00    -0.033 A 
HETATM   34  C   UNL     1      -6.597  -3.789 -34.970  1.00  0.00     0.009 A 
HETATM   35  C   UNL     1      -5.760  -4.889 -34.779  1.00  0.00     0.001 A 
HETATM   36  C   UNL     1      -4.495  -4.715 -34.224  1.00  0.00     0.000 A 
HETATM   37  C   UNL     1      -4.060  -3.441 -33.868  1.00  0.00     0.001 A 
HETATM   38  C   UNL     1      -4.894  -2.337 -34.058  1.00  0.00     0.009 A 
ENDBRANCH  32  33
ENDBRANCH   1  32
TORSDOF 6
ENDMDL
MODEL 3
REMARK VINA RESULT:      -9.4      9.280     12.517
REMARK  6 active torsions:
REMARK  status: ('A' for Active; 'I' for Inactive)
REMARK    1  A    between atoms: C_4  and  C_5 
REMARK    2  A    between atoms: C_5  and  N_6 
REMARK    3  A    between atoms: C_14  and  C_15 
REMARK    4  A    between atoms: C_18  and  O_19 
REMARK    5  A    between atoms: O_19  and  C_20 
REMARK    6  A    between atoms: C_20  and  C_21 
ROOT
HETATM    1  N   UNL     1      -5.700   1.195 -30.995  1.00  0.00    -0.063 N 
HETATM    2  H   UNL     1      -5.180   1.244 -30.111  1.00  0.00     0.280 HD
HETATM    3  C   UNL     1      -4.697   1.597 -32.065  1.00  0.00     0.282 C 
HETATM    4  C   UNL     1      -4.314   3.027 -31.892  1.00  0.00     0.018 A 
HETATM    5  C   UNL     1      -5.024   3.954 -31.150  1.00  0.00    -0.023 A 
HETATM    6  C   UNL     1      -4.410   5.247 -31.216  1.00  0.00     0.073 A 
HETATM    7  C   UNL     1      -3.299   5.242 -32.025  1.00  0.00     0.088 A 
HETATM    8  N   UNL     1      -2.569   6.342 -32.293  1.00  0.00    -0.358 N 
HETATM    9  C   UNL     1      -2.737   7.533 -31.490  1.00  0.00     0.219 C 
HETATM   10  N   UNL     1      -4.034   7.573 -30.860  1.00  0.00    -0.332 N 
HETATM   11  C   UNL     1      -4.817   6.487 -30.587  1.00  0.00     0.256 C 
HETATM   12  O   UNL     1      -5.800   6.568 -29.860  1.00  0.00    -0.267 OA
HETATM   13  S   UNL     1      -2.956   3.703 -32.660  1.00  0.00    -0.074 SA
HETATM   14  C   UNL     1      -6.266   3.574 -30.399  1.00  0.00     0.068 C 
HETATM   15  C   UNL     1      -6.824   2.219 -30.878  1.00  0.00     0.240 C 
HETATM   16  H   UNL     1      -1.654   6.240 -32.721  1.00  0.00     0.162 HD
HETATM   17  H   UNL     1      -4.292   8.419 -30.372  1.00  0.00     0.165 HD
ENDROOT
BRANCH   9  18
HETATM   18  C   UNL     1      -1.582   7.678 -30.518  1.00  0.00    -0.016 A 
HETATM   19  C   UNL     1      -1.729   8.515 -29.397  1.00  0.00     0.014 A 
HETATM   20  C   UNL     1      -0.692   8.678 -28.472  1.00  0.00     0.037 A 
HETATM   21  C   UNL     1       0.513   8.001 -28.646  1.00  0.00     0.069 A 
HETATM   22  C   UNL     1       0.683   7.196 -29.774  1.00  0.00     0.037 A 
HETATM   23  C   UNL     1      -0.349   7.036 -30.703  1.00  0.00     0.014 A 
BRANCH  21  24
HETATM   24  O   UNL     1       1.590   8.047 -27.807  1.00  0.00    -0.347 OA
BRANCH  24  25
HETATM   25  C   UNL     1       1.358   7.713 -26.438  1.00  0.00     0.214 C 
BRANCH  25  26
HETATM   26  C   UNL     1       1.790   8.878 -25.582  1.00  0.00    -0.034 A 
HETATM   27  C   UNL     1       0.972  10.010 -25.457  1.00  0.00     0.009 A 
HETATM   28  C   UNL     1       1.372  11.087 -24.665  1.00  0.00     0.001 A 
HETATM   29  C   UNL     1       2.594  11.047 -23.996  1.00  0.00     0.000 A 
HETATM   30  C   UNL     1       3.419   9.931 -24.121  1.00  0.00     0.001 A 
HETATM   31  C   UNL     1       3.021   8.853 -24.913  1.00  0.00     0.009 A 
ENDBRANCH  25  26
ENDBRANCH  24  25
ENDBRANCH  21  24
ENDBRANCH   9  18
BRANCH   1  32
HETATM   32  C   UNL     1      -6.167  -0.234 -31.111  1.00  0.00     0.273 C 
BRANCH  32  33
HETATM   33  C   UNL     1      -6.055  -0.852 -32.478  1.00  0.00    -0.033 A 
HETATM   34  C   UNL     1      -7.137  -0.796 -33.374  1.00  0.00     0.009 A 
HETATM   35  C   UNL     1      -7.051  -1.397 -34.629  1.00  0.00     0.001 A 
HETATM   36  C   UNL     1      -5.884  -2.056 -35.008  1.00  0.00     0.000 A 
HETATM   37  C   UNL     1      -4.799  -2.108 -34.137  1.00  0.00     0.001 A 
HETATM   38  C   UNL     1      -4.881  -1.508 -32.880  1.00  0.00     0.009 A 
ENDBRANCH  32  33
ENDBRANCH   1  32
TORSDOF 6
ENDMDL
MODEL 4
REMARK VINA RESULT:      -9.1      6.862     10.906
REMARK  6 active torsions:
REMARK  status: ('A' for Active; 'I' for Inactive)
REMARK    1  A    between atoms: C_4  and  C_5 
REMARK    2  A    between atoms: C_5  and  N_6 
REMARK    3  A    between atoms: C_14  and  C_15 
REMARK    4  A    between atoms: C_18  and  O_19 
REMARK    5  A    between atoms: O_19  and  C_20 
REMARK    6  A    between atoms: C_20  and  C_21 
ROOT
HETATM    1  N   UNL     1      -6.881  -0.274 -34.034  1.00  0.00    -0.063 N 
HETATM    2  H   UNL     1      -6.213  -0.359 -33.259  1.00  0.00     0.280 HD
HETATM    3  C   UNL     1      -6.544   1.051 -34.702  1.00  0.00     0.282 C 
HETATM    4  C   UNL     1      -6.842   2.179 -33.775  1.00  0.00     0.018 A 
HETATM    5  C   UNL     1      -7.652   2.093 -32.656  1.00  0.00    -0.023 A 
HETATM    6  C   UNL     1      -7.762   3.363 -32.002  1.00  0.00     0.073 A 
HETATM    7  C   UNL     1      -7.069   4.342 -32.670  1.00  0.00     0.088 A 
HETATM    8  N   UNL     1      -7.052   5.634 -32.289  1.00  0.00    -0.358 N 
HETATM    9  C   UNL     1      -7.515   6.003 -30.969  1.00  0.00     0.219 C 
HETATM   10  N   UNL     1      -8.431   5.028 -30.433  1.00  0.00    -0.332 N 
HETATM   11  C   UNL     1      -8.498   3.715 -30.804  1.00  0.00     0.256 C 
HETATM   12  O   UNL     1      -9.144   2.895 -30.161  1.00  0.00    -0.267 OA
HETATM   13  S   UNL     1      -6.249   3.750 -34.037  1.00  0.00    -0.074 SA
HETATM   14  C   UNL     1      -8.291   0.800 -32.246  1.00  0.00     0.068 C 
HETATM   15  C   UNL     1      -8.264  -0.232 -33.391  1.00  0.00     0.240 C 
HETATM   16  H   UNL     1      -6.366   6.264 -32.694  1.00  0.00     0.162 HD
HETATM   17  H   UNL     1      -8.899   5.252 -29.567  1.00  0.00     0.165 HD
ENDROOT
BRANCH   9  18
HETATM   18  C   UNL     1      -6.334   6.294 -30.062  1.00  0.00    -0.016 A 
HETATM   19  C   UNL     1      -6.530   6.321 -28.669  1.00  0.00     0.014 A 
HETATM   20  C   UNL     1      -5.470   6.583 -27.793  1.00  0.00     0.037 A 
HETATM   21  C   UNL     1      -4.191   6.817 -28.292  1.00  0.00     0.069 A 
HETATM   22  C   UNL     1      -3.993   6.829 -29.674  1.00  0.00     0.037 A 
HETATM   23  C   UNL     1      -5.050   6.574 -30.552  1.00  0.00     0.014 A 
BRANCH  21  24
HETATM   24  O   UNL     1      -3.069   7.054 -27.550  1.00  0.00    -0.347 OA
BRANCH  24  25
HETATM   25  C   UNL     1      -2.666   8.416 -27.402  1.00  0.00     0.214 C 
BRANCH  25  26
HETATM   26  C   UNL     1      -1.165   8.487 -27.526  1.00  0.00    -0.034 A 
HETATM   27  C   UNL     1      -0.426   9.363 -26.719  1.00  0.00     0.009 A 
HETATM   28  C   UNL     1       0.964   9.429 -26.835  1.00  0.00     0.001 A 
HETATM   29  C   UNL     1       1.627   8.625 -27.761  1.00  0.00     0.000 A 
HETATM   30  C   UNL     1       0.901   7.758 -28.575  1.00  0.00     0.001 A 
HETATM   31  C   UNL     1      -0.488   7.691 -28.461  1.00  0.00     0.009 A 
ENDBRANCH  25  26
ENDBRANCH  24  25
ENDBRANCH  21  24
ENDBRANCH   9  18
BRANCH   1  32
HETATM   32  C   UNL     1      -6.637  -1.474 -34.913  1.00  0.00     0.273 C 
BRANCH  32  33
HETATM   33  C   UNL     1      -5.627  -2.466 -34.405  1.00  0.00    -0.033 A 
HETATM   34  C   UNL     1      -4.604  -2.056 -33.533  1.00  0.00     0.009 A 
HETATM   35  C   UNL     1      -3.645  -2.964 -33.086  1.00  0.00     0.001 A 
HETATM   36  C   UNL     1      -3.698  -4.294 -33.498  1.00  0.00     0.000 A 
HETATM   37  C   UNL     1      -4.713  -4.718 -34.351  1.00  0.00     0.001 A 
HETATM   38  C   UNL     1      -5.675  -3.812 -34.800  1.00  0.00     0.009 A 
ENDBRANCH  32  33
ENDBRANCH   1  32
TORSDOF 6
ENDMDL
MODEL 5
REMARK VINA RESULT:      -9.0      6.158      9.798
REMARK  6 active torsions:
REMARK  status: ('A' for Active; 'I' for Inactive)
REMARK    1  A    between atoms: C_4  and  C_5 
REMARK    2  A    between atoms: C_5  and  N_6 
REMARK    3  A    between atoms: C_14  and  C_15 
REMARK    4  A    between atoms: C_18  and  O_19 
REMARK    5  A    between atoms: O_19  and  C_20 
REMARK    6  A    between atoms: C_20  and  C_21 
ROOT
HETATM    1  N   UNL     1      -3.294   6.803 -31.259  1.00  0.00    -0.063 N 
HETATM    2  H   UNL     1      -4.095   7.153 -31.798  1.00  0.00     0.280 HD
HETATM    3  C   UNL     1      -2.960   5.455 -31.880  1.00  0.00     0.282 C 
HETATM    4  C   UNL     1      -4.072   4.493 -31.635  1.00  0.00     0.018 A 
HETATM    5  C   UNL     1      -5.060   4.649 -30.680  1.00  0.00    -0.023 A 
HETATM    6  C   UNL     1      -5.956   3.532 -30.676  1.00  0.00     0.073 A 
HETATM    7  C   UNL     1      -5.584   2.578 -31.593  1.00  0.00     0.088 A 
HETATM    8  N   UNL     1      -6.232   1.409 -31.755  1.00  0.00    -0.358 N 
HETATM    9  C   UNL     1      -7.547   1.226 -31.182  1.00  0.00     0.219 C 
HETATM   10  N   UNL     1      -7.768   2.111 -30.064  1.00  0.00    -0.332 N 
HETATM   11  C   UNL     1      -7.122   3.294 -29.849  1.00  0.00     0.256 C 
HETATM   12  O   UNL     1      -7.508   4.096 -29.006  1.00  0.00    -0.267 OA
HETATM   13  S   UNL     1      -4.212   3.030 -32.490  1.00  0.00    -0.074 SA
HETATM   14  C   UNL     1      -5.120   5.865 -29.802  1.00  0.00     0.068 C 
HETATM   15  C   UNL     1      -3.789   6.644 -29.826  1.00  0.00     0.240 C 
HETATM   16  H   UNL     1      -6.041   0.843 -32.577  1.00  0.00     0.162 HD
HETATM   17  H   UNL     1      -8.611   1.980 -29.524  1.00  0.00     0.165 HD
ENDROOT
BRANCH   9  18
HETATM   18  C   UNL     1      -8.609   1.329 -32.260  1.00  0.00    -0.016 A 
HETATM   19  C   UNL     1      -8.615   2.448 -33.113  1.00  0.00     0.014 A 
HETATM   20  C   UNL     1      -9.573   2.585 -34.124  1.00  0.00     0.037 A 
HETATM   21  C   UNL     1     -10.542   1.601 -34.306  1.00  0.00     0.069 A 
HETATM   22  C   UNL     1     -10.568   0.505 -33.442  1.00  0.00     0.037 A 
HETATM   23  C   UNL     1      -9.617   0.368 -32.428  1.00  0.00     0.014 A 
BRANCH  21  24
HETATM   24  O   UNL     1     -11.512   1.596 -35.269  1.00  0.00    -0.347 OA
BRANCH  24  25
HETATM   25  C   UNL     1     -12.398   2.714 -35.299  1.00  0.00     0.214 C 
BRANCH  25  26
HETATM   26  C   UNL     1     -13.340   2.611 -34.125  1.00  0.00    -0.034 A 
HETATM   27  C   UNL     1     -14.252   1.550 -34.038  1.00  0.00     0.009 A 
HETATM   28  C   UNL     1     -15.124   1.455 -32.952  1.00  0.00     0.001 A 
HETATM   29  C   UNL     1     -15.097   2.421 -31.947  1.00  0.00     0.000 A 
HETATM   30  C   UNL     1     -14.201   3.485 -32.029  1.00  0.00     0.001 A 
HETATM   31  C   UNL     1     -13.329   3.582 -33.114  1.00  0.00     0.009 A 
ENDBRANCH  25  26
ENDBRANCH  24  25
ENDBRANCH  21  24
ENDBRANCH   9  18
BRANCH   1  32
HETATM   32  C   UNL     1      -2.207   7.834 -31.434  1.00  0.00     0.273 C 
BRANCH  32  33
HETATM   33  C   UNL     1      -1.259   7.991 -30.277  1.00  0.00    -0.033 A 
HETATM   34  C   UNL     1      -0.116   7.180 -30.179  1.00  0.00     0.009 A 
HETATM   35  C   UNL     1       0.748   7.299 -29.091  1.00  0.00     0.001 A 
HETATM   36  C   UNL     1       0.485   8.232 -28.090  1.00  0.00     0.000 A 
HETATM   37  C   UNL     1      -0.636   9.052 -28.180  1.00  0.00     0.001 A 
HETATM   38  C   UNL     1      -1.503   8.937 -29.268  1.00  0.00     0.009 A 
ENDBRANCH  32  33
ENDBRANCH   1  32
TORSDOF 6
ENDMDL
MODEL 6
REMARK VINA RESULT:      -8.9      4.411      6.469
REMARK  6 active torsions:
REMARK  status: ('A' for Active; 'I' for Inactive)
REMARK    1  A    between atoms: C_4  and  C_5 
REMARK    2  A    between atoms: C_5  and  N_6 
REMARK    3  A    between atoms: C_14  and  C_15 
REMARK    4  A    between atoms: C_18  and  O_19 
REMARK    5  A    between atoms: O_19  and  C_20 
REMARK    6  A    between atoms: C_20  and  C_21 
ROOT
HETATM    1  N   UNL     1     -14.376   6.936 -29.815  1.00  0.00    -0.063 N 
HETATM    2  H   UNL     1     -13.472   6.695 -29.393  1.00  0.00     0.280 HD
HETATM    3  C   UNL     1     -14.974   5.606 -30.252  1.00  0.00     0.282 C 
HETATM    4  C   UNL     1     -14.153   5.015 -31.346  1.00  0.00     0.018 A 
HETATM    5  C   UNL     1     -13.240   5.710 -32.118  1.00  0.00    -0.023 A 
HETATM    6  C   UNL     1     -12.646   4.860 -33.106  1.00  0.00     0.073 A 
HETATM    7  C   UNL     1     -13.160   3.587 -33.057  1.00  0.00     0.088 A 
HETATM    8  N   UNL     1     -12.804   2.608 -33.911  1.00  0.00    -0.358 N 
HETATM    9  C   UNL     1     -11.626   2.762 -34.735  1.00  0.00     0.219 C 
HETATM   10  N   UNL     1     -11.291   4.150 -34.933  1.00  0.00    -0.332 N 
HETATM   11  C   UNL     1     -11.646   5.177 -34.106  1.00  0.00     0.256 C 
HETATM   12  O   UNL     1     -11.149   6.293 -34.212  1.00  0.00    -0.267 OA
HETATM   13  S   UNL     1     -14.302   3.387 -31.814  1.00  0.00    -0.074 SA
HETATM   14  C   UNL     1     -12.961   7.166 -31.884  1.00  0.00     0.068 C 
HETATM   15  C   UNL     1     -14.056   7.818 -31.016  1.00  0.00     0.240 C 
HETATM   16  H   UNL     1     -13.057   1.647 -33.701  1.00  0.00     0.162 HD
HETATM   17  H   UNL     1     -10.553   4.365 -35.588  1.00  0.00     0.165 HD
ENDROOT
BRANCH   9  18
HETATM   18  C   UNL     1     -10.485   1.932 -34.178  1.00  0.00    -0.016 A 
HETATM   19  C   UNL     1     -10.777   0.776 -33.432  1.00  0.00     0.014 A 
HETATM   20  C   UNL     1      -9.757  -0.022 -32.900  1.00  0.00     0.037 A 
HETATM   21  C   UNL     1      -8.423   0.318 -33.109  1.00  0.00     0.069 A 
HETATM   22  C   UNL     1      -8.122   1.483 -33.817  1.00  0.00     0.037 A 
HETATM   23  C   UNL     1      -9.137   2.285 -34.344  1.00  0.00     0.014 A 
BRANCH  21  24
HETATM   24  O   UNL     1      -7.336  -0.386 -32.674  1.00  0.00    -0.347 OA
BRANCH  24  25
HETATM   25  C   UNL     1      -6.187  -0.391 -33.521  1.00  0.00     0.214 C 
BRANCH  25  26
HETATM   26  C   UNL     1      -5.923  -1.810 -33.960  1.00  0.00    -0.034 A 
HETATM   27  C   UNL     1      -4.622  -2.333 -33.929  1.00  0.00     0.009 A 
HETATM   28  C   UNL     1      -4.378  -3.646 -34.336  1.00  0.00     0.001 A 
HETATM   29  C   UNL     1      -5.429  -4.445 -34.784  1.00  0.00     0.000 A 
HETATM   30  C   UNL     1      -6.724  -3.932 -34.828  1.00  0.00     0.001 A 
HETATM   31  C   UNL     1      -6.970  -2.620 -34.421  1.00  0.00     0.009 A 
ENDBRANCH  25  26
ENDBRANCH  24  25
ENDBRANCH  21  24
ENDBRANCH   9  18
BRANCH   1  32
HETATM   32  C   UNL     1     -15.162   7.622 -28.726  1.00  0.00     0.273 C 
BRANCH  32  33
HETATM   33  C   UNL     1     -15.427   6.803 -27.492  1.00  0.00    -0.033 A 
HETATM   34  C   UNL     1     -16.740   6.426 -27.158  1.00  0.00     0.009 A 
HETATM   35  C   UNL     1     -16.994   5.697 -25.997  1.00  0.00     0.001 A 
HETATM   36  C   UNL     1     -15.945   5.329 -25.159  1.00  0.00     0.000 A 
HETATM   37  C   UNL     1     -14.638   5.683 -25.485  1.00  0.00     0.001 A 
HETATM   38  C   UNL     1     -14.378   6.413 -26.646  1.00  0.00     0.009 A 
ENDBRANCH  32  33
ENDBRANCH   1  32
TORSDOF 6
ENDMDL
MODEL 7
REMARK VINA RESULT:      -8.8     10.265     12.940
REMARK  6 active torsions:
REMARK  status: ('A' for Active; 'I' for Inactive)
REMARK    1  A    between atoms: C_4  and  C_5 
REMARK    2  A    between atoms: C_5  and  N_6 
REMARK    3  A    between atoms: C_14  and  C_15 
REMARK    4  A    between atoms: C_18  and  O_19 
REMARK    5  A    between atoms: O_19  and  C_20 
REMARK    6  A    between atoms: C_20  and  C_21 
ROOT
HETATM    1  N   UNL     1      -4.812   1.947 -31.330  1.00  0.00    -0.063 N 
HETATM    2  H   UNL     1      -4.462   1.819 -30.374  1.00  0.00     0.280 HD
HETATM    3  C   UNL     1      -3.633   2.513 -32.108  1.00  0.00     0.282 C 
HETATM    4  C   UNL     1      -3.298   3.876 -31.605  1.00  0.00     0.018 A 
HETATM    5  C   UNL     1      -4.138   4.669 -30.845  1.00  0.00    -0.023 A 
HETATM    6  C   UNL     1      -3.532   5.934 -30.557  1.00  0.00     0.073 A 
HETATM    7  C   UNL     1      -2.292   6.049 -31.138  1.00  0.00     0.088 A 
HETATM    8  N   UNL     1      -1.533   7.159 -31.060  1.00  0.00    -0.358 N 
HETATM    9  C   UNL     1      -1.854   8.186 -30.093  1.00  0.00     0.219 C 
HETATM   10  N   UNL     1      -3.243   8.143 -29.711  1.00  0.00    -0.332 N 
HETATM   11  C   UNL     1      -4.055   7.048 -29.792  1.00  0.00     0.256 C 
HETATM   12  O   UNL     1      -5.155   7.020 -29.252  1.00  0.00    -0.267 OA
HETATM   13  S   UNL     1      -1.828   4.645 -31.977  1.00  0.00    -0.074 SA
HETATM   14  C   UNL     1      -5.493   4.191 -30.413  1.00  0.00     0.068 C 
HETATM   15  C   UNL     1      -5.945   2.963 -31.230  1.00  0.00     0.240 C 
HETATM   16  H   UNL     1      -0.555   7.113 -31.328  1.00  0.00     0.162 HD
HETATM   17  H   UNL     1      -3.592   8.892 -29.130  1.00  0.00     0.165 HD
ENDROOT
BRANCH   9  18
HETATM   18  C   UNL     1      -0.896   8.117 -28.919  1.00  0.00    -0.016 A 
HETATM   19  C   UNL     1       0.212   7.253 -28.986  1.00  0.00     0.014 A 
HETATM   20  C   UNL     1       1.123   7.158 -27.928  1.00  0.00     0.037 A 
HETATM   21  C   UNL     1       0.948   7.931 -26.783  1.00  0.00     0.069 A 
HETATM   22  C   UNL     1      -0.167   8.766 -26.691  1.00  0.00     0.037 A 
HETATM   23  C   UNL     1      -1.083   8.858 -27.743  1.00  0.00     0.014 A 
BRANCH  21  24
HETATM   24  O   UNL     1       1.776   7.957 -25.696  1.00  0.00    -0.347 OA
BRANCH  24  25
HETATM   25  C   UNL     1       1.790   9.157 -24.923  1.00  0.00     0.214 C 
BRANCH  25  26
HETATM   26  C   UNL     1       2.922   9.073 -23.930  1.00  0.00    -0.034 A 
HETATM   27  C   UNL     1       4.192   9.571 -24.256  1.00  0.00     0.009 A 
HETATM   28  C   UNL     1       5.240   9.492 -23.337  1.00  0.00     0.001 A 
HETATM   29  C   UNL     1       5.031   8.909 -22.087  1.00  0.00     0.000 A 
HETATM   30  C   UNL     1       3.776   8.402 -21.757  1.00  0.00     0.001 A 
HETATM   31  C   UNL     1       2.727   8.480 -22.674  1.00  0.00     0.009 A 
ENDBRANCH  25  26
ENDBRANCH  24  25
ENDBRANCH  21  24
ENDBRANCH   9  18
BRANCH   1  32
HETATM   32  C   UNL     1      -5.239   0.578 -31.793  1.00  0.00     0.273 C 
BRANCH  32  33
HETATM   33  C   UNL     1      -6.379   0.542 -32.774  1.00  0.00    -0.033 A 
HETATM   34  C   UNL     1      -7.682   0.243 -32.340  1.00  0.00     0.009 A 
HETATM   35  C   UNL     1      -8.736   0.175 -33.251  1.00  0.00     0.001 A 
HETATM   36  C   UNL     1      -8.504   0.409 -34.604  1.00  0.00     0.000 A 
HETATM   37  C   UNL     1      -7.222   0.721 -35.047  1.00  0.00     0.001 A 
HETATM   38  C   UNL     1      -6.164   0.790 -34.139  1.00  0.00     0.009 A 
ENDBRANCH  32  33
ENDBRANCH   1  32
TORSDOF 6
ENDMDL
MODEL 8
REMARK VINA RESULT:      -8.7      1.423      1.993
REMARK  6 active torsions:
REMARK  status: ('A' for Active; 'I' for Inactive)
REMARK    1  A    between atoms: C_4  and  C_5 
REMARK    2  A    between atoms: C_5  and  N_6 
REMARK    3  A    between atoms: C_14  and  C_15 
REMARK    4  A    between atoms: C_18  and  O_19 
REMARK    5  A    between atoms: O_19  and  C_20 
REMARK    6  A    between atoms: C_20  and  C_21 
ROOT
HETATM    1  N   UNL     1     -11.637   8.510 -34.977  1.00  0.00    -0.063 N 
HETATM    2  H   UNL     1     -11.258   7.926 -35.731  1.00  0.00     0.280 HD
HETATM    3  C   UNL     1     -10.569   8.500 -33.894  1.00  0.00     0.282 C 
HETATM    4  C   UNL     1     -10.434   7.129 -33.325  1.00  0.00     0.018 A 
HETATM    5  C   UNL     1     -11.372   6.120 -33.456  1.00  0.00    -0.023 A 
HETATM    6  C   UNL     1     -10.957   4.938 -32.761  1.00  0.00     0.073 A 
HETATM    7  C   UNL     1      -9.758   5.120 -32.116  1.00  0.00     0.088 A 
HETATM    8  N   UNL     1      -9.173   4.178 -31.353  1.00  0.00    -0.358 N 
HETATM    9  C   UNL     1      -9.629   2.807 -31.422  1.00  0.00     0.219 C 
HETATM   10  N   UNL     1     -10.990   2.721 -31.889  1.00  0.00    -0.332 N 
HETATM   11  C   UNL     1     -11.630   3.659 -32.647  1.00  0.00     0.256 C 
HETATM   12  O   UNL     1     -12.705   3.428 -33.189  1.00  0.00    -0.267 OA
HETATM   13  S   UNL     1      -9.101   6.667 -32.375  1.00  0.00    -0.074 SA
HETATM   14  C   UNL     1     -12.633   6.317 -34.244  1.00  0.00     0.068 C 
HETATM   15  C   UNL     1     -12.908   7.812 -34.505  1.00  0.00     0.240 C 
HETATM   16  H   UNL     1      -8.203   4.293 -31.075  1.00  0.00     0.162 HD
HETATM   17  H   UNL     1     -11.438   1.816 -31.862  1.00  0.00     0.165 HD
ENDROOT
BRANCH   9  18
HETATM   18  C   UNL     1      -8.653   1.971 -32.229  1.00  0.00    -0.016 A 
HETATM   19  C   UNL     1      -7.402   2.515 -32.572  1.00  0.00     0.014 A 
HETATM   20  C   UNL     1      -6.469   1.781 -33.313  1.00  0.00     0.037 A 
HETATM   21  C   UNL     1      -6.768   0.483 -33.721  1.00  0.00     0.069 A 
HETATM   22  C   UNL     1      -8.020  -0.054 -33.419  1.00  0.00     0.037 A 
HETATM   23  C   UNL     1      -8.956   0.679 -32.684  1.00  0.00     0.014 A 
BRANCH  21  24
HETATM   24  O   UNL     1      -5.939  -0.350 -34.420  1.00  0.00    -0.347 OA
BRANCH  24  25
HETATM   25  C   UNL     1      -6.519  -1.542 -34.950  1.00  0.00     0.214 C 
BRANCH  25  26
HETATM   26  C   UNL     1      -5.652  -2.712 -34.555  1.00  0.00    -0.034 A 
HETATM   27  C   UNL     1      -4.480  -2.509 -33.813  1.00  0.00     0.009 A 
HETATM   28  C   UNL     1      -3.678  -3.592 -33.448  1.00  0.00     0.001 A 
HETATM   29  C   UNL     1      -4.035  -4.885 -33.827  1.00  0.00     0.000 A 
HETATM   30  C   UNL     1      -5.192  -5.097 -34.574  1.00  0.00     0.001 A 
HETATM   31  C   UNL     1      -5.995  -4.016 -34.939  1.00  0.00     0.009 A 
ENDBRANCH  25  26
ENDBRANCH  24  25
ENDBRANCH  21  24
ENDBRANCH   9  18
BRANCH   1  32
HETATM   32  C   UNL     1     -11.862   9.868 -35.592  1.00  0.00     0.273 C 
BRANCH  32  33
HETATM   33  C   UNL     1     -11.664   9.956 -37.081  1.00  0.00    -0.033 A 
HETATM   34  C   UNL     1     -12.624   9.423 -37.958  1.00  0.00     0.009 A 
HETATM   35  C   UNL     1     -12.429   9.471 -39.338  1.00  0.00     0.001 A 
HETATM   36  C   UNL     1     -11.278  10.057 -39.860  1.00  0.00     0.000 A 
HETATM   37  C   UNL     1     -10.325  10.602 -39.004  1.00  0.00     0.001 A 
HETATM   38  C   UNL     1     -10.516  10.556 -37.622  1.00  0.00     0.009 A 
ENDBRANCH  32  33
ENDBRANCH   1  32
TORSDOF 6
ENDMDL
MODEL 9
REMARK VINA RESULT:      -8.7      3.678      4.933
REMARK  6 active torsions:
REMARK  status: ('A' for Active; 'I' for Inactive)
REMARK    1  A    between atoms: C_4  and  C_5 
REMARK    2  A    between atoms: C_5  and  N_6 
REMARK    3  A    between atoms: C_14  and  C_15 
REMARK    4  A    between atoms: C_18  and  O_19 
REMARK    5  A    between atoms: O_19  and  C_20 
REMARK    6  A    between atoms: C_20  and  C_21 
ROOT
HETATM    1  N   UNL     1     -12.570   6.629 -35.313  1.00  0.00    -0.063 N 
HETATM    2  H   UNL     1     -11.617   6.676 -35.692  1.00  0.00     0.280 HD
HETATM    3  C   UNL     1     -12.410   6.853 -33.817  1.00  0.00     0.282 C 
HETATM    4  C   UNL     1     -11.668   5.713 -33.208  1.00  0.00     0.018 A 
HETATM    5  C   UNL     1     -11.493   4.474 -33.799  1.00  0.00    -0.023 A 
HETATM    6  C   UNL     1     -10.765   3.590 -32.937  1.00  0.00     0.073 A 
HETATM    7  C   UNL     1     -10.461   4.185 -31.737  1.00  0.00     0.088 A 
HETATM    8  N   UNL     1      -9.824   3.553 -30.733  1.00  0.00    -0.358 N 
HETATM    9  C   UNL     1      -9.147   2.299 -30.984  1.00  0.00     0.219 C 
HETATM   10  N   UNL     1      -9.692   1.621 -32.134  1.00  0.00    -0.332 N 
HETATM   11  C   UNL     1     -10.362   2.217 -33.164  1.00  0.00     0.256 C 
HETATM   12  O   UNL     1     -10.605   1.621 -34.207  1.00  0.00    -0.267 OA
HETATM   13  S   UNL     1     -10.989   5.799 -31.651  1.00  0.00    -0.074 SA
HETATM   14  C   UNL     1     -12.023   4.175 -35.170  1.00  0.00     0.068 C 
HETATM   15  C   UNL     1     -13.070   5.219 -35.610  1.00  0.00     0.240 C 
HETATM   16  H   UNL     1      -9.448   4.095 -29.962  1.00  0.00     0.162 HD
HETATM   17  H   UNL     1      -9.365   0.684 -32.322  1.00  0.00     0.165 HD
ENDROOT
BRANCH   9  18
HETATM   18  C   UNL     1      -7.648   2.519 -31.059  1.00  0.00    -0.016 A 
HETATM   19  C   UNL     1      -6.954   2.917 -29.902  1.00  0.00     0.014 A 
HETATM   20  C   UNL     1      -5.571   3.129 -29.921  1.00  0.00     0.037 A 
HETATM   21  C   UNL     1      -4.852   2.941 -31.100  1.00  0.00     0.069 A 
HETATM   22  C   UNL     1      -5.535   2.581 -32.262  1.00  0.00     0.037 A 
HETATM   23  C   UNL     1      -6.918   2.374 -32.247  1.00  0.00     0.014 A 
BRANCH  21  24
HETATM   24  O   UNL     1      -3.501   3.083 -31.249  1.00  0.00    -0.347 OA
BRANCH  24  25
HETATM   25  C   UNL     1      -2.990   3.049 -32.581  1.00  0.00     0.214 C 
BRANCH  25  26
HETATM   26  C   UNL     1      -2.278   4.350 -32.854  1.00  0.00    -0.034 A 
HETATM   27  C   UNL     1      -2.324   4.931 -34.130  1.00  0.00     0.009 A 
HETATM   28  C   UNL     1      -1.664   6.136 -34.382  1.00  0.00     0.001 A 
HETATM   29  C   UNL     1      -0.949   6.767 -33.365  1.00  0.00     0.000 A 
HETATM   30  C   UNL     1      -0.889   6.193 -32.097  1.00  0.00     0.001 A 
HETATM   31  C   UNL     1      -1.547   4.989 -31.843  1.00  0.00     0.009 A 
ENDBRANCH  25  26
ENDBRANCH  24  25
ENDBRANCH  21  24
ENDBRANCH   9  18
BRANCH   1  32
HETATM   32  C   UNL     1     -13.337   7.724 -36.010  1.00  0.00     0.273 C 
BRANCH  32  33
HETATM   33  C   UNL     1     -12.648   8.364 -37.184  1.00  0.00    -0.033 A 
HETATM   34  C   UNL     1     -13.313   8.494 -38.415  1.00  0.00     0.009 A 
HETATM   35  C   UNL     1     -12.667   9.056 -39.515  1.00  0.00     0.001 A 
HETATM   36  C   UNL     1     -11.352   9.500 -39.400  1.00  0.00     0.000 A 
HETATM   37  C   UNL     1     -10.685   9.391 -38.183  1.00  0.00     0.001 A 
HETATM   38  C   UNL     1     -11.328   8.830 -37.079  1.00  0.00     0.009 A 
ENDBRANCH  32  33
ENDBRANCH   1  32
TORSDOF 6
ENDMDL
MODEL 10
REMARK VINA RESULT:      -8.6      4.524      6.481
REMARK  6 active torsions:
REMARK  status: ('A' for Active; 'I' for Inactive)
REMARK    1  A    between atoms: C_4  and  C_5 
REMARK    2  A    between atoms: C_5  and  N_6 
REMARK    3  A    between atoms: C_14  and  C_15 
REMARK    4  A    between atoms: C_18  and  O_19 
REMARK    5  A    between atoms: O_19  and  C_20 
REMARK    6  A    between atoms: C_20  and  C_21 
ROOT
HETATM    1  N   UNL     1     -13.082   7.677 -29.145  1.00  0.00    -0.063 N 
HETATM    2  H   UNL     1     -12.088   7.481 -28.981  1.00  0.00     0.280 HD
HETATM    3  C   UNL     1     -13.747   6.310 -29.209  1.00  0.00     0.282 C 
HETATM    4  C   UNL     1     -13.269   5.567 -30.410  1.00  0.00     0.018 A 
HETATM    5  C   UNL     1     -12.643   6.143 -31.501  1.00  0.00    -0.023 A 
HETATM    6  C   UNL     1     -12.344   5.162 -32.500  1.00  0.00     0.073 A 
HETATM    7  C   UNL     1     -12.787   3.913 -32.137  1.00  0.00     0.088 A 
HETATM    8  N   UNL     1     -12.673   2.825 -32.923  1.00  0.00    -0.358 N 
HETATM    9  C   UNL     1     -11.793   2.853 -34.071  1.00  0.00     0.219 C 
HETATM   10  N   UNL     1     -11.568   4.198 -34.537  1.00  0.00    -0.332 N 
HETATM   11  C   UNL     1     -11.691   5.331 -33.783  1.00  0.00     0.256 C 
HETATM   12  O   UNL     1     -11.277   6.415 -34.176  1.00  0.00    -0.267 OA
HETATM   13  S   UNL     1     -13.506   3.894 -30.597  1.00  0.00    -0.074 SA
HETATM   14  C   UNL     1     -12.345   7.613 -31.551  1.00  0.00     0.068 C 
HETATM   15  C   UNL     1     -13.153   8.389 -30.491  1.00  0.00     0.240 C 
HETATM   16  H   UNL     1     -12.827   1.904 -32.524  1.00  0.00     0.162 HD
HETATM   17  H   UNL     1     -11.062   4.315 -35.403  1.00  0.00     0.165 HD
ENDROOT
BRANCH   9  18
HETATM   18  C   UNL     1     -10.517   2.089 -33.772  1.00  0.00    -0.016 A 
HETATM   19  C   UNL     1      -9.277   2.727 -33.955  1.00  0.00     0.014 A 
HETATM   20  C   UNL     1      -8.074   2.063 -33.690  1.00  0.00     0.037 A 
HETATM   21  C   UNL     1      -8.087   0.748 -33.232  1.00  0.00     0.069 A 
HETATM   22  C   UNL     1      -9.311   0.093 -33.082  1.00  0.00     0.037 A 
HETATM   23  C   UNL     1     -10.514   0.751 -33.351  1.00  0.00     0.014 A 
BRANCH  21  24
HETATM   24  O   UNL     1      -6.992  -0.002 -32.908  1.00  0.00    -0.347 OA
BRANCH  24  25
HETATM   25  C   UNL     1      -5.993  -0.156 -33.916  1.00  0.00     0.214 C 
BRANCH  25  26
HETATM   26  C   UNL     1      -5.810  -1.628 -34.188  1.00  0.00    -0.034 A 
HETATM   27  C   UNL     1      -6.907  -2.427 -34.544  1.00  0.00     0.009 A 
HETATM   28  C   UNL     1      -6.737  -3.789 -34.794  1.00  0.00     0.001 A 
HETATM   29  C   UNL     1      -5.473  -4.368 -34.686  1.00  0.00     0.000 A 
HETATM   30  C   UNL     1      -4.379  -3.586 -34.324  1.00  0.00     0.001 A 
HETATM   31  C   UNL     1      -4.546  -2.224 -34.072  1.00  0.00     0.009 A 
ENDBRANCH  25  26
ENDBRANCH  24  25
ENDBRANCH  21  24
ENDBRANCH   9  18
BRANCH   1  32
HETATM   32  C   UNL     1     -13.530   8.511 -27.971  1.00  0.00     0.273 C 
BRANCH  32  33
HETATM   33  C   UNL     1     -12.816   8.254 -26.672  1.00  0.00    -0.033 A 
HETATM   34  C   UNL     1     -11.412   8.280 -26.615  1.00  0.00     0.009 A 
HETATM   35  C   UNL     1     -10.745   8.009 -25.421  1.00  0.00     0.001 A 
HETATM   36  C   UNL     1     -11.469   7.714 -24.269  1.00  0.00     0.000 A 
HETATM   37  C   UNL     1     -12.861   7.698 -24.306  1.00  0.00     0.001 A 
HETATM   38  C   UNL     1     -13.533   7.970 -25.499  1.00  0.00     0.009 A 
ENDBRANCH  32  33
ENDBRANCH   1  32
TORSDOF 6
ENDMDL
