MODEL 1
REMARK VINA RESULT:     -10.0      0.000      0.000
REMARK  4 active torsions:
REMARK  status: ('A' for Active; 'I' for Inactive)
REMARK    1  A    between atoms: C_5  and  N_6 
REMARK       I    between atoms: N_6  and  C_7 
REMARK    2  A    between atoms: C_7  and  C_8 
REMARK    3  A    between atoms: C_12  and  C_13 
REMARK    4  A    between atoms: N_24  and  C_25 
ROOT
HETATM    1  N   UNL     1      -4.623   4.179 -32.755  1.00  0.00    -0.348 N 
HETATM    2  C   UNL     1      -5.790   3.526 -33.058  1.00  0.00     0.257 C 
HETATM    3  O   UNL     1      -6.871   4.110 -33.120  1.00  0.00    -0.267 OA
HETATM    4  H   UNL     1      -3.746   3.659 -32.763  1.00  0.00     0.163 HD
ENDROOT
BRANCH   1   5
HETATM    5  C   UNL     1      -4.604   5.606 -32.522  1.00  0.00     0.122 C 
HETATM    6  C   UNL     1      -3.463   6.327 -33.278  1.00  0.00     0.039 C 
HETATM    7  C   UNL     1      -2.075   6.296 -32.570  1.00  0.00    -0.040 C 
HETATM    8  C   UNL     1      -1.104   7.186 -33.375  1.00  0.00     0.015 C 
HETATM    9  C   UNL     1      -1.492   4.868 -32.554  1.00  0.00     0.015 C 
HETATM   10  C   UNL     1      -2.158   6.845 -31.110  1.00  0.00     0.069 C 
HETATM   11  C   UNL     1      -3.408   6.408 -30.416  1.00  0.00     0.047 A 
HETATM   12  C   UNL     1      -4.508   5.866 -31.062  1.00  0.00     0.008 A 
HETATM   13  N   UNL     1      -3.792   6.636 -29.096  1.00  0.00    -0.238 N 
HETATM   14  C   UNL     1      -5.483   5.738 -30.070  1.00  0.00     0.150 A 
HETATM   15  N   UNL     1      -5.075   6.209 -28.897  1.00  0.00    -0.179 NA
BRANCH  13  16
HETATM   16  C   UNL     1      -3.108   7.265 -28.009  1.00  0.00     0.058 A 
HETATM   17  C   UNL     1      -3.234   6.705 -26.723  1.00  0.00     0.031 A 
HETATM   18  C   UNL     1      -2.616   7.296 -25.618  1.00  0.00     0.002 A 
HETATM   19  C   UNL     1      -1.844   8.441 -25.784  1.00  0.00     0.000 A 
HETATM   20  C   UNL     1      -1.687   8.990 -27.054  1.00  0.00     0.002 A 
HETATM   21  C   UNL     1      -2.317   8.407 -28.161  1.00  0.00     0.031 A 
ENDBRANCH  13  16
ENDBRANCH   1   5
BRANCH   2  22
HETATM   22  C   UNL     1      -5.690   2.059 -33.297  1.00  0.00     0.100 A 
HETATM   23  C   UNL     1      -4.745   1.149 -32.579  1.00  0.00     0.261 A 
HETATM   24  O   UNL     1      -3.960   1.564 -31.729  1.00  0.00    -0.267 OA
HETATM   25  N   UNL     1      -4.798  -0.184 -32.919  1.00  0.00    -0.322 N 
HETATM   26  C   UNL     1      -5.655  -0.708 -33.855  1.00  0.00     0.045 A 
HETATM   27  H   UNL     1      -4.165  -0.801 -32.425  1.00  0.00     0.169 HD
HETATM   28  C   UNL     1      -6.500   0.102 -34.510  1.00  0.00     0.031 A 
HETATM   29  C   UNL     1      -6.510   1.518 -34.219  1.00  0.00     0.025 A 
BRANCH  26  30
HETATM   30  C   UNL     1      -5.622  -2.148 -34.121  1.00  0.00    -0.009 A 
HETATM   31  C   UNL     1      -4.440  -2.874 -33.933  1.00  0.00     0.013 A 
HETATM   32  C   UNL     1      -4.400  -4.240 -34.221  1.00  0.00     0.001 A 
HETATM   33  C   UNL     1      -5.541  -4.887 -34.695  1.00  0.00     0.000 A 
HETATM   34  C   UNL     1      -6.722  -4.172 -34.881  1.00  0.00     0.001 A 
HETATM   35  C   UNL     1      -6.763  -2.806 -34.596  1.00  0.00     0.013 A 
ENDBRANCH  26  30
ENDBRANCH   2  22
TORSDOF 4
ENDMDL
MODEL 2
REMARK VINA RESULT:      -9.4      4.913      7.199
REMARK  4 active torsions:
REMARK  status: ('A' for Active; 'I' for Inactive)
REMARK    1  A    between atoms: C_5  and  N_6 
REMARK       I    between atoms: N_6  and  C_7 
REMARK    2  A    between atoms: C_7  and  C_8 
REMARK    3  A    between atoms: C_12  and  C_13 
REMARK    4  A    between atoms: N_24  and  C_25 
ROOT
HETATM    1  N   UNL     1      -7.685   2.403 -33.517  1.00  0.00    -0.348 N 
HETATM    2  C   UNL     1      -8.697   1.630 -34.024  1.00  0.00     0.257 C 
HETATM    3  O   UNL     1      -8.487   0.700 -34.800  1.00  0.00    -0.267 OA
HETATM    4  H   UNL     1      -7.907   3.133 -32.840  1.00  0.00     0.163 HD
ENDROOT
BRANCH   1   5
HETATM    5  C   UNL     1      -6.303   2.139 -33.852  1.00  0.00     0.122 C 
HETATM    6  C   UNL     1      -5.732   0.898 -33.126  1.00  0.00     0.039 C 
HETATM    7  C   UNL     1      -5.225   1.153 -31.675  1.00  0.00    -0.040 C 
HETATM    8  C   UNL     1      -4.552  -0.139 -31.165  1.00  0.00     0.015 C 
HETATM    9  C   UNL     1      -6.397   1.473 -30.725  1.00  0.00     0.015 C 
HETATM   10  C   UNL     1      -4.178   2.311 -31.623  1.00  0.00     0.069 C 
HETATM   11  C   UNL     1      -4.537   3.434 -32.544  1.00  0.00     0.047 A 
HETATM   12  C   UNL     1      -5.483   3.342 -33.552  1.00  0.00     0.008 A 
HETATM   13  N   UNL     1      -3.891   4.657 -32.713  1.00  0.00    -0.238 N 
HETATM   14  C   UNL     1      -5.397   4.553 -34.242  1.00  0.00     0.150 A 
HETATM   15  N   UNL     1      -4.440   5.340 -33.763  1.00  0.00    -0.179 NA
BRANCH  13  16
HETATM   16  C   UNL     1      -2.773   5.236 -32.035  1.00  0.00     0.058 A 
HETATM   17  C   UNL     1      -1.478   4.833 -32.414  1.00  0.00     0.031 A 
HETATM   18  C   UNL     1      -0.349   5.339 -31.765  1.00  0.00     0.002 A 
HETATM   19  C   UNL     1      -0.495   6.273 -30.744  1.00  0.00     0.000 A 
HETATM   20  C   UNL     1      -1.768   6.703 -30.379  1.00  0.00     0.002 A 
HETATM   21  C   UNL     1      -2.902   6.187 -31.019  1.00  0.00     0.031 A 
ENDBRANCH  13  16
ENDBRANCH   1   5
BRANCH   2  22
HETATM   22  C   UNL     1     -10.081   1.982 -33.596  1.00  0.00     0.100 A 
HETATM   23  C   UNL     1     -10.413   2.739 -32.350  1.00  0.00     0.261 A 
HETATM   24  O   UNL     1      -9.546   3.122 -31.570  1.00  0.00    -0.267 OA
HETATM   25  N   UNL     1     -11.748   2.987 -32.120  1.00  0.00    -0.322 N 
HETATM   26  C   UNL     1     -12.762   2.590 -32.956  1.00  0.00     0.045 A 
HETATM   27  H   UNL     1     -11.972   3.509 -31.281  1.00  0.00     0.169 HD
HETATM   28  C   UNL     1     -12.474   1.904 -34.072  1.00  0.00     0.031 A 
HETATM   29  C   UNL     1     -11.098   1.595 -34.391  1.00  0.00     0.025 A 
BRANCH  26  30
HETATM   30  C   UNL     1     -14.144   2.925 -32.605  1.00  0.00    -0.009 A 
HETATM   31  C   UNL     1     -15.140   1.942 -32.639  1.00  0.00     0.013 A 
HETATM   32  C   UNL     1     -16.464   2.270 -32.339  1.00  0.00     0.001 A 
HETATM   33  C   UNL     1     -16.799   3.581 -32.002  1.00  0.00     0.000 A 
HETATM   34  C   UNL     1     -15.812   4.565 -31.962  1.00  0.00     0.001 A 
HETATM   35  C   UNL     1     -14.489   4.239 -32.264  1.00  0.00     0.013 A 
ENDBRANCH  26  30
ENDBRANCH   2  22
TORSDOF 4
ENDMDL
MODEL 3
REMARK VINA RESULT:      -9.3      2.904     10.078
REMARK  4 active torsions:
REMARK  status: ('A' for Active; 'I' for Inactive)
REMARK    1  A    between atoms: C_5  and  N_6 
REMARK       I    between atoms: N_6  and  C_7 
REMARK    2  A    between atoms: C_7  and  C_8 
REMARK    3  A    between atoms: C_12  and  C_13 
REMARK    4  A    between atoms: N_24  and  C_25 
ROOT
HETATM    1  N   UNL     1      -2.023   4.481 -31.016  1.00  0.00    -0.348 N 
HETATM    2  C   UNL     1      -0.783   5.034 -30.829  1.00  0.00     0.257 C 
HETATM    3  O   UNL     1       0.169   4.772 -31.562  1.00  0.00    -0.267 OA
HETATM    4  H   UNL     1      -2.792   4.768 -30.409  1.00  0.00     0.163 HD
ENDROOT
BRANCH   1   5
HETATM    5  C   UNL     1      -2.281   3.577 -32.114  1.00  0.00     0.122 C 
HETATM    6  C   UNL     1      -2.553   4.309 -33.449  1.00  0.00     0.039 C 
HETATM    7  C   UNL     1      -4.016   4.804 -33.649  1.00  0.00    -0.040 C 
HETATM    8  C   UNL     1      -4.145   5.364 -35.082  1.00  0.00     0.015 C 
HETATM    9  C   UNL     1      -4.353   5.949 -32.671  1.00  0.00     0.015 C 
HETATM   10  C   UNL     1      -5.048   3.645 -33.474  1.00  0.00     0.069 C 
HETATM   11  C   UNL     1      -4.672   2.722 -32.360  1.00  0.00     0.047 A 
HETATM   12  C   UNL     1      -3.420   2.688 -31.766  1.00  0.00     0.008 A 
HETATM   13  N   UNL     1      -5.379   1.628 -31.863  1.00  0.00    -0.238 N 
HETATM   14  C   UNL     1      -3.465   1.603 -30.888  1.00  0.00     0.150 A 
HETATM   15  N   UNL     1      -4.621   0.951 -30.949  1.00  0.00    -0.179 NA
BRANCH  13  16
HETATM   16  C   UNL     1      -6.670   1.109 -32.194  1.00  0.00     0.058 A 
HETATM   17  C   UNL     1      -6.753   0.072 -33.142  1.00  0.00     0.031 A 
HETATM   18  C   UNL     1      -7.989  -0.452 -33.529  1.00  0.00     0.002 A 
HETATM   19  C   UNL     1      -9.159   0.037 -32.958  1.00  0.00     0.000 A 
HETATM   20  C   UNL     1      -9.092   1.043 -31.998  1.00  0.00     0.002 A 
HETATM   21  C   UNL     1      -7.854   1.578 -31.618  1.00  0.00     0.031 A 
ENDBRANCH  13  16
ENDBRANCH   1   5
BRANCH   2  22
HETATM   22  C   UNL     1      -0.637   5.967 -29.676  1.00  0.00     0.100 A 
HETATM   23  C   UNL     1      -1.646   7.002 -29.294  1.00  0.00     0.261 A 
HETATM   24  O   UNL     1      -2.685   7.164 -29.929  1.00  0.00    -0.267 OA
HETATM   25  N   UNL     1      -1.351   7.770 -28.189  1.00  0.00    -0.322 N 
HETATM   26  C   UNL     1      -0.210   7.633 -27.438  1.00  0.00     0.045 A 
HETATM   27  H   UNL     1      -2.040   8.464 -27.925  1.00  0.00     0.169 HD
HETATM   28  C   UNL     1       0.704   6.712 -27.777  1.00  0.00     0.031 A 
HETATM   29  C   UNL     1       0.478   5.865 -28.927  1.00  0.00     0.025 A 
BRANCH  26  30
HETATM   30  C   UNL     1      -0.017   8.504 -26.276  1.00  0.00    -0.009 A 
HETATM   31  C   UNL     1       1.269   8.736 -25.773  1.00  0.00     0.013 A 
HETATM   32  C   UNL     1       1.450   9.538 -24.645  1.00  0.00     0.001 A 
HETATM   33  C   UNL     1       0.347  10.114 -24.014  1.00  0.00     0.000 A 
HETATM   34  C   UNL     1      -0.936   9.891 -24.511  1.00  0.00     0.001 A 
HETATM   35  C   UNL     1      -1.118   9.087 -25.638  1.00  0.00     0.013 A 
ENDBRANCH  26  30
ENDBRANCH   2  22
TORSDOF 4
ENDMDL
MODEL 4
REMARK VINA RESULT:      -9.3      5.208      7.708
REMARK  4 active torsions:
REMARK  status: ('A' for Active; 'I' for Inactive)
REMARK    1  A    between atoms: C_5  and  N_6 
REMARK       I    between atoms: N_6  and  C_7 
REMARK    2  A    between atoms: C_7  and  C_8 
REMARK    3  A    between atoms: C_12  and  C_13 
REMARK    4  A    between atoms: N_24  and  C_25 
ROOT
HETATM    1  N   UNL     1      -8.339   3.136 -33.552  1.00  0.00    -0.348 N 
HETATM    2  C   UNL     1      -7.042   2.945 -33.953  1.00  0.00     0.257 C 
HETATM    3  O   UNL     1      -6.308   3.881 -34.266  1.00  0.00    -0.267 OA
HETATM    4  H   UNL     1      -8.893   2.331 -33.258  1.00  0.00     0.163 HD
ENDROOT
BRANCH   1   5
HETATM    5  C   UNL     1      -8.901   4.464 -33.446  1.00  0.00     0.122 C 
HETATM    6  C   UNL     1      -8.570   5.155 -32.102  1.00  0.00     0.039 C 
HETATM    7  C   UNL     1      -9.503   4.777 -30.913  1.00  0.00    -0.040 C 
HETATM    8  C   UNL     1      -9.133   5.666 -29.707  1.00  0.00     0.015 C 
HETATM    9  C   UNL     1      -9.295   3.308 -30.489  1.00  0.00     0.015 C 
HETATM   10  C   UNL     1     -11.008   5.012 -31.261  1.00  0.00     0.069 C 
HETATM   11  C   UNL     1     -11.326   4.625 -32.669  1.00  0.00     0.047 A 
HETATM   12  C   UNL     1     -10.372   4.396 -33.648  1.00  0.00     0.008 A 
HETATM   13  N   UNL     1     -12.564   4.623 -33.310  1.00  0.00    -0.238 N 
HETATM   14  C   UNL     1     -11.099   4.204 -34.825  1.00  0.00     0.150 A 
HETATM   15  N   UNL     1     -12.406   4.354 -34.641  1.00  0.00    -0.179 NA
BRANCH  13  16
HETATM   16  C   UNL     1     -13.879   4.905 -32.824  1.00  0.00     0.058 A 
HETATM   17  C   UNL     1     -14.631   3.850 -32.273  1.00  0.00     0.031 A 
HETATM   18  C   UNL     1     -15.933   4.059 -31.813  1.00  0.00     0.002 A 
HETATM   19  C   UNL     1     -16.496   5.329 -31.875  1.00  0.00     0.000 A 
HETATM   20  C   UNL     1     -15.754   6.389 -32.391  1.00  0.00     0.002 A 
HETATM   21  C   UNL     1     -14.453   6.179 -32.864  1.00  0.00     0.031 A 
ENDBRANCH  13  16
ENDBRANCH   1   5
BRANCH   2  22
HETATM   22  C   UNL     1      -6.563   1.535 -34.008  1.00  0.00     0.100 A 
HETATM   23  C   UNL     1      -5.490   0.974 -33.131  1.00  0.00     0.261 A 
HETATM   24  O   UNL     1      -4.909   1.658 -32.293  1.00  0.00    -0.267 OA
HETATM   25  N   UNL     1      -5.183  -0.357 -33.312  1.00  0.00    -0.322 N 
HETATM   26  C   UNL     1      -5.799  -1.173 -34.227  1.00  0.00     0.045 A 
HETATM   27  H   UNL     1      -4.463  -0.739 -32.710  1.00  0.00     0.169 HD
HETATM   28  C   UNL     1      -6.757  -0.676 -35.023  1.00  0.00     0.031 A 
HETATM   29  C   UNL     1      -7.140   0.713 -34.906  1.00  0.00     0.025 A 
BRANCH  26  30
HETATM   30  C   UNL     1      -5.390  -2.577 -34.316  1.00  0.00    -0.009 A 
HETATM   31  C   UNL     1      -6.237  -3.525 -34.902  1.00  0.00     0.013 A 
HETATM   32  C   UNL     1      -5.862  -4.868 -34.954  1.00  0.00     0.001 A 
HETATM   33  C   UNL     1      -4.637  -5.272 -34.421  1.00  0.00     0.000 A 
HETATM   34  C   UNL     1      -3.786  -4.334 -33.839  1.00  0.00     0.001 A 
HETATM   35  C   UNL     1      -4.162  -2.990 -33.785  1.00  0.00     0.013 A 
ENDBRANCH  26  30
ENDBRANCH   2  22
TORSDOF 4
ENDMDL
MODEL 5
REMARK VINA RESULT:      -9.1      3.260     10.634
REMARK  4 active torsions:
REMARK  status: ('A' for Active; 'I' for Inactive)
REMARK    1  A    between atoms: C_5  and  N_6 
REMARK       I    between atoms: N_6  and  C_7 
REMARK    2  A    between atoms: C_7  and  C_8 
REMARK    3  A    between atoms: C_12  and  C_13 
REMARK    4  A    between atoms: N_24  and  C_25 
ROOT
HETATM    1  N   UNL     1      -2.501   7.096 -30.069  1.00  0.00    -0.348 N 
HETATM    2  C   UNL     1      -1.193   7.501 -30.125  1.00  0.00     0.257 C 
HETATM    3  O   UNL     1      -0.545   7.484 -31.171  1.00  0.00    -0.267 OA
HETATM    4  H   UNL     1      -3.009   7.175 -29.187  1.00  0.00     0.163 HD
ENDROOT
BRANCH   1   5
HETATM    5  C   UNL     1      -3.198   6.654 -31.256  1.00  0.00     0.122 C 
HETATM    6  C   UNL     1      -4.617   7.256 -31.384  1.00  0.00     0.039 C 
HETATM    7  C   UNL     1      -5.728   6.516 -30.580  1.00  0.00    -0.040 C 
HETATM    8  C   UNL     1      -7.088   7.148 -30.944  1.00  0.00     0.015 C 
HETATM    9  C   UNL     1      -5.525   6.693 -29.061  1.00  0.00     0.015 C 
HETATM   10  C   UNL     1      -5.777   4.995 -30.928  1.00  0.00     0.069 C 
HETATM   11  C   UNL     1      -4.411   4.414 -31.106  1.00  0.00     0.047 A 
HETATM   12  C   UNL     1      -3.260   5.169 -31.267  1.00  0.00     0.008 A 
HETATM   13  N   UNL     1      -4.056   3.088 -31.346  1.00  0.00    -0.238 N 
HETATM   14  C   UNL     1      -2.253   4.239 -31.537  1.00  0.00     0.150 A 
HETATM   15  N   UNL     1      -2.717   2.996 -31.604  1.00  0.00    -0.179 NA
BRANCH  13  16
HETATM   16  C   UNL     1      -4.846   1.898 -31.420  1.00  0.00     0.058 A 
HETATM   17  C   UNL     1      -4.961   1.245 -32.663  1.00  0.00     0.031 A 
HETATM   18  C   UNL     1      -5.746   0.098 -32.802  1.00  0.00     0.002 A 
HETATM   19  C   UNL     1      -6.409  -0.428 -31.699  1.00  0.00     0.000 A 
HETATM   20  C   UNL     1      -6.282   0.190 -30.457  1.00  0.00     0.002 A 
HETATM   21  C   UNL     1      -5.506   1.347 -30.318  1.00  0.00     0.031 A 
ENDBRANCH  13  16
ENDBRANCH   1   5
BRANCH   2  22
HETATM   22  C   UNL     1      -0.580   7.955 -28.844  1.00  0.00     0.100 A 
HETATM   23  C   UNL     1      -1.352   8.503 -27.687  1.00  0.00     0.261 A 
HETATM   24  O   UNL     1      -2.574   8.629 -27.719  1.00  0.00    -0.267 OA
HETATM   25  N   UNL     1      -0.622   8.861 -26.576  1.00  0.00    -0.322 N 
HETATM   26  C   UNL     1       0.742   8.739 -26.477  1.00  0.00     0.045 A 
HETATM   27  H   UNL     1      -1.147   9.222 -25.788  1.00  0.00     0.169 HD
HETATM   28  C   UNL     1       1.443   8.256 -27.513  1.00  0.00     0.031 A 
HETATM   29  C   UNL     1       0.758   7.859 -28.723  1.00  0.00     0.025 A 
BRANCH  26  30
HETATM   30  C   UNL     1       1.403   9.146 -25.235  1.00  0.00    -0.009 A 
HETATM   31  C   UNL     1       2.747   8.824 -25.011  1.00  0.00     0.013 A 
HETATM   32  C   UNL     1       3.366   9.181 -23.812  1.00  0.00     0.001 A 
HETATM   33  C   UNL     1       2.647   9.863 -22.831  1.00  0.00     0.000 A 
HETATM   34  C   UNL     1       1.310  10.191 -23.048  1.00  0.00     0.001 A 
HETATM   35  C   UNL     1       0.689   9.833 -24.246  1.00  0.00     0.013 A 
ENDBRANCH  26  30
ENDBRANCH   2  22
TORSDOF 4
ENDMDL
MODEL 6
REMARK VINA RESULT:      -9.1      5.674      8.513
REMARK  4 active torsions:
REMARK  status: ('A' for Active; 'I' for Inactive)
REMARK    1  A    between atoms: C_5  and  N_6 
REMARK       I    between atoms: N_6  and  C_7 
REMARK    2  A    between atoms: C_7  and  C_8 
REMARK    3  A    between atoms: C_12  and  C_13 
REMARK    4  A    between atoms: N_24  and  C_25 
ROOT
HETATM    1  N   UNL     1      -9.459   3.023 -32.710  1.00  0.00    -0.348 N 
HETATM    2  C   UNL     1      -8.102   2.871 -32.592  1.00  0.00     0.257 C 
HETATM    3  O   UNL     1      -7.369   3.789 -32.227  1.00  0.00    -0.267 OA
HETATM    4  H   UNL     1     -10.029   2.218 -32.970  1.00  0.00     0.163 HD
ENDROOT
BRANCH   1   5
HETATM    5  C   UNL     1     -10.103   4.275 -32.378  1.00  0.00     0.122 C 
HETATM    6  C   UNL     1     -11.416   4.087 -31.583  1.00  0.00     0.039 C 
HETATM    7  C   UNL     1     -12.678   3.785 -32.446  1.00  0.00    -0.040 C 
HETATM    8  C   UNL     1     -13.910   3.785 -31.517  1.00  0.00     0.015 C 
HETATM    9  C   UNL     1     -12.585   2.389 -33.096  1.00  0.00     0.015 C 
HETATM   10  C   UNL     1     -12.892   4.865 -33.554  1.00  0.00     0.069 C 
HETATM   11  C   UNL     1     -11.602   5.304 -34.168  1.00  0.00     0.047 A 
HETATM   12  C   UNL     1     -10.353   5.046 -33.623  1.00  0.00     0.008 A 
HETATM   13  N   UNL     1     -11.401   6.187 -35.227  1.00  0.00    -0.238 N 
HETATM   14  C   UNL     1      -9.455   5.747 -34.431  1.00  0.00     0.150 A 
HETATM   15  N   UNL     1     -10.067   6.445 -35.381  1.00  0.00    -0.179 NA
BRANCH  13  16
HETATM   16  C   UNL     1     -12.327   6.867 -36.078  1.00  0.00     0.058 A 
HETATM   17  C   UNL     1     -11.982   8.144 -36.561  1.00  0.00     0.031 A 
HETATM   18  C   UNL     1     -12.862   8.869 -37.369  1.00  0.00     0.002 A 
HETATM   19  C   UNL     1     -14.089   8.321 -37.726  1.00  0.00     0.000 A 
HETATM   20  C   UNL     1     -14.432   7.047 -37.280  1.00  0.00     0.002 A 
HETATM   21  C   UNL     1     -13.558   6.324 -36.459  1.00  0.00     0.031 A 
ENDBRANCH  13  16
ENDBRANCH   1   5
BRANCH   2  22
HETATM   22  C   UNL     1      -7.549   1.533 -32.943  1.00  0.00     0.100 A 
HETATM   23  C   UNL     1      -6.949   0.582 -31.956  1.00  0.00     0.261 A 
HETATM   24  O   UNL     1      -6.861   0.852 -30.761  1.00  0.00    -0.267 OA
HETATM   25  N   UNL     1      -6.499  -0.620 -32.457  1.00  0.00    -0.322 N 
HETATM   26  C   UNL     1      -6.575  -0.981 -33.779  1.00  0.00     0.045 A 
HETATM   27  H   UNL     1      -6.102  -1.267 -31.787  1.00  0.00     0.169 HD
HETATM   28  C   UNL     1      -7.103  -0.131 -34.672  1.00  0.00     0.031 A 
HETATM   29  C   UNL     1      -7.598   1.155 -34.235  1.00  0.00     0.025 A 
BRANCH  26  30
HETATM   30  C   UNL     1      -6.069  -2.294 -34.186  1.00  0.00    -0.009 A 
HETATM   31  C   UNL     1      -6.935  -3.244 -34.742  1.00  0.00     0.013 A 
HETATM   32  C   UNL     1      -6.460  -4.507 -35.096  1.00  0.00     0.001 A 
HETATM   33  C   UNL     1      -5.117  -4.829 -34.899  1.00  0.00     0.000 A 
HETATM   34  C   UNL     1      -4.247  -3.888 -34.350  1.00  0.00     0.001 A 
HETATM   35  C   UNL     1      -4.722  -2.624 -33.993  1.00  0.00     0.013 A 
ENDBRANCH  26  30
ENDBRANCH   2  22
TORSDOF 4
ENDMDL
MODEL 7
REMARK VINA RESULT:      -8.9      4.298      6.230
REMARK  4 active torsions:
REMARK  status: ('A' for Active; 'I' for Inactive)
REMARK    1  A    between atoms: C_5  and  N_6 
REMARK       I    between atoms: N_6  and  C_7 
REMARK    2  A    between atoms: C_7  and  C_8 
REMARK    3  A    between atoms: C_12  and  C_13 
REMARK    4  A    between atoms: N_24  and  C_25 
ROOT
HETATM    1  N   UNL     1      -7.402   3.790 -32.553  1.00  0.00    -0.348 N 
HETATM    2  C   UNL     1      -6.648   3.405 -33.631  1.00  0.00     0.257 C 
HETATM    3  O   UNL     1      -6.238   4.210 -34.466  1.00  0.00    -0.267 OA
HETATM    4  H   UNL     1      -7.678   3.090 -31.864  1.00  0.00     0.163 HD
ENDROOT
BRANCH   1   5
HETATM    5  C   UNL     1      -7.729   5.181 -32.328  1.00  0.00     0.122 C 
HETATM    6  C   UNL     1      -7.041   5.769 -31.075  1.00  0.00     0.039 C 
HETATM    7  C   UNL     1      -7.765   5.486 -29.724  1.00  0.00    -0.040 C 
HETATM    8  C   UNL     1      -7.036   6.269 -28.613  1.00  0.00     0.015 C 
HETATM    9  C   UNL     1      -7.696   3.988 -29.360  1.00  0.00     0.015 C 
HETATM   10  C   UNL     1      -9.256   5.947 -29.761  1.00  0.00     0.069 C 
HETATM   11  C   UNL     1      -9.901   5.660 -31.079  1.00  0.00     0.047 A 
HETATM   12  C   UNL     1      -9.205   5.331 -32.231  1.00  0.00     0.008 A 
HETATM   13  N   UNL     1     -11.228   5.859 -31.457  1.00  0.00    -0.238 N 
HETATM   14  C   UNL     1     -10.171   5.288 -33.238  1.00  0.00     0.150 A 
HETATM   15  N   UNL     1     -11.379   5.617 -32.794  1.00  0.00    -0.179 NA
BRANCH  13  16
HETATM   16  C   UNL     1     -12.364   6.309 -30.715  1.00  0.00     0.058 A 
HETATM   17  C   UNL     1     -12.534   7.694 -30.524  1.00  0.00     0.031 A 
HETATM   18  C   UNL     1     -13.607   8.191 -29.778  1.00  0.00     0.002 A 
HETATM   19  C   UNL     1     -14.538   7.313 -29.233  1.00  0.00     0.000 A 
HETATM   20  C   UNL     1     -14.399   5.943 -29.438  1.00  0.00     0.002 A 
HETATM   21  C   UNL     1     -13.318   5.442 -30.173  1.00  0.00     0.031 A 
ENDBRANCH  13  16
ENDBRANCH   1   5
BRANCH   2  22
HETATM   22  C   UNL     1      -6.356   1.949 -33.754  1.00  0.00     0.100 A 
HETATM   23  C   UNL     1      -5.475   1.183 -32.819  1.00  0.00     0.261 A 
HETATM   24  O   UNL     1      -4.910   1.719 -31.869  1.00  0.00    -0.267 OA
HETATM   25  N   UNL     1      -5.328  -0.162 -33.077  1.00  0.00    -0.322 N 
HETATM   26  C   UNL     1      -5.937  -0.819 -34.118  1.00  0.00     0.045 A 
HETATM   27  H   UNL     1      -4.740  -0.682 -32.437  1.00  0.00     0.169 HD
HETATM   28  C   UNL     1      -6.722  -0.138 -34.966  1.00  0.00     0.031 A 
HETATM   29  C   UNL     1      -6.929   1.280 -34.773  1.00  0.00     0.025 A 
BRANCH  26  30
HETATM   30  C   UNL     1      -5.709  -2.256 -34.280  1.00  0.00    -0.009 A 
HETATM   31  C   UNL     1      -4.452  -2.808 -34.008  1.00  0.00     0.013 A 
HETATM   32  C   UNL     1      -4.225  -4.172 -34.197  1.00  0.00     0.001 A 
HETATM   33  C   UNL     1      -5.254  -4.993 -34.658  1.00  0.00     0.000 A 
HETATM   34  C   UNL     1      -6.510  -4.453 -34.928  1.00  0.00     0.001 A 
HETATM   35  C   UNL     1      -6.737  -3.088 -34.741  1.00  0.00     0.013 A 
ENDBRANCH  26  30
ENDBRANCH   2  22
TORSDOF 4
ENDMDL
MODEL 8
REMARK VINA RESULT:      -8.6     17.903     20.829
REMARK  4 active torsions:
REMARK  status: ('A' for Active; 'I' for Inactive)
REMARK    1  A    between atoms: C_5  and  N_6 
REMARK       I    between atoms: N_6  and  C_7 
REMARK    2  A    between atoms: C_7  and  C_8 
REMARK    3  A    between atoms: C_12  and  C_13 
REMARK    4  A    between atoms: N_24  and  C_25 
ROOT
HETATM    1  N   UNL     1      -6.089 -13.331 -37.057  1.00  0.00    -0.348 N 
HETATM    2  C   UNL     1      -5.137 -13.229 -36.077  1.00  0.00     0.257 C 
HETATM    3  O   UNL     1      -4.129 -12.537 -36.211  1.00  0.00    -0.267 OA
HETATM    4  H   UNL     1      -6.930 -13.881 -36.879  1.00  0.00     0.163 HD
ENDROOT
BRANCH   1   5
HETATM    5  C   UNL     1      -5.967 -12.598 -38.298  1.00  0.00     0.122 C 
HETATM    6  C   UNL     1      -7.317 -12.038 -38.805  1.00  0.00     0.039 C 
HETATM    7  C   UNL     1      -8.195 -13.046 -39.606  1.00  0.00    -0.040 C 
HETATM    8  C   UNL     1      -9.416 -12.285 -40.164  1.00  0.00     0.015 C 
HETATM    9  C   UNL     1      -8.725 -14.170 -38.692  1.00  0.00     0.015 C 
HETATM   10  C   UNL     1      -7.411 -13.672 -40.803  1.00  0.00     0.069 C 
HETATM   11  C   UNL     1      -5.989 -13.970 -40.448  1.00  0.00     0.047 A 
HETATM   12  C   UNL     1      -5.345 -13.471 -39.328  1.00  0.00     0.008 A 
HETATM   13  N   UNL     1      -5.014 -14.594 -41.225  1.00  0.00    -0.238 N 
HETATM   14  C   UNL     1      -4.016 -13.878 -39.462  1.00  0.00     0.150 A 
HETATM   15  N   UNL     1      -3.801 -14.534 -40.597  1.00  0.00    -0.179 NA
BRANCH  13  16
HETATM   16  C   UNL     1      -5.079 -15.190 -42.523  1.00  0.00     0.058 A 
HETATM   17  C   UNL     1      -4.181 -14.744 -43.512  1.00  0.00     0.031 A 
HETATM   18  C   UNL     1      -4.220 -15.266 -44.807  1.00  0.00     0.002 A 
HETATM   19  C   UNL     1      -5.141 -16.258 -45.128  1.00  0.00     0.000 A 
HETATM   20  C   UNL     1      -6.017 -16.729 -44.153  1.00  0.00     0.002 A 
HETATM   21  C   UNL     1      -5.988 -16.198 -42.858  1.00  0.00     0.031 A 
ENDBRANCH  13  16
ENDBRANCH   1   5
BRANCH   2  22
HETATM   22  C   UNL     1      -5.375 -14.014 -34.833  1.00  0.00     0.100 A 
HETATM   23  C   UNL     1      -6.602 -13.902 -33.986  1.00  0.00     0.261 A 
HETATM   24  O   UNL     1      -7.515 -13.128 -34.260  1.00  0.00    -0.267 OA
HETATM   25  N   UNL     1      -6.658 -14.716 -32.876  1.00  0.00    -0.322 N 
HETATM   26  C   UNL     1      -5.674 -15.605 -32.520  1.00  0.00     0.045 A 
HETATM   27  H   UNL     1      -7.494 -14.648 -32.308  1.00  0.00     0.169 HD
HETATM   28  C   UNL     1      -4.566 -15.706 -33.270  1.00  0.00     0.031 A 
HETATM   29  C   UNL     1      -4.421 -14.885 -34.451  1.00  0.00     0.025 A 
BRANCH  26  30
HETATM   30  C   UNL     1      -5.857 -16.424 -31.320  1.00  0.00    -0.009 A 
HETATM   31  C   UNL     1      -6.702 -17.540 -31.348  1.00  0.00     0.013 A 
HETATM   32  C   UNL     1      -6.904 -18.299 -30.194  1.00  0.00     0.001 A 
HETATM   33  C   UNL     1      -6.262 -17.949 -29.006  1.00  0.00     0.000 A 
HETATM   34  C   UNL     1      -5.416 -16.841 -28.971  1.00  0.00     0.001 A 
HETATM   35  C   UNL     1      -5.215 -16.079 -30.124  1.00  0.00     0.013 A 
ENDBRANCH  26  30
ENDBRANCH   2  22
TORSDOF 4
ENDMDL
MODEL 9
REMARK VINA RESULT:      -8.5      1.664      2.497
REMARK  4 active torsions:
REMARK  status: ('A' for Active; 'I' for Inactive)
REMARK    1  A    between atoms: C_5  and  N_6 
REMARK       I    between atoms: N_6  and  C_7 
REMARK    2  A    between atoms: C_7  and  C_8 
REMARK    3  A    between atoms: C_12  and  C_13 
REMARK    4  A    between atoms: N_24  and  C_25 
ROOT
HETATM    1  N   UNL     1      -3.591   5.660 -31.939  1.00  0.00    -0.348 N 
HETATM    2  C   UNL     1      -4.741   5.447 -32.654  1.00  0.00     0.257 C 
HETATM    3  O   UNL     1      -5.474   6.369 -33.008  1.00  0.00    -0.267 OA
HETATM    4  H   UNL     1      -2.993   4.866 -31.711  1.00  0.00     0.163 HD
ENDROOT
BRANCH   1   5
HETATM    5  C   UNL     1      -3.165   6.997 -31.590  1.00  0.00     0.122 C 
HETATM    6  C   UNL     1      -1.652   7.226 -31.809  1.00  0.00     0.039 C 
HETATM    7  C   UNL     1      -0.732   6.741 -30.648  1.00  0.00    -0.040 C 
HETATM    8  C   UNL     1       0.713   7.185 -30.960  1.00  0.00     0.015 C 
HETATM    9  C   UNL     1      -0.733   5.201 -30.546  1.00  0.00     0.015 C 
HETATM   10  C   UNL     1      -1.157   7.357 -29.278  1.00  0.00     0.069 C 
HETATM   11  C   UNL     1      -2.643   7.429 -29.131  1.00  0.00     0.047 A 
HETATM   12  C   UNL     1      -3.537   7.281 -30.179  1.00  0.00     0.008 A 
HETATM   13  N   UNL     1      -3.387   7.845 -28.027  1.00  0.00    -0.238 N 
HETATM   14  C   UNL     1      -4.790   7.558 -29.628  1.00  0.00     0.150 A 
HETATM   15  N   UNL     1      -4.713   7.913 -28.350  1.00  0.00    -0.179 NA
BRANCH  13  16
HETATM   16  C   UNL     1      -2.985   8.246 -26.715  1.00  0.00     0.058 A 
HETATM   17  C   UNL     1      -1.732   8.871 -26.558  1.00  0.00     0.031 A 
HETATM   18  C   UNL     1      -1.273   9.254 -25.296  1.00  0.00     0.002 A 
HETATM   19  C   UNL     1      -2.066   9.039 -24.174  1.00  0.00     0.000 A 
HETATM   20  C   UNL     1      -3.319   8.448 -24.316  1.00  0.00     0.002 A 
HETATM   21  C   UNL     1      -3.776   8.052 -25.579  1.00  0.00     0.031 A 
ENDBRANCH  13  16
ENDBRANCH   1   5
BRANCH   2  22
HETATM   22  C   UNL     1      -5.073   4.030 -32.975  1.00  0.00     0.100 A 
HETATM   23  C   UNL     1      -6.240   3.604 -33.807  1.00  0.00     0.261 A 
HETATM   24  O   UNL     1      -7.030   4.413 -34.286  1.00  0.00    -0.267 OA
HETATM   25  N   UNL     1      -6.387   2.249 -34.012  1.00  0.00    -0.322 N 
HETATM   26  C   UNL     1      -5.535   1.297 -33.508  1.00  0.00     0.045 A 
HETATM   27  H   UNL     1      -7.171   1.962 -34.584  1.00  0.00     0.169 HD
HETATM   28  C   UNL     1      -4.491   1.670 -32.754  1.00  0.00     0.031 A 
HETATM   29  C   UNL     1      -4.263   3.071 -32.484  1.00  0.00     0.025 A 
BRANCH  26  30
HETATM   30  C   UNL     1      -5.793  -0.114 -33.806  1.00  0.00    -0.009 A 
HETATM   31  C   UNL     1      -4.766  -1.059 -33.694  1.00  0.00     0.013 A 
HETATM   32  C   UNL     1      -5.003  -2.397 -34.013  1.00  0.00     0.001 A 
HETATM   33  C   UNL     1      -6.268  -2.799 -34.443  1.00  0.00     0.000 A 
HETATM   34  C   UNL     1      -7.297  -1.865 -34.553  1.00  0.00     0.001 A 
HETATM   35  C   UNL     1      -7.060  -0.526 -34.237  1.00  0.00     0.013 A 
ENDBRANCH  26  30
ENDBRANCH   2  22
TORSDOF 4
ENDMDL
MODEL 10
REMARK VINA RESULT:      -8.3      5.997     10.181
REMARK  4 active torsions:
REMARK  status: ('A' for Active; 'I' for Inactive)
REMARK    1  A    between atoms: C_5  and  N_6 
REMARK       I    between atoms: N_6  and  C_7 
REMARK    2  A    between atoms: C_7  and  C_8 
REMARK    3  A    between atoms: C_12  and  C_13 
REMARK    4  A    between atoms: N_24  and  C_25 
ROOT
HETATM    1  N   UNL     1      -9.723   3.536 -32.948  1.00  0.00    -0.348 N 
HETATM    2  C   UNL     1     -10.852   4.217 -32.571  1.00  0.00     0.257 C 
HETATM    3  O   UNL     1     -11.260   4.220 -31.411  1.00  0.00    -0.267 OA
HETATM    4  H   UNL     1      -9.400   3.604 -33.913  1.00  0.00     0.163 HD
ENDROOT
BRANCH   1   5
HETATM    5  C   UNL     1      -8.933   2.806 -31.981  1.00  0.00     0.122 C 
HETATM    6  C   UNL     1      -7.666   3.572 -31.534  1.00  0.00     0.039 C 
HETATM    7  C   UNL     1      -6.439   3.438 -32.485  1.00  0.00    -0.040 C 
HETATM    8  C   UNL     1      -5.231   4.126 -31.814  1.00  0.00     0.015 C 
HETATM    9  C   UNL     1      -6.696   4.154 -33.827  1.00  0.00     0.015 C 
HETATM   10  C   UNL     1      -6.074   1.943 -32.751  1.00  0.00     0.069 C 
HETATM   11  C   UNL     1      -7.290   1.087 -32.905  1.00  0.00     0.047 A 
HETATM   12  C   UNL     1      -8.569   1.479 -32.542  1.00  0.00     0.008 A 
HETATM   13  N   UNL     1      -7.363  -0.268 -33.222  1.00  0.00    -0.238 N 
HETATM   14  C   UNL     1      -9.361   0.342 -32.722  1.00  0.00     0.150 A 
HETATM   15  N   UNL     1      -8.651  -0.711 -33.111  1.00  0.00    -0.179 NA
BRANCH  13  16
HETATM   16  C   UNL     1      -6.346  -1.214 -33.562  1.00  0.00     0.058 A 
HETATM   17  C   UNL     1      -6.598  -2.123 -34.608  1.00  0.00     0.031 A 
HETATM   18  C   UNL     1      -5.654  -3.091 -34.962  1.00  0.00     0.002 A 
HETATM   19  C   UNL     1      -4.436  -3.150 -34.293  1.00  0.00     0.000 A 
HETATM   20  C   UNL     1      -4.162  -2.241 -33.276  1.00  0.00     0.002 A 
HETATM   21  C   UNL     1      -5.111  -1.278 -32.910  1.00  0.00     0.031 A 
ENDBRANCH  13  16
ENDBRANCH   1   5
BRANCH   2  22
HETATM   22  C   UNL     1     -11.578   4.949 -33.647  1.00  0.00     0.100 A 
HETATM   23  C   UNL     1     -12.708   4.379 -34.443  1.00  0.00     0.261 A 
HETATM   24  O   UNL     1     -13.117   3.234 -34.266  1.00  0.00    -0.267 OA
HETATM   25  N   UNL     1     -13.271   5.205 -35.390  1.00  0.00    -0.322 N 
HETATM   26  C   UNL     1     -12.862   6.493 -35.631  1.00  0.00     0.045 A 
HETATM   27  H   UNL     1     -14.043   4.821 -35.922  1.00  0.00     0.169 HD
HETATM   28  C   UNL     1     -11.844   7.010 -34.927  1.00  0.00     0.031 A 
HETATM   29  C   UNL     1     -11.191   6.212 -33.915  1.00  0.00     0.025 A 
BRANCH  26  30
HETATM   30  C   UNL     1     -13.550   7.276 -36.660  1.00  0.00    -0.009 A 
HETATM   31  C   UNL     1     -14.915   7.080 -36.902  1.00  0.00     0.013 A 
HETATM   32  C   UNL     1     -15.562   7.800 -37.908  1.00  0.00     0.001 A 
HETATM   33  C   UNL     1     -14.849   8.721 -38.676  1.00  0.00     0.000 A 
HETATM   34  C   UNL     1     -13.491   8.924 -38.439  1.00  0.00     0.001 A 
HETATM   35  C   UNL     1     -12.842   8.203 -37.435  1.00  0.00     0.013 A 
ENDBRANCH  26  30
ENDBRANCH   2  22
TORSDOF 4
ENDMDL
