MODEL 1
REMARK VINA RESULT:      -8.5      0.000      0.000
REMARK  3 active torsions:
REMARK  status: ('A' for Active; 'I' for Inactive)
REMARK    1  A    between atoms: C_4  and  C_5 
REMARK    2  A    between atoms: C_9  and  C_10 
REMARK       I    between atoms: C_10  and  N_11 
REMARK    3  A    between atoms: N_11  and  C_12 
ROOT
HETATM    1  C   UNL     1      -4.802   3.403 -32.317  1.00  0.00     0.276 C 
HETATM    2  N   UNL     1      -3.709   3.617 -33.129  1.00  0.00    -0.317 N 
HETATM    3  O   UNL     1      -5.309   4.233 -31.568  1.00  0.00    -0.266 OA
HETATM    4  H   UNL     1      -3.414   2.805 -33.676  1.00  0.00     0.169 HD
ENDROOT
BRANCH   1   5
HETATM    5  C   UNL     1      -5.320   2.029 -32.422  1.00  0.00     0.147 A 
HETATM    6  N   UNL     1      -6.358   1.598 -31.678  1.00  0.00    -0.169 NA
HETATM    7  N   UNL     1      -6.520   0.320 -32.062  1.00  0.00    -0.277 N 
HETATM    8  C   UNL     1      -5.659  -0.097 -33.046  1.00  0.00     0.063 A 
HETATM    9  H   UNL     1      -7.244  -0.224 -31.605  1.00  0.00     0.189 HD
HETATM   10  C   UNL     1      -4.852   1.002 -33.277  1.00  0.00     0.071 A 
BRANCH   8  11
HETATM   11  C   UNL     1      -5.667  -1.437 -33.637  1.00  0.00    -0.008 A 
HETATM   12  C   UNL     1      -6.841  -2.006 -34.155  1.00  0.00     0.014 A 
HETATM   13  C   UNL     1      -6.829  -3.283 -34.725  1.00  0.00     0.001 A 
HETATM   14  C   UNL     1      -5.642  -4.009 -34.790  1.00  0.00     0.000 A 
HETATM   15  C   UNL     1      -4.468  -3.459 -34.285  1.00  0.00     0.001 A 
HETATM   16  C   UNL     1      -4.481  -2.183 -33.714  1.00  0.00     0.014 A 
ENDBRANCH   8  11
ENDBRANCH   1   5
BRANCH   2  17
HETATM   17  C   UNL     1      -2.951   4.755 -33.279  1.00  0.00     0.102 A 
HETATM   18  C   UNL     1      -1.846   4.964 -32.266  1.00  0.00     0.218 A 
HETATM   19  O   UNL     1      -1.666   4.129 -31.380  1.00  0.00    -0.284 OA
HETATM   20  C   UNL     1      -1.009   6.207 -32.387  1.00  0.00     0.078 A 
HETATM   21 BR   UNL     1       0.346   6.528 -31.156  1.00  0.00    -0.045 Br
HETATM   22  C   UNL     1      -1.294   7.041 -33.398  1.00  0.00     0.111 A 
HETATM   23  N   UNL     1      -2.295   6.812 -34.305  1.00  0.00    -0.372 N 
HETATM   24  C   UNL     1      -3.091   5.697 -34.225  1.00  0.00     0.121 A 
HETATM   25  H   UNL     1      -2.469   7.488 -35.045  1.00  0.00     0.164 HD
ENDBRANCH   2  17
TORSDOF 3
ENDMDL
MODEL 2
REMARK VINA RESULT:      -8.3      1.867      2.271
REMARK  3 active torsions:
REMARK  status: ('A' for Active; 'I' for Inactive)
REMARK    1  A    between atoms: C_4  and  C_5 
REMARK    2  A    between atoms: C_9  and  C_10 
REMARK       I    between atoms: C_10  and  N_11 
REMARK    3  A    between atoms: N_11  and  C_12 
ROOT
HETATM    1  C   UNL     1      -5.951   2.724 -33.281  1.00  0.00     0.276 C 
HETATM    2  N   UNL     1      -4.812   2.790 -32.507  1.00  0.00    -0.317 N 
HETATM    3  O   UNL     1      -6.725   3.652 -33.493  1.00  0.00    -0.266 OA
HETATM    4  H   UNL     1      -4.293   1.912 -32.430  1.00  0.00     0.169 HD
ENDROOT
BRANCH   1   5
HETATM    5  C   UNL     1      -6.171   1.381 -33.843  1.00  0.00     0.147 A 
HETATM    6  N   UNL     1      -7.048   1.159 -34.842  1.00  0.00    -0.169 NA
HETATM    7  N   UNL     1      -6.956  -0.164 -35.063  1.00  0.00    -0.277 N 
HETATM    8  C   UNL     1      -6.036  -0.814 -34.280  1.00  0.00     0.063 A 
HETATM    9  H   UNL     1      -7.558  -0.568 -35.771  1.00  0.00     0.189 HD
HETATM   10  C   UNL     1      -5.530   0.177 -33.459  1.00  0.00     0.071 A 
BRANCH   8  11
HETATM   11  C   UNL     1      -5.745  -2.247 -34.363  1.00  0.00    -0.008 A 
HETATM   12  C   UNL     1      -6.722  -3.174 -34.761  1.00  0.00     0.014 A 
HETATM   13  C   UNL     1      -6.424  -4.538 -34.845  1.00  0.00     0.001 A 
HETATM   14  C   UNL     1      -5.145  -4.996 -34.535  1.00  0.00     0.000 A 
HETATM   15  C   UNL     1      -4.165  -4.090 -34.143  1.00  0.00     0.001 A 
HETATM   16  C   UNL     1      -4.463  -2.727 -34.058  1.00  0.00     0.014 A 
ENDBRANCH   8  11
ENDBRANCH   1   5
BRANCH   2  17
HETATM   17  C   UNL     1      -4.301   3.859 -31.808  1.00  0.00     0.102 A 
HETATM   18  C   UNL     1      -2.996   4.432 -32.318  1.00  0.00     0.218 A 
HETATM   19  O   UNL     1      -2.464   3.942 -33.314  1.00  0.00    -0.284 OA
HETATM   20  C   UNL     1      -2.397   5.589 -31.568  1.00  0.00     0.078 A 
HETATM   21 BR   UNL     1      -0.784   6.317 -32.135  1.00  0.00    -0.045 Br
HETATM   22  C   UNL     1      -3.072   6.042 -30.501  1.00  0.00     0.111 A 
HETATM   23  N   UNL     1      -4.259   5.506 -30.076  1.00  0.00    -0.372 N 
HETATM   24  C   UNL     1      -4.835   4.441 -30.724  1.00  0.00     0.121 A 
HETATM   25  H   UNL     1      -4.719   5.888 -29.253  1.00  0.00     0.164 HD
ENDBRANCH   2  17
TORSDOF 3
ENDMDL
MODEL 3
REMARK VINA RESULT:      -8.0      5.569      7.264
REMARK  3 active torsions:
REMARK  status: ('A' for Active; 'I' for Inactive)
REMARK    1  A    between atoms: C_4  and  C_5 
REMARK    2  A    between atoms: C_9  and  C_10 
REMARK       I    between atoms: C_10  and  N_11 
REMARK    3  A    between atoms: N_11  and  C_12 
ROOT
HETATM    1  C   UNL     1      -8.305   1.924 -33.750  1.00  0.00     0.276 C 
HETATM    2  N   UNL     1      -9.496   1.527 -34.318  1.00  0.00    -0.317 N 
HETATM    3  O   UNL     1      -8.094   3.010 -33.219  1.00  0.00    -0.266 OA
HETATM    4  H   UNL     1      -9.486   0.591 -34.728  1.00  0.00     0.169 HD
ENDROOT
BRANCH   1   5
HETATM    5  C   UNL     1      -7.261   0.891 -33.852  1.00  0.00     0.147 A 
HETATM    6  N   UNL     1      -5.954   1.175 -33.687  1.00  0.00    -0.169 NA
HETATM    7  N   UNL     1      -5.343  -0.010 -33.853  1.00  0.00    -0.277 N 
HETATM    8  C   UNL     1      -6.190  -1.064 -34.086  1.00  0.00     0.063 A 
HETATM    9  H   UNL     1      -4.331  -0.033 -33.798  1.00  0.00     0.189 HD
HETATM   10  C   UNL     1      -7.447  -0.490 -34.111  1.00  0.00     0.071 A 
BRANCH   8  11
HETATM   11  C   UNL     1      -5.752  -2.450 -34.270  1.00  0.00    -0.008 A 
HETATM   12  C   UNL     1      -6.601  -3.423 -34.820  1.00  0.00     0.014 A 
HETATM   13  C   UNL     1      -6.163  -4.739 -34.998  1.00  0.00     0.001 A 
HETATM   14  C   UNL     1      -4.869  -5.102 -34.631  1.00  0.00     0.000 A 
HETATM   15  C   UNL     1      -4.013  -4.150 -34.088  1.00  0.00     0.001 A 
HETATM   16  C   UNL     1      -4.452  -2.834 -33.909  1.00  0.00     0.014 A 
ENDBRANCH   8  11
ENDBRANCH   1   5
BRANCH   2  17
HETATM   17  C   UNL     1     -10.675   2.226 -34.434  1.00  0.00     0.102 A 
HETATM   18  C   UNL     1     -11.914   1.546 -33.890  1.00  0.00     0.218 A 
HETATM   19  O   UNL     1     -11.820   0.434 -33.371  1.00  0.00    -0.284 OA
HETATM   20  C   UNL     1     -13.224   2.272 -34.017  1.00  0.00     0.078 A 
HETATM   21 BR   UNL     1     -14.781   1.475 -33.389  1.00  0.00    -0.045 Br
HETATM   22  C   UNL     1     -13.201   3.482 -34.595  1.00  0.00     0.111 A 
HETATM   23  N   UNL     1     -12.058   4.071 -35.064  1.00  0.00    -0.372 N 
HETATM   24  C   UNL     1     -10.842   3.440 -34.981  1.00  0.00     0.121 A 
HETATM   25  H   UNL     1     -12.107   4.989 -35.502  1.00  0.00     0.164 HD
ENDBRANCH   2  17
TORSDOF 3
ENDMDL
MODEL 4
REMARK VINA RESULT:      -7.9      3.821      8.234
REMARK  3 active torsions:
REMARK  status: ('A' for Active; 'I' for Inactive)
REMARK    1  A    between atoms: C_4  and  C_5 
REMARK    2  A    between atoms: C_9  and  C_10 
REMARK       I    between atoms: C_10  and  N_11 
REMARK    3  A    between atoms: N_11  and  C_12 
ROOT
HETATM    1  C   UNL     1      -4.579   0.030 -31.676  1.00  0.00     0.276 C 
HETATM    2  N   UNL     1      -3.767  -0.713 -32.506  1.00  0.00    -0.317 N 
HETATM    3  O   UNL     1      -5.550  -0.396 -31.059  1.00  0.00    -0.266 OA
HETATM    4  H   UNL     1      -3.011  -0.187 -32.951  1.00  0.00     0.169 HD
ENDROOT
BRANCH   1   5
HETATM    5  C   UNL     1      -4.168   1.442 -31.604  1.00  0.00     0.147 A 
HETATM    6  N   UNL     1      -4.605   2.265 -30.631  1.00  0.00    -0.169 NA
HETATM    7  N   UNL     1      -4.014   3.439 -30.913  1.00  0.00    -0.277 N 
HETATM    8  C   UNL     1      -3.183   3.416 -32.005  1.00  0.00     0.063 A 
HETATM    9  H   UNL     1      -4.223   4.230 -30.314  1.00  0.00     0.189 HD
HETATM   10  C   UNL     1      -3.290   2.123 -32.483  1.00  0.00     0.071 A 
BRANCH   8  11
HETATM   11  C   UNL     1      -2.414   4.567 -32.482  1.00  0.00    -0.008 A 
HETATM   12  C   UNL     1      -1.770   5.442 -31.593  1.00  0.00     0.014 A 
HETATM   13  C   UNL     1      -1.032   6.531 -32.068  1.00  0.00     0.001 A 
HETATM   14  C   UNL     1      -0.923   6.760 -33.437  1.00  0.00     0.000 A 
HETATM   15  C   UNL     1      -1.552   5.901 -34.332  1.00  0.00     0.001 A 
HETATM   16  C   UNL     1      -2.291   4.813 -33.858  1.00  0.00     0.014 A 
ENDBRANCH   8  11
ENDBRANCH   1   5
BRANCH   2  17
HETATM   17  C   UNL     1      -3.854  -2.045 -32.837  1.00  0.00     0.102 A 
HETATM   18  C   UNL     1      -4.876  -2.410 -33.893  1.00  0.00     0.218 A 
HETATM   19  O   UNL     1      -5.562  -1.526 -34.407  1.00  0.00    -0.284 OA
HETATM   20  C   UNL     1      -5.012  -3.860 -34.265  1.00  0.00     0.078 A 
HETATM   21 BR   UNL     1      -6.268  -4.368 -35.538  1.00  0.00    -0.045 Br
HETATM   22  C   UNL     1      -4.206  -4.731 -33.642  1.00  0.00     0.111 A 
HETATM   23  N   UNL     1      -3.282  -4.362 -32.700  1.00  0.00    -0.372 N 
HETATM   24  C   UNL     1      -3.133  -3.052 -32.320  1.00  0.00     0.121 A 
HETATM   25  H   UNL     1      -2.705  -5.072 -32.255  1.00  0.00     0.164 HD
ENDBRANCH   2  17
TORSDOF 3
ENDMDL
MODEL 5
REMARK VINA RESULT:      -7.7      3.453      7.989
REMARK  3 active torsions:
REMARK  status: ('A' for Active; 'I' for Inactive)
REMARK    1  A    between atoms: C_4  and  C_5 
REMARK    2  A    between atoms: C_9  and  C_10 
REMARK       I    between atoms: C_10  and  N_11 
REMARK    3  A    between atoms: N_11  and  C_12 
ROOT
HETATM    1  C   UNL     1      -4.995   0.816 -31.752  1.00  0.00     0.276 C 
HETATM    2  N   UNL     1      -4.667   0.340 -33.003  1.00  0.00    -0.317 N 
HETATM    3  O   UNL     1      -5.719   0.250 -30.939  1.00  0.00    -0.266 OA
HETATM    4  H   UNL     1      -4.061   0.955 -33.552  1.00  0.00     0.169 HD
ENDROOT
BRANCH   1   5
HETATM    5  C   UNL     1      -4.383   2.125 -31.470  1.00  0.00     0.147 A 
HETATM    6  N   UNL     1      -4.842   2.936 -30.497  1.00  0.00    -0.169 NA
HETATM    7  N   UNL     1      -4.033   4.007 -30.559  1.00  0.00    -0.277 N 
HETATM    8  C   UNL     1      -3.042   3.922 -31.505  1.00  0.00     0.063 A 
HETATM    9  H   UNL     1      -4.213   4.774 -29.922  1.00  0.00     0.189 HD
HETATM   10  C   UNL     1      -3.270   2.708 -32.126  1.00  0.00     0.071 A 
BRANCH   8  11
HETATM   11  C   UNL     1      -2.030   4.955 -31.735  1.00  0.00    -0.008 A 
HETATM   12  C   UNL     1      -2.009   5.717 -32.914  1.00  0.00     0.014 A 
HETATM   13  C   UNL     1      -1.040   6.706 -33.113  1.00  0.00     0.001 A 
HETATM   14  C   UNL     1      -0.080   6.951 -32.135  1.00  0.00     0.000 A 
HETATM   15  C   UNL     1      -0.088   6.208 -30.958  1.00  0.00     0.001 A 
HETATM   16  C   UNL     1      -1.055   5.219 -30.760  1.00  0.00     0.014 A 
ENDBRANCH   8  11
ENDBRANCH   1   5
BRANCH   2  17
HETATM   17  C   UNL     1      -5.066  -0.823 -33.619  1.00  0.00     0.102 A 
HETATM   18  C   UNL     1      -4.214  -2.047 -33.359  1.00  0.00     0.218 A 
HETATM   19  O   UNL     1      -3.233  -1.959 -32.620  1.00  0.00    -0.284 OA
HETATM   20  C   UNL     1      -4.609  -3.332 -34.030  1.00  0.00     0.078 A 
HETATM   21 BR   UNL     1      -3.585  -4.860 -33.766  1.00  0.00    -0.045 Br
HETATM   22  C   UNL     1      -5.702  -3.307 -34.807  1.00  0.00     0.111 A 
HETATM   23  N   UNL     1      -6.457  -2.182 -35.009  1.00  0.00    -0.372 N 
HETATM   24  C   UNL     1      -6.126  -0.985 -34.426  1.00  0.00     0.121 A 
HETATM   25  H   UNL     1      -7.271  -2.224 -35.618  1.00  0.00     0.164 HD
ENDBRANCH   2  17
TORSDOF 3
ENDMDL
MODEL 6
REMARK VINA RESULT:      -7.6      4.170      9.356
REMARK  3 active torsions:
REMARK  status: ('A' for Active; 'I' for Inactive)
REMARK    1  A    between atoms: C_4  and  C_5 
REMARK    2  A    between atoms: C_9  and  C_10 
REMARK       I    between atoms: C_10  and  N_11 
REMARK    3  A    between atoms: N_11  and  C_12 
ROOT
HETATM    1  C   UNL     1      -1.985   4.558 -31.851  1.00  0.00     0.276 C 
HETATM    2  N   UNL     1      -3.049   3.909 -31.263  1.00  0.00    -0.317 N 
HETATM    3  O   UNL     1      -1.739   4.583 -33.052  1.00  0.00    -0.266 OA
HETATM    4  H   UNL     1      -3.089   3.984 -30.244  1.00  0.00     0.169 HD
ENDROOT
BRANCH   1   5
HETATM    5  C   UNL     1      -1.126   5.236 -30.865  1.00  0.00     0.147 A 
HETATM    6  N   UNL     1       0.051   4.716 -30.465  1.00  0.00    -0.169 NA
HETATM    7  N   UNL     1       0.517   5.615 -29.582  1.00  0.00    -0.277 N 
HETATM    8  C   UNL     1      -0.282   6.718 -29.410  1.00  0.00     0.063 A 
HETATM    9  H   UNL     1       1.398   5.415 -29.122  1.00  0.00     0.189 HD
HETATM   10  C   UNL     1      -1.373   6.475 -30.225  1.00  0.00     0.071 A 
BRANCH   8  11
HETATM   11  C   UNL     1       0.036   7.838 -28.522  1.00  0.00    -0.008 A 
HETATM   12  C   UNL     1       1.281   7.940 -27.882  1.00  0.00     0.014 A 
HETATM   13  C   UNL     1       1.571   9.021 -27.044  1.00  0.00     0.001 A 
HETATM   14  C   UNL     1       0.622  10.020 -26.837  1.00  0.00     0.000 A 
HETATM   15  C   UNL     1      -0.615   9.937 -27.467  1.00  0.00     0.001 A 
HETATM   16  C   UNL     1      -0.906   8.855 -28.302  1.00  0.00     0.014 A 
ENDBRANCH   8  11
ENDBRANCH   1   5
BRANCH   2  17
HETATM   17  C   UNL     1      -4.038   3.157 -31.854  1.00  0.00     0.102 A 
HETATM   18  C   UNL     1      -3.847   1.656 -31.827  1.00  0.00     0.218 A 
HETATM   19  O   UNL     1      -2.850   1.179 -31.285  1.00  0.00    -0.284 OA
HETATM   20  C   UNL     1      -4.899   0.803 -32.480  1.00  0.00     0.078 A 
HETATM   21 BR   UNL     1      -4.703  -1.045 -32.499  1.00  0.00    -0.045 Br
HETATM   22  C   UNL     1      -5.944   1.436 -33.032  1.00  0.00     0.111 A 
HETATM   23  N   UNL     1      -6.091   2.798 -33.026  1.00  0.00    -0.372 N 
HETATM   24  C   UNL     1      -5.149   3.615 -32.452  1.00  0.00     0.121 A 
HETATM   25  H   UNL     1      -6.903   3.220 -33.470  1.00  0.00     0.164 HD
ENDBRANCH   2  17
TORSDOF 3
ENDMDL
MODEL 7
REMARK VINA RESULT:      -7.4      3.274      3.853
REMARK  3 active torsions:
REMARK  status: ('A' for Active; 'I' for Inactive)
REMARK    1  A    between atoms: C_4  and  C_5 
REMARK    2  A    between atoms: C_9  and  C_10 
REMARK       I    between atoms: C_10  and  N_11 
REMARK    3  A    between atoms: N_11  and  C_12 
ROOT
HETATM    1  C   UNL     1      -6.537   2.669 -33.411  1.00  0.00     0.276 C 
HETATM    2  N   UNL     1      -6.079   2.751 -32.113  1.00  0.00    -0.317 N 
HETATM    3  O   UNL     1      -6.802   3.623 -34.136  1.00  0.00    -0.266 OA
HETATM    4  H   UNL     1      -5.925   1.850 -31.655  1.00  0.00     0.169 HD
ENDROOT
BRANCH   1   5
HETATM    5  C   UNL     1      -6.700   1.278 -33.863  1.00  0.00     0.147 A 
HETATM    6  N   UNL     1      -7.753   0.886 -34.608  1.00  0.00    -0.169 NA
HETATM    7  N   UNL     1      -7.536  -0.425 -34.809  1.00  0.00    -0.277 N 
HETATM    8  C   UNL     1      -6.373  -0.904 -34.260  1.00  0.00     0.063 A 
HETATM    9  H   UNL     1      -8.230  -0.945 -35.334  1.00  0.00     0.189 HD
HETATM   10  C   UNL     1      -5.825   0.191 -33.618  1.00  0.00     0.071 A 
BRANCH   8  11
HETATM   11  C   UNL     1      -5.917  -2.292 -34.374  1.00  0.00    -0.008 A 
HETATM   12  C   UNL     1      -6.733  -3.293 -34.923  1.00  0.00     0.014 A 
HETATM   13  C   UNL     1      -6.278  -4.610 -35.033  1.00  0.00     0.001 A 
HETATM   14  C   UNL     1      -4.998  -4.946 -34.598  1.00  0.00     0.000 A 
HETATM   15  C   UNL     1      -4.174  -3.966 -34.055  1.00  0.00     0.001 A 
HETATM   16  C   UNL     1      -4.630  -2.649 -33.944  1.00  0.00     0.014 A 
ENDBRANCH   8  11
ENDBRANCH   1   5
BRANCH   2  17
HETATM   17  C   UNL     1      -5.833   3.869 -31.351  1.00  0.00     0.102 A 
HETATM   18  C   UNL     1      -6.965   4.339 -30.463  1.00  0.00     0.218 A 
HETATM   19  O   UNL     1      -8.027   3.716 -30.450  1.00  0.00    -0.284 OA
HETATM   20  C   UNL     1      -6.739   5.569 -29.629  1.00  0.00     0.078 A 
HETATM   21 BR   UNL     1      -8.103   6.206 -28.540  1.00  0.00    -0.045 Br
HETATM   22  C   UNL     1      -5.538   6.158 -29.722  1.00  0.00     0.111 A 
HETATM   23  N   UNL     1      -4.530   5.696 -30.527  1.00  0.00    -0.372 N 
HETATM   24  C   UNL     1      -4.698   4.585 -31.314  1.00  0.00     0.121 A 
HETATM   25  H   UNL     1      -3.644   6.194 -30.561  1.00  0.00     0.164 HD
ENDBRANCH   2  17
TORSDOF 3
ENDMDL
MODEL 8
REMARK VINA RESULT:      -7.3      3.608      4.440
REMARK  3 active torsions:
REMARK  status: ('A' for Active; 'I' for Inactive)
REMARK    1  A    between atoms: C_4  and  C_5 
REMARK    2  A    between atoms: C_9  and  C_10 
REMARK       I    between atoms: C_10  and  N_11 
REMARK    3  A    between atoms: N_11  and  C_12 
ROOT
HETATM    1  C   UNL     1      -6.393   2.502 -32.670  1.00  0.00     0.276 C 
HETATM    2  N   UNL     1      -6.926   3.564 -33.368  1.00  0.00    -0.317 N 
HETATM    3  O   UNL     1      -5.946   2.549 -31.529  1.00  0.00    -0.266 OA
HETATM    4  H   UNL     1      -7.238   3.342 -34.317  1.00  0.00     0.169 HD
ENDROOT
BRANCH   1   5
HETATM    5  C   UNL     1      -6.395   1.255 -33.454  1.00  0.00     0.147 A 
HETATM    6  N   UNL     1      -6.911   1.194 -34.698  1.00  0.00    -0.169 NA
HETATM    7  N   UNL     1      -6.723  -0.086 -35.062  1.00  0.00    -0.277 N 
HETATM    8  C   UNL     1      -6.079  -0.859 -34.129  1.00  0.00     0.063 A 
HETATM    9  H   UNL     1      -7.065  -0.375 -35.972  1.00  0.00     0.189 HD
HETATM   10  C   UNL     1      -5.877  -0.003 -33.061  1.00  0.00     0.071 A 
BRANCH   8  11
HETATM   11  C   UNL     1      -5.743  -2.273 -34.316  1.00  0.00    -0.008 A 
HETATM   12  C   UNL     1      -4.466  -2.772 -34.014  1.00  0.00     0.014 A 
HETATM   13  C   UNL     1      -4.166  -4.127 -34.190  1.00  0.00     0.001 A 
HETATM   14  C   UNL     1      -5.138  -5.003 -34.668  1.00  0.00     0.000 A 
HETATM   15  C   UNL     1      -6.409  -4.525 -34.969  1.00  0.00     0.001 A 
HETATM   16  C   UNL     1      -6.709  -3.171 -34.794  1.00  0.00     0.014 A 
ENDBRANCH   8  11
ENDBRANCH   1   5
BRANCH   2  17
HETATM   17  C   UNL     1      -7.067   4.874 -32.976  1.00  0.00     0.102 A 
HETATM   18  C   UNL     1      -8.413   5.262 -32.400  1.00  0.00     0.218 A 
HETATM   19  O   UNL     1      -9.298   4.413 -32.297  1.00  0.00    -0.284 OA
HETATM   20  C   UNL     1      -8.609   6.691 -31.978  1.00  0.00     0.078 A 
HETATM   21 BR   UNL     1     -10.248   7.229 -31.287  1.00  0.00    -0.045 Br
HETATM   22  C   UNL     1      -7.569   7.524 -32.132  1.00  0.00     0.111 A 
HETATM   23  N   UNL     1      -6.361   7.134 -32.645  1.00  0.00    -0.372 N 
HETATM   24  C   UNL     1      -6.141   5.842 -33.055  1.00  0.00     0.121 A 
HETATM   25  H   UNL     1      -5.612   7.816 -32.746  1.00  0.00     0.164 HD
ENDBRANCH   2  17
TORSDOF 3
ENDMDL
MODEL 9
REMARK VINA RESULT:      -7.2      6.643      9.470
REMARK  3 active torsions:
REMARK  status: ('A' for Active; 'I' for Inactive)
REMARK    1  A    between atoms: C_4  and  C_5 
REMARK    2  A    between atoms: C_9  and  C_10 
REMARK       I    between atoms: C_10  and  N_11 
REMARK    3  A    between atoms: N_11  and  C_12 
ROOT
HETATM    1  C   UNL     1       1.188   8.062 -27.802  1.00  0.00     0.276 C 
HETATM    2  N   UNL     1       0.842   7.842 -26.487  1.00  0.00    -0.317 N 
HETATM    3  O   UNL     1       1.934   8.949 -28.206  1.00  0.00    -0.266 OA
HETATM    4  H   UNL     1       0.195   7.064 -26.336  1.00  0.00     0.169 HD
ENDROOT
BRANCH   1   5
HETATM    5  C   UNL     1       0.545   7.108 -28.720  1.00  0.00     0.147 A 
HETATM    6  N   UNL     1       0.197   5.865 -28.332  1.00  0.00    -0.169 NA
HETATM    7  N   UNL     1      -0.349   5.323 -29.434  1.00  0.00    -0.277 N 
HETATM    8  C   UNL     1      -0.407   6.163 -30.517  1.00  0.00     0.063 A 
HETATM    9  H   UNL     1      -0.665   4.361 -29.382  1.00  0.00     0.189 HD
HETATM   10  C   UNL     1       0.194   7.328 -30.075  1.00  0.00     0.071 A 
BRANCH   8  11
HETATM   11  C   UNL     1      -0.983   5.800 -31.814  1.00  0.00    -0.008 A 
HETATM   12  C   UNL     1      -0.787   6.594 -32.955  1.00  0.00     0.014 A 
HETATM   13  C   UNL     1      -1.337   6.227 -34.187  1.00  0.00     0.001 A 
HETATM   14  C   UNL     1      -2.087   5.059 -34.299  1.00  0.00     0.000 A 
HETATM   15  C   UNL     1      -2.288   4.258 -33.180  1.00  0.00     0.001 A 
HETATM   16  C   UNL     1      -1.740   4.626 -31.947  1.00  0.00     0.014 A 
ENDBRANCH   8  11
ENDBRANCH   1   5
BRANCH   2  17
HETATM   17  C   UNL     1       1.222   8.539 -25.363  1.00  0.00     0.102 A 
HETATM   18  C   UNL     1       0.158   9.398 -24.713  1.00  0.00     0.218 A 
HETATM   19  O   UNL     1      -0.975   9.430 -25.195  1.00  0.00    -0.284 OA
HETATM   20  C   UNL     1       0.542  10.188 -23.494  1.00  0.00     0.078 A 
HETATM   21 BR   UNL     1      -0.717  11.279 -22.670  1.00  0.00    -0.045 Br
HETATM   22  C   UNL     1       1.805  10.066 -23.059  1.00  0.00     0.111 A 
HETATM   23  N   UNL     1       2.738   9.268 -23.665  1.00  0.00    -0.372 N 
HETATM   24  C   UNL     1       2.434   8.539 -24.787  1.00  0.00     0.121 A 
HETATM   25  H   UNL     1       3.684   9.225 -23.292  1.00  0.00     0.164 HD
ENDBRANCH   2  17
TORSDOF 3
ENDMDL
MODEL 10
REMARK VINA RESULT:      -7.1      3.834      4.827
REMARK  3 active torsions:
REMARK  status: ('A' for Active; 'I' for Inactive)
REMARK    1  A    between atoms: C_4  and  C_5 
REMARK    2  A    between atoms: C_9  and  C_10 
REMARK       I    between atoms: C_10  and  N_11 
REMARK    3  A    between atoms: N_11  and  C_12 
ROOT
HETATM    1  C   UNL     1      -6.274   2.542 -32.841  1.00  0.00     0.276 C 
HETATM    2  N   UNL     1      -7.301   2.499 -31.924  1.00  0.00    -0.317 N 
HETATM    3  O   UNL     1      -5.915   3.536 -33.465  1.00  0.00    -0.266 OA
HETATM    4  H   UNL     1      -7.470   1.579 -31.510  1.00  0.00     0.169 HD
ENDROOT
BRANCH   1   5
HETATM    5  C   UNL     1      -5.628   1.232 -33.024  1.00  0.00     0.147 A 
HETATM    6  N   UNL     1      -4.374   0.987 -32.596  1.00  0.00    -0.169 NA
HETATM    7  N   UNL     1      -4.159  -0.293 -32.943  1.00  0.00    -0.277 N 
HETATM    8  C   UNL     1      -5.225  -0.910 -33.549  1.00  0.00     0.063 A 
HETATM    9  H   UNL     1      -3.250  -0.693 -32.739  1.00  0.00     0.189 HD
HETATM   10  C   UNL     1      -6.187   0.080 -33.631  1.00  0.00     0.071 A 
BRANCH   8  11
HETATM   11  C   UNL     1      -5.230  -2.307 -33.988  1.00  0.00    -0.008 A 
HETATM   12  C   UNL     1      -4.116  -3.142 -33.803  1.00  0.00     0.014 A 
HETATM   13  C   UNL     1      -4.142  -4.476 -34.221  1.00  0.00     0.001 A 
HETATM   14  C   UNL     1      -5.283  -4.998 -34.825  1.00  0.00     0.000 A 
HETATM   15  C   UNL     1      -6.398  -4.187 -35.012  1.00  0.00     0.001 A 
HETATM   16  C   UNL     1      -6.371  -2.852 -34.597  1.00  0.00     0.014 A 
ENDBRANCH   8  11
ENDBRANCH   1   5
BRANCH   2  17
HETATM   17  C   UNL     1      -8.141   3.509 -31.515  1.00  0.00     0.102 A 
HETATM   18  C   UNL     1      -7.708   4.287 -30.290  1.00  0.00     0.218 A 
HETATM   19  O   UNL     1      -6.649   4.002 -29.731  1.00  0.00    -0.284 OA
HETATM   20  C   UNL     1      -8.610   5.386 -29.803  1.00  0.00     0.078 A 
HETATM   21 BR   UNL     1      -8.141   6.359 -28.291  1.00  0.00    -0.045 Br
HETATM   22  C   UNL     1      -9.735   5.609 -30.499  1.00  0.00     0.111 A 
HETATM   23  N   UNL     1     -10.088   4.893 -31.612  1.00  0.00    -0.372 N 
HETATM   24  C   UNL     1      -9.301   3.872 -32.084  1.00  0.00     0.121 A 
HETATM   25  H   UNL     1     -10.960   5.103 -32.092  1.00  0.00     0.164 HD
ENDBRANCH   2  17
TORSDOF 3
ENDMDL
