MODEL 1
REMARK VINA RESULT:      -8.2      0.000      0.000
REMARK  4 active torsions:
REMARK  status: ('A' for Active; 'I' for Inactive)
REMARK    1  A    between atoms: C_8  and  N_9 
REMARK    2  A    between atoms: C_11  and  C_12 
REMARK    3  A    between atoms: C_13  and  O_14 
REMARK    4  A    between atoms: O_14  and  C_15 
ROOT
HETATM    1  C   UNL     1      -5.337  -2.840 -34.969  1.00  0.00     0.002 A 
HETATM    2  C   UNL     1      -4.493  -1.926 -34.327  1.00  0.00     0.034 A 
HETATM    3  C   UNL     1      -5.050  -1.029 -33.405  1.00  0.00     0.103 A 
HETATM    4  C   UNL     1      -6.419  -1.069 -33.153  1.00  0.00     0.083 A 
HETATM    5  N   UNL     1      -6.597  -0.062 -32.245  1.00  0.00    -0.151 N 
HETATM    6  C   UNL     1      -5.387   0.506 -31.935  1.00  0.00     0.734 A 
HETATM    7  N   UNL     1      -5.253   1.487 -31.014  1.00  0.00    -0.033 NA
HETATM    8  C   UNL     1      -6.281   1.843 -30.332  1.00  0.00     0.193 C 
HETATM    9  N   UNL     1      -7.567   1.323 -30.505  1.00  0.00    -0.338 N 
HETATM   10  C   UNL     1      -7.812   0.381 -31.595  1.00  0.00     0.246 C 
HETATM   11  N   UNL     1      -4.441  -0.057 -32.653  1.00  0.00    -0.060 NA
HETATM   12  C   UNL     1      -7.282  -1.975 -33.779  1.00  0.00     0.033 A 
HETATM   13  C   UNL     1      -6.707  -2.861 -34.696  1.00  0.00     0.002 A 
HETATM   14  H   UNL     1      -8.349   1.671 -29.975  1.00  0.00     0.164 HD
ENDROOT
BRANCH  10  15
HETATM   15  C   UNL     1      -8.819   1.033 -32.540  1.00  0.00     0.020 A 
HETATM   16  C   UNL     1      -8.460   2.216 -33.227  1.00  0.00     0.085 A 
HETATM   17  C   UNL     1      -9.385   2.851 -34.064  1.00  0.00     0.039 A 
HETATM   18  C   UNL     1     -10.655   2.303 -34.254  1.00  0.00     0.022 A 
HETATM   19  C   UNL     1     -11.000   1.116 -33.621  1.00  0.00     0.011 A 
HETATM   20 BR   UNL     1     -12.714   0.369 -33.896  1.00  0.00    -0.051 Br
HETATM   21  C   UNL     1     -10.094   0.476 -32.778  1.00  0.00     0.033 A 
BRANCH  16  22
HETATM   22  O   UNL     1      -7.174   2.642 -33.026  1.00  0.00    -0.289 OA
BRANCH  22  23
HETATM   23  C   UNL     1      -6.393   2.971 -34.172  1.00  0.00     0.505 C 
HETATM   24  F   UNL     1      -5.135   3.266 -33.772  1.00  0.00    -0.184 F 
HETATM   25  F   UNL     1      -6.320   1.844 -34.920  1.00  0.00    -0.184 F 
ENDBRANCH  22  23
ENDBRANCH  16  22
ENDBRANCH  10  15
BRANCH   8  26
HETATM   26  N   UNL     1      -6.229   2.781 -29.365  1.00  0.00    -0.272 NA
HETATM   27  H   UNL     1      -5.362   2.704 -28.836  1.00  0.00     0.127 HD
HETATM   28  H   UNL     1      -7.024   2.822 -28.740  1.00  0.00     0.127 HD
ENDBRANCH   8  26
TORSDOF 4
ENDMDL
MODEL 2
REMARK VINA RESULT:      -8.1      3.658      5.384
REMARK  4 active torsions:
REMARK  status: ('A' for Active; 'I' for Inactive)
REMARK    1  A    between atoms: C_8  and  N_9 
REMARK    2  A    between atoms: C_11  and  C_12 
REMARK    3  A    between atoms: C_13  and  O_14 
REMARK    4  A    between atoms: O_14  and  C_15 
ROOT
HETATM    1  C   UNL     1      -8.756   0.886 -34.608  1.00  0.00     0.002 A 
HETATM    2  C   UNL     1      -7.727  -0.026 -34.873  1.00  0.00     0.034 A 
HETATM    3  C   UNL     1      -6.579   0.005 -34.071  1.00  0.00     0.103 A 
HETATM    4  C   UNL     1      -6.490   0.935 -33.039  1.00  0.00     0.083 A 
HETATM    5  N   UNL     1      -5.254   0.690 -32.506  1.00  0.00    -0.151 N 
HETATM    6  C   UNL     1      -4.667  -0.366 -33.154  1.00  0.00     0.734 A 
HETATM    7  N   UNL     1      -3.465  -0.870 -32.795  1.00  0.00    -0.033 NA
HETATM    8  C   UNL     1      -2.884  -0.405 -31.749  1.00  0.00     0.193 C 
HETATM    9  N   UNL     1      -3.382   0.639 -30.963  1.00  0.00    -0.338 N 
HETATM   10  C   UNL     1      -4.593   1.336 -31.391  1.00  0.00     0.246 C 
HETATM   11  N   UNL     1      -5.452  -0.776 -34.126  1.00  0.00    -0.060 NA
HETATM   12  C   UNL     1      -7.505   1.853 -32.751  1.00  0.00     0.033 A 
HETATM   13  C   UNL     1      -8.644   1.807 -33.564  1.00  0.00     0.002 A 
HETATM   14  H   UNL     1      -2.863   0.998 -30.178  1.00  0.00     0.164 HD
ENDROOT
BRANCH  10  15
HETATM   15  C   UNL     1      -4.209   2.791 -31.655  1.00  0.00     0.020 A 
HETATM   16  C   UNL     1      -4.748   3.810 -30.835  1.00  0.00     0.085 A 
HETATM   17  C   UNL     1      -4.442   5.151 -31.089  1.00  0.00     0.039 A 
HETATM   18  C   UNL     1      -3.575   5.492 -32.130  1.00  0.00     0.022 A 
HETATM   19  C   UNL     1      -3.004   4.495 -32.910  1.00  0.00     0.011 A 
HETATM   20 BR   UNL     1      -1.819   4.960 -34.306  1.00  0.00    -0.051 Br
HETATM   21  C   UNL     1      -3.305   3.155 -32.676  1.00  0.00     0.033 A 
BRANCH  16  22
HETATM   22  O   UNL     1      -5.536   3.375 -29.802  1.00  0.00    -0.289 OA
BRANCH  22  23
HETATM   23  C   UNL     1      -6.855   3.902 -29.702  1.00  0.00     0.505 C 
HETATM   24  F   UNL     1      -7.720   2.879 -29.512  1.00  0.00    -0.184 F 
HETATM   25  F   UNL     1      -6.880   4.658 -28.578  1.00  0.00    -0.184 F 
ENDBRANCH  22  23
ENDBRANCH  16  22
ENDBRANCH  10  15
BRANCH   8  26
HETATM   26  N   UNL     1      -1.706  -0.876 -31.294  1.00  0.00    -0.272 NA
HETATM   27  H   UNL     1      -1.612  -1.869 -31.502  1.00  0.00     0.127 HD
HETATM   28  H   UNL     1      -1.499  -0.697 -30.320  1.00  0.00     0.127 HD
ENDBRANCH   8  26
TORSDOF 4
ENDMDL
MODEL 3
REMARK VINA RESULT:      -7.9      3.846      5.852
REMARK  4 active torsions:
REMARK  status: ('A' for Active; 'I' for Inactive)
REMARK    1  A    between atoms: C_8  and  N_9 
REMARK    2  A    between atoms: C_11  and  C_12 
REMARK    3  A    between atoms: C_13  and  O_14 
REMARK    4  A    between atoms: O_14  and  C_15 
ROOT
HETATM    1  C   UNL     1      -1.488   6.350 -34.217  1.00  0.00     0.002 A 
HETATM    2  C   UNL     1      -2.223   7.132 -33.318  1.00  0.00     0.034 A 
HETATM    3  C   UNL     1      -3.047   6.488 -32.385  1.00  0.00     0.103 A 
HETATM    4  C   UNL     1      -3.115   5.098 -32.376  1.00  0.00     0.083 A 
HETATM    5  N   UNL     1      -4.011   4.836 -31.376  1.00  0.00    -0.151 N 
HETATM    6  C   UNL     1      -4.410   6.010 -30.789  1.00  0.00     0.734 A 
HETATM    7  N   UNL     1      -5.247   6.052 -29.728  1.00  0.00    -0.033 NA
HETATM    8  C   UNL     1      -5.617   4.948 -29.186  1.00  0.00     0.193 C 
HETATM    9  N   UNL     1      -5.256   3.678 -29.646  1.00  0.00    -0.338 N 
HETATM   10  C   UNL     1      -4.489   3.562 -30.884  1.00  0.00     0.246 C 
HETATM   11  N   UNL     1      -3.850   7.025 -31.410  1.00  0.00    -0.060 NA
HETATM   12  C   UNL     1      -2.388   4.294 -33.261  1.00  0.00     0.033 A 
HETATM   13  C   UNL     1      -1.571   4.956 -34.185  1.00  0.00     0.002 A 
HETATM   14  H   UNL     1      -5.611   2.842 -29.211  1.00  0.00     0.164 HD
ENDROOT
BRANCH  10  15
HETATM   15  C   UNL     1      -5.354   2.796 -31.883  1.00  0.00     0.020 A 
HETATM   16  C   UNL     1      -4.854   1.607 -32.466  1.00  0.00     0.085 A 
HETATM   17  C   UNL     1      -5.615   0.916 -33.415  1.00  0.00     0.039 A 
HETATM   18  C   UNL     1      -6.886   1.372 -33.768  1.00  0.00     0.022 A 
HETATM   19  C   UNL     1      -7.406   2.511 -33.165  1.00  0.00     0.011 A 
HETATM   20 BR   UNL     1      -9.134   3.115 -33.632  1.00  0.00    -0.051 Br
HETATM   21  C   UNL     1      -6.657   3.216 -32.225  1.00  0.00     0.033 A 
BRANCH  16  22
HETATM   22  O   UNL     1      -3.625   1.205 -32.012  1.00  0.00    -0.289 OA
BRANCH  22  23
HETATM   23  C   UNL     1      -3.546  -0.032 -31.310  1.00  0.00     0.505 C 
HETATM   24  F   UNL     1      -2.300  -0.164 -30.800  1.00  0.00    -0.184 F 
HETATM   25  F   UNL     1      -4.398   0.068 -30.261  1.00  0.00    -0.184 F 
ENDBRANCH  22  23
ENDBRANCH  16  22
ENDBRANCH  10  15
BRANCH   8  26
HETATM   26  N   UNL     1      -6.415   4.896 -28.100  1.00  0.00    -0.272 NA
HETATM   27  H   UNL     1      -5.888   4.596 -27.282  1.00  0.00     0.127 HD
HETATM   28  H   UNL     1      -7.263   4.353 -28.195  1.00  0.00     0.127 HD
ENDBRANCH   8  26
TORSDOF 4
ENDMDL
MODEL 4
REMARK VINA RESULT:      -7.9      4.241      5.835
REMARK  4 active torsions:
REMARK  status: ('A' for Active; 'I' for Inactive)
REMARK    1  A    between atoms: C_8  and  N_9 
REMARK    2  A    between atoms: C_11  and  C_12 
REMARK    3  A    between atoms: C_13  and  O_14 
REMARK    4  A    between atoms: O_14  and  C_15 
ROOT
HETATM    1  C   UNL     1      -4.304  -0.805 -31.461  1.00  0.00     0.002 A 
HETATM    2  C   UNL     1      -5.648  -0.434 -31.581  1.00  0.00     0.034 A 
HETATM    3  C   UNL     1      -5.952   0.839 -32.083  1.00  0.00     0.103 A 
HETATM    4  C   UNL     1      -4.918   1.696 -32.445  1.00  0.00     0.083 A 
HETATM    5  N   UNL     1      -5.577   2.823 -32.855  1.00  0.00    -0.151 N 
HETATM    6  C   UNL     1      -6.932   2.621 -32.789  1.00  0.00     0.734 A 
HETATM    7  N   UNL     1      -7.831   3.545 -33.194  1.00  0.00    -0.033 NA
HETATM    8  C   UNL     1      -7.407   4.623 -33.748  1.00  0.00     0.193 C 
HETATM    9  N   UNL     1      -6.059   4.948 -33.923  1.00  0.00    -0.338 N 
HETATM   10  C   UNL     1      -5.037   4.068 -33.359  1.00  0.00     0.246 C 
HETATM   11  N   UNL     1      -7.174   1.425 -32.297  1.00  0.00    -0.060 NA
HETATM   12  C   UNL     1      -3.567   1.348 -32.339  1.00  0.00     0.033 A 
HETATM   13  C   UNL     1      -3.284   0.073 -31.836  1.00  0.00     0.002 A 
HETATM   14  H   UNL     1      -5.779   5.828 -34.322  1.00  0.00     0.164 HD
ENDROOT
BRANCH  10  15
HETATM   15  C   UNL     1      -4.266   4.877 -32.318  1.00  0.00     0.020 A 
HETATM   16  C   UNL     1      -2.876   5.083 -32.490  1.00  0.00     0.085 A 
HETATM   17  C   UNL     1      -2.146   5.785 -31.525  1.00  0.00     0.039 A 
HETATM   18  C   UNL     1      -2.787   6.318 -30.404  1.00  0.00     0.022 A 
HETATM   19  C   UNL     1      -4.159   6.162 -30.252  1.00  0.00     0.011 A 
HETATM   20 BR   UNL     1      -5.025   6.899 -28.743  1.00  0.00    -0.051 Br
HETATM   21  C   UNL     1      -4.899   5.458 -31.199  1.00  0.00     0.033 A 
BRANCH  16  22
HETATM   22  O   UNL     1      -2.348   4.578 -33.649  1.00  0.00    -0.289 OA
BRANCH  22  23
HETATM   23  C   UNL     1      -2.116   5.482 -34.725  1.00  0.00     0.505 C 
HETATM   24  F   UNL     1      -0.969   5.130 -35.350  1.00  0.00    -0.184 F 
HETATM   25  F   UNL     1      -3.125   5.293 -35.609  1.00  0.00    -0.184 F 
ENDBRANCH  22  23
ENDBRANCH  16  22
ENDBRANCH  10  15
BRANCH   8  26
HETATM   26  N   UNL     1      -8.233   5.579 -34.219  1.00  0.00    -0.272 NA
HETATM   27  H   UNL     1      -8.100   5.706 -35.221  1.00  0.00     0.127 HD
HETATM   28  H   UNL     1      -8.203   6.470 -33.741  1.00  0.00     0.127 HD
ENDBRANCH   8  26
TORSDOF 4
ENDMDL
MODEL 5
REMARK VINA RESULT:      -7.8     14.788     16.474
REMARK  4 active torsions:
REMARK  status: ('A' for Active; 'I' for Inactive)
REMARK    1  A    between atoms: C_8  and  N_9 
REMARK    2  A    between atoms: C_11  and  C_12 
REMARK    3  A    between atoms: C_13  and  O_14 
REMARK    4  A    between atoms: O_14  and  C_15 
ROOT
HETATM    1  C   UNL     1      -9.491 -18.331 -38.246  1.00  0.00     0.002 A 
HETATM    2  C   UNL     1      -8.582 -18.351 -37.182  1.00  0.00     0.034 A 
HETATM    3  C   UNL     1      -7.922 -17.163 -36.839  1.00  0.00     0.103 A 
HETATM    4  C   UNL     1      -8.184 -16.002 -37.560  1.00  0.00     0.083 A 
HETATM    5  N   UNL     1      -7.363 -15.079 -36.973  1.00  0.00    -0.151 N 
HETATM    6  C   UNL     1      -6.691 -15.652 -35.924  1.00  0.00     0.734 A 
HETATM    7  N   UNL     1      -5.855 -14.957 -35.121  1.00  0.00    -0.033 NA
HETATM    8  C   UNL     1      -5.751 -13.688 -35.284  1.00  0.00     0.193 C 
HETATM    9  N   UNL     1      -6.406 -12.959 -36.281  1.00  0.00    -0.338 N 
HETATM   10  C   UNL     1      -7.194 -13.675 -37.283  1.00  0.00     0.246 C 
HETATM   11  N   UNL     1      -7.004 -16.927 -35.847  1.00  0.00    -0.060 NA
HETATM   12  C   UNL     1      -9.091 -15.955 -38.625  1.00  0.00     0.033 A 
HETATM   13  C   UNL     1      -9.740 -17.151 -38.951  1.00  0.00     0.002 A 
HETATM   14  H   UNL     1      -6.253 -11.971 -36.395  1.00  0.00     0.164 HD
ENDROOT
BRANCH  10  15
HETATM   15  C   UNL     1      -6.546 -13.412 -38.641  1.00  0.00     0.020 A 
HETATM   16  C   UNL     1      -7.250 -12.661 -39.612  1.00  0.00     0.085 A 
HETATM   17  C   UNL     1      -6.690 -12.448 -40.876  1.00  0.00     0.039 A 
HETATM   18  C   UNL     1      -5.420 -12.942 -41.178  1.00  0.00     0.022 A 
HETATM   19  C   UNL     1      -4.701 -13.639 -40.215  1.00  0.00     0.011 A 
HETATM   20 BR   UNL     1      -2.975 -14.291 -40.621  1.00  0.00    -0.051 Br
HETATM   21  C   UNL     1      -5.248 -13.868 -38.954  1.00  0.00     0.033 A 
BRANCH  16  22
HETATM   22  O   UNL     1      -8.460 -12.165 -39.203  1.00  0.00    -0.289 OA
BRANCH  22  23
HETATM   23  C   UNL     1      -9.616 -12.522 -39.956  1.00  0.00     0.505 C 
HETATM   24  F   UNL     1     -10.577 -12.945 -39.103  1.00  0.00    -0.184 F 
HETATM   25  F   UNL     1     -10.066 -11.380 -40.530  1.00  0.00    -0.184 F 
ENDBRANCH  22  23
ENDBRANCH  16  22
ENDBRANCH  10  15
BRANCH   8  26
HETATM   26  N   UNL     1      -4.975 -12.910 -34.503  1.00  0.00    -0.272 NA
HETATM   27  H   UNL     1      -5.534 -12.194 -34.041  1.00  0.00     0.127 HD
HETATM   28  H   UNL     1      -4.166 -12.495 -34.948  1.00  0.00     0.127 HD
ENDBRANCH   8  26
TORSDOF 4
ENDMDL
MODEL 6
REMARK VINA RESULT:      -7.7      3.143      5.353
REMARK  4 active torsions:
REMARK  status: ('A' for Active; 'I' for Inactive)
REMARK    1  A    between atoms: C_8  and  N_9 
REMARK    2  A    between atoms: C_11  and  C_12 
REMARK    3  A    between atoms: C_13  and  O_14 
REMARK    4  A    between atoms: O_14  and  C_15 
ROOT
HETATM    1  C   UNL     1      -2.914   5.150 -33.515  1.00  0.00     0.002 A 
HETATM    2  C   UNL     1      -4.282   5.442 -33.556  1.00  0.00     0.034 A 
HETATM    3  C   UNL     1      -5.183   4.522 -33.002  1.00  0.00     0.103 A 
HETATM    4  C   UNL     1      -4.698   3.349 -32.432  1.00  0.00     0.083 A 
HETATM    5  N   UNL     1      -5.837   2.704 -32.031  1.00  0.00    -0.151 N 
HETATM    6  C   UNL     1      -6.933   3.483 -32.302  1.00  0.00     0.734 A 
HETATM    7  N   UNL     1      -8.190   3.125 -31.955  1.00  0.00    -0.033 NA
HETATM    8  C   UNL     1      -8.362   2.057 -31.264  1.00  0.00     0.193 C 
HETATM    9  N   UNL     1      -7.338   1.188 -30.877  1.00  0.00    -0.338 N 
HETATM   10  C   UNL     1      -5.980   1.430 -31.359  1.00  0.00     0.246 C 
HETATM   11  N   UNL     1      -6.551   4.581 -32.916  1.00  0.00    -0.060 NA
HETATM   12  C   UNL     1      -3.336   3.035 -32.376  1.00  0.00     0.033 A 
HETATM   13  C   UNL     1      -2.453   3.967 -32.933  1.00  0.00     0.002 A 
HETATM   14  H   UNL     1      -7.533   0.338 -30.374  1.00  0.00     0.164 HD
ENDROOT
BRANCH  10  15
HETATM   15  C   UNL     1      -5.582   0.229 -32.215  1.00  0.00     0.020 A 
HETATM   16  C   UNL     1      -6.169   0.061 -33.491  1.00  0.00     0.085 A 
HETATM   17  C   UNL     1      -5.849  -1.056 -34.270  1.00  0.00     0.039 A 
HETATM   18  C   UNL     1      -4.921  -1.993 -33.811  1.00  0.00     0.022 A 
HETATM   19  C   UNL     1      -4.303  -1.811 -32.580  1.00  0.00     0.011 A 
HETATM   20 BR   UNL     1      -3.035  -3.073 -31.971  1.00  0.00    -0.051 Br
HETATM   21  C   UNL     1      -4.618  -0.709 -31.788  1.00  0.00     0.033 A 
BRANCH  16  22
HETATM   22  O   UNL     1      -7.018   1.063 -33.881  1.00  0.00    -0.289 OA
BRANCH  22  23
HETATM   23  C   UNL     1      -8.243   0.693 -34.507  1.00  0.00     0.505 C 
HETATM   24  F   UNL     1      -7.964   0.061 -35.670  1.00  0.00    -0.184 F 
HETATM   25  F   UNL     1      -8.831  -0.214 -33.691  1.00  0.00    -0.184 F 
ENDBRANCH  22  23
ENDBRANCH  16  22
ENDBRANCH  10  15
BRANCH   8  26
HETATM   26  N   UNL     1      -9.575   1.647 -30.839  1.00  0.00    -0.272 NA
HETATM   27  H   UNL     1      -9.485   0.838 -30.226  1.00  0.00     0.127 HD
HETATM   28  H   UNL     1     -10.265   1.473 -31.558  1.00  0.00     0.127 HD
ENDBRANCH   8  26
TORSDOF 4
ENDMDL
MODEL 7
REMARK VINA RESULT:      -7.7      6.372      8.570
REMARK  4 active torsions:
REMARK  status: ('A' for Active; 'I' for Inactive)
REMARK    1  A    between atoms: C_8  and  N_9 
REMARK    2  A    between atoms: C_11  and  C_12 
REMARK    3  A    between atoms: C_13  and  O_14 
REMARK    4  A    between atoms: O_14  and  C_15 
ROOT
HETATM    1  C   UNL     1      -7.506   4.541 -30.937  1.00  0.00     0.002 A 
HETATM    2  C   UNL     1      -7.253   4.763 -32.296  1.00  0.00     0.034 A 
HETATM    3  C   UNL     1      -5.924   4.889 -32.721  1.00  0.00     0.103 A 
HETATM    4  C   UNL     1      -4.895   4.794 -31.788  1.00  0.00     0.083 A 
HETATM    5  N   UNL     1      -3.771   4.988 -32.544  1.00  0.00    -0.151 N 
HETATM    6  C   UNL     1      -4.116   5.134 -33.864  1.00  0.00     0.734 A 
HETATM    7  N   UNL     1      -3.201   5.277 -34.849  1.00  0.00    -0.033 NA
HETATM    8  C   UNL     1      -1.955   5.181 -34.556  1.00  0.00     0.193 C 
HETATM    9  N   UNL     1      -1.455   4.989 -33.265  1.00  0.00    -0.338 N 
HETATM   10  C   UNL     1      -2.382   4.992 -32.136  1.00  0.00     0.246 C 
HETATM   11  N   UNL     1      -5.425   5.102 -33.982  1.00  0.00    -0.060 NA
HETATM   12  C   UNL     1      -5.121   4.570 -30.426  1.00  0.00     0.033 A 
HETATM   13  C   UNL     1      -6.455   4.446 -30.021  1.00  0.00     0.002 A 
HETATM   14  H   UNL     1      -0.465   4.967 -33.084  1.00  0.00     0.164 HD
ENDROOT
BRANCH  10  15
HETATM   15  C   UNL     1      -2.003   6.169 -31.240  1.00  0.00     0.020 A 
HETATM   16  C   UNL     1      -0.890   6.050 -30.373  1.00  0.00     0.085 A 
HETATM   17  C   UNL     1      -0.554   7.102 -29.514  1.00  0.00     0.039 A 
HETATM   18  C   UNL     1      -1.289   8.289 -29.531  1.00  0.00     0.022 A 
HETATM   19  C   UNL     1      -2.353   8.433 -30.413  1.00  0.00     0.011 A 
HETATM   20 BR   UNL     1      -3.334  10.047 -30.445  1.00  0.00    -0.051 Br
HETATM   21  C   UNL     1      -2.706   7.392 -31.268  1.00  0.00     0.033 A 
BRANCH  16  22
HETATM   22  O   UNL     1      -0.194   4.875 -30.472  1.00  0.00    -0.289 OA
BRANCH  22  23
HETATM   23  C   UNL     1       1.193   4.892 -30.148  1.00  0.00     0.505 C 
HETATM   24  F   UNL     1       1.391   4.140 -29.041  1.00  0.00    -0.184 F 
HETATM   25  F   UNL     1       1.833   4.273 -31.169  1.00  0.00    -0.184 F 
ENDBRANCH  22  23
ENDBRANCH  16  22
ENDBRANCH  10  15
BRANCH   8  26
HETATM   26  N   UNL     1      -0.977   5.268 -35.480  1.00  0.00    -0.272 NA
HETATM   27  H   UNL     1      -1.359   5.544 -36.384  1.00  0.00     0.127 HD
HETATM   28  H   UNL     1      -0.382   4.455 -35.579  1.00  0.00     0.127 HD
ENDBRANCH   8  26
TORSDOF 4
ENDMDL
MODEL 8
REMARK VINA RESULT:      -7.4     15.037     16.247
REMARK  4 active torsions:
REMARK  status: ('A' for Active; 'I' for Inactive)
REMARK    1  A    between atoms: C_8  and  N_9 
REMARK    2  A    between atoms: C_11  and  C_12 
REMARK    3  A    between atoms: C_13  and  O_14 
REMARK    4  A    between atoms: O_14  and  C_15 
ROOT
HETATM    1  C   UNL     1      -7.931 -12.256 -40.395  1.00  0.00     0.002 A 
HETATM    2  C   UNL     1      -8.471 -12.636 -39.161  1.00  0.00     0.034 A 
HETATM    3  C   UNL     1      -7.595 -12.974 -38.120  1.00  0.00     0.103 A 
HETATM    4  C   UNL     1      -6.222 -12.924 -38.337  1.00  0.00     0.083 A 
HETATM    5  N   UNL     1      -5.702 -13.332 -37.139  1.00  0.00    -0.151 N 
HETATM    6  C   UNL     1      -6.716 -13.558 -36.244  1.00  0.00     0.734 A 
HETATM    7  N   UNL     1      -6.494 -13.911 -34.958  1.00  0.00    -0.033 NA
HETATM    8  C   UNL     1      -5.285 -13.950 -34.526  1.00  0.00     0.193 C 
HETATM    9  N   UNL     1      -4.154 -13.701 -35.308  1.00  0.00    -0.338 N 
HETATM   10  C   UNL     1      -4.317 -13.477 -36.743  1.00  0.00     0.246 C 
HETATM   11  N   UNL     1      -7.875 -13.368 -36.836  1.00  0.00    -0.060 NA
HETATM   12  C   UNL     1      -5.657 -12.544 -39.560  1.00  0.00     0.033 A 
HETATM   13  C   UNL     1      -6.548 -12.210 -40.587  1.00  0.00     0.002 A 
HETATM   14  H   UNL     1      -3.225 -13.791 -34.931  1.00  0.00     0.164 HD
ENDROOT
BRANCH  10  15
HETATM   15  C   UNL     1      -3.580 -14.602 -37.465  1.00  0.00     0.020 A 
HETATM   16  C   UNL     1      -2.211 -14.440 -37.786  1.00  0.00     0.085 A 
HETATM   17  C   UNL     1      -1.530 -15.443 -38.486  1.00  0.00     0.039 A 
HETATM   18  C   UNL     1      -2.185 -16.624 -38.840  1.00  0.00     0.022 A 
HETATM   19  C   UNL     1      -3.515 -16.813 -38.487  1.00  0.00     0.011 A 
HETATM   20 BR   UNL     1      -4.392 -18.420 -38.953  1.00  0.00    -0.051 Br
HETATM   21  C   UNL     1      -4.210 -15.820 -37.798  1.00  0.00     0.033 A 
BRANCH  16  22
HETATM   22  O   UNL     1      -1.639 -13.277 -37.343  1.00  0.00    -0.289 OA
BRANCH  22  23
HETATM   23  C   UNL     1      -1.370 -12.259 -38.302  1.00  0.00     0.505 C 
HETATM   24  F   UNL     1      -1.118 -12.841 -39.497  1.00  0.00    -0.184 F 
HETATM   25  F   UNL     1      -2.517 -11.549 -38.438  1.00  0.00    -0.184 F 
ENDBRANCH  22  23
ENDBRANCH  16  22
ENDBRANCH  10  15
BRANCH   8  26
HETATM   26  N   UNL     1      -4.973 -14.250 -33.249  1.00  0.00    -0.272 NA
HETATM   27  H   UNL     1      -4.638 -13.423 -32.757  1.00  0.00     0.127 HD
HETATM   28  H   UNL     1      -4.336 -15.024 -33.115  1.00  0.00     0.127 HD
ENDBRANCH   8  26
TORSDOF 4
ENDMDL
MODEL 9
REMARK VINA RESULT:      -7.3      7.544      9.156
REMARK  4 active torsions:
REMARK  status: ('A' for Active; 'I' for Inactive)
REMARK    1  A    between atoms: C_8  and  N_9 
REMARK    2  A    between atoms: C_11  and  C_12 
REMARK    3  A    between atoms: C_13  and  O_14 
REMARK    4  A    between atoms: O_14  and  C_15 
ROOT
HETATM    1  C   UNL     1       0.669   6.408 -27.937  1.00  0.00     0.002 A 
HETATM    2  C   UNL     1       0.736   5.424 -28.931  1.00  0.00     0.034 A 
HETATM    3  C   UNL     1      -0.008   5.603 -30.105  1.00  0.00     0.103 A 
HETATM    4  C   UNL     1      -0.792   6.745 -30.251  1.00  0.00     0.083 A 
HETATM    5  N   UNL     1      -1.376   6.566 -31.475  1.00  0.00    -0.151 N 
HETATM    6  C   UNL     1      -0.918   5.405 -32.046  1.00  0.00     0.734 A 
HETATM    7  N   UNL     1      -1.278   5.007 -33.286  1.00  0.00    -0.033 NA
HETATM    8  C   UNL     1      -2.006   5.786 -34.001  1.00  0.00     0.193 C 
HETATM    9  N   UNL     1      -2.511   7.017 -33.572  1.00  0.00    -0.338 N 
HETATM   10  C   UNL     1      -2.295   7.429 -32.186  1.00  0.00     0.246 C 
HETATM   11  N   UNL     1      -0.104   4.797 -31.211  1.00  0.00    -0.060 NA
HETATM   12  C   UNL     1      -0.873   7.743 -29.275  1.00  0.00     0.033 A 
HETATM   13  C   UNL     1      -0.121   7.546 -28.110  1.00  0.00     0.002 A 
HETATM   14  H   UNL     1      -3.117   7.569 -34.156  1.00  0.00     0.164 HD
ENDROOT
BRANCH  10  15
HETATM   15  C   UNL     1      -3.669   7.547 -31.529  1.00  0.00     0.020 A 
HETATM   16  C   UNL     1      -4.069   8.786 -30.976  1.00  0.00     0.085 A 
HETATM   17  C   UNL     1      -5.306   8.901 -30.332  1.00  0.00     0.039 A 
HETATM   18  C   UNL     1      -6.170   7.806 -30.262  1.00  0.00     0.022 A 
HETATM   19  C   UNL     1      -5.806   6.599 -30.845  1.00  0.00     0.011 A 
HETATM   20 BR   UNL     1      -6.985   5.125 -30.764  1.00  0.00    -0.051 Br
HETATM   21  C   UNL     1      -4.574   6.465 -31.482  1.00  0.00     0.033 A 
BRANCH  16  22
HETATM   22  O   UNL     1      -3.183   9.818 -31.148  1.00  0.00    -0.289 OA
BRANCH  22  23
HETATM   23  C   UNL     1      -3.058  10.771 -30.098  1.00  0.00     0.505 C 
HETATM   24  F   UNL     1      -2.927  10.112 -28.924  1.00  0.00    -0.184 F 
HETATM   25  F   UNL     1      -1.894  11.430 -30.316  1.00  0.00    -0.184 F 
ENDBRANCH  22  23
ENDBRANCH  16  22
ENDBRANCH  10  15
BRANCH   8  26
HETATM   26  N   UNL     1      -2.378   5.489 -35.263  1.00  0.00    -0.272 NA
HETATM   27  H   UNL     1      -1.652   4.951 -35.733  1.00  0.00     0.127 HD
HETATM   28  H   UNL     1      -2.670   6.269 -35.838  1.00  0.00     0.127 HD
ENDBRANCH   8  26
TORSDOF 4
ENDMDL
MODEL 10
REMARK VINA RESULT:      -7.3      6.815      9.075
REMARK  4 active torsions:
REMARK  status: ('A' for Active; 'I' for Inactive)
REMARK    1  A    between atoms: C_8  and  N_9 
REMARK    2  A    between atoms: C_11  and  C_12 
REMARK    3  A    between atoms: C_13  and  O_14 
REMARK    4  A    between atoms: O_14  and  C_15 
ROOT
HETATM    1  C   UNL     1       0.069   6.913 -26.558  1.00  0.00     0.002 A 
HETATM    2  C   UNL     1       0.791   6.940 -27.758  1.00  0.00     0.034 A 
HETATM    3  C   UNL     1       0.084   7.001 -28.967  1.00  0.00     0.103 A 
HETATM    4  C   UNL     1      -1.307   7.032 -28.945  1.00  0.00     0.083 A 
HETATM    5  N   UNL     1      -1.638   7.064 -30.272  1.00  0.00    -0.151 N 
HETATM    6  C   UNL     1      -0.499   7.106 -31.036  1.00  0.00     0.734 A 
HETATM    7  N   UNL     1      -0.524   7.206 -32.384  1.00  0.00    -0.033 NA
HETATM    8  C   UNL     1      -1.653   7.362 -32.973  1.00  0.00     0.193 C 
HETATM    9  N   UNL     1      -2.891   7.384 -32.325  1.00  0.00    -0.338 N 
HETATM   10  C   UNL     1      -2.946   7.115 -30.889  1.00  0.00     0.246 C 
HETATM   11  N   UNL     1       0.556   7.042 -30.254  1.00  0.00    -0.060 NA
HETATM   12  C   UNL     1      -2.051   7.011 -27.761  1.00  0.00     0.033 A 
HETATM   13  C   UNL     1      -1.327   6.950 -26.564  1.00  0.00     0.002 A 
HETATM   14  H   UNL     1      -3.753   7.462 -32.840  1.00  0.00     0.164 HD
ENDROOT
BRANCH  10  15
HETATM   15  C   UNL     1      -3.773   5.846 -30.697  1.00  0.00     0.020 A 
HETATM   16  C   UNL     1      -4.909   5.879 -29.854  1.00  0.00     0.085 A 
HETATM   17  C   UNL     1      -5.653   4.715 -29.632  1.00  0.00     0.039 A 
HETATM   18  C   UNL     1      -5.303   3.522 -30.267  1.00  0.00     0.022 A 
HETATM   19  C   UNL     1      -4.218   3.491 -31.135  1.00  0.00     0.011 A 
HETATM   20 BR   UNL     1      -3.758   1.879 -32.006  1.00  0.00    -0.051 Br
HETATM   21  C   UNL     1      -3.461   4.640 -31.359  1.00  0.00     0.033 A 
BRANCH  16  22
HETATM   22  O   UNL     1      -5.210   7.106 -29.325  1.00  0.00    -0.289 OA
BRANCH  22  23
HETATM   23  C   UNL     1      -6.061   7.151 -28.184  1.00  0.00     0.505 C 
HETATM   24  F   UNL     1      -5.321   7.480 -27.101  1.00  0.00    -0.184 F 
HETATM   25  F   UNL     1      -6.932   8.167 -28.396  1.00  0.00    -0.184 F 
ENDBRANCH  22  23
ENDBRANCH  16  22
ENDBRANCH  10  15
BRANCH   8  26
HETATM   26  N   UNL     1      -1.768   7.513 -34.309  1.00  0.00    -0.272 NA
HETATM   27  H   UNL     1      -1.198   8.293 -34.632  1.00  0.00     0.127 HD
HETATM   28  H   UNL     1      -2.711   7.588 -34.670  1.00  0.00     0.127 HD
ENDBRANCH   8  26
TORSDOF 4
ENDMDL
