MODEL 1
REMARK VINA RESULT:      -8.0      0.000      0.000
REMARK  5 active torsions:
REMARK  status: ('A' for Active; 'I' for Inactive)
REMARK    1  A    between atoms: C_3  and  O_4 
REMARK    2  A    between atoms: O_4  and  C_5 
REMARK    3  A    between atoms: C_10  and  N_11 
REMARK       I    between atoms: N_11  and  C_12 
REMARK       I    between atoms: C_12  and  N_13 
REMARK    4  A    between atoms: N_13  and  C_14 
REMARK    5  A    between atoms: C_14  and  C_15 
ROOT
HETATM    1  N   UNL     1      -5.786   3.664 -33.314  1.00  0.00    -0.309 N 
HETATM    2  C   UNL     1      -6.494   2.557 -33.633  1.00  0.00     0.321 C 
HETATM    3  N   UNL     1      -5.989   1.331 -33.358  1.00  0.00    -0.337 N 
HETATM    4  O   UNL     1      -7.602   2.707 -34.151  1.00  0.00    -0.247 OA
HETATM    5  H   UNL     1      -6.359   4.481 -33.480  1.00  0.00     0.170 HD
HETATM    6  H   UNL     1      -5.399   1.252 -32.544  1.00  0.00     0.164 HD
ENDROOT
BRANCH   1   7
HETATM    7  C   UNL     1      -4.480   3.924 -32.865  1.00  0.00     0.037 A 
HETATM    8  C   UNL     1      -3.967   3.607 -31.611  1.00  0.00     0.032 A 
HETATM    9  C   UNL     1      -2.638   3.926 -31.283  1.00  0.00     0.039 A 
HETATM   10  C   UNL     1      -1.797   4.542 -32.214  1.00  0.00     0.075 A 
HETATM   11  C   UNL     1      -2.292   4.831 -33.493  1.00  0.00    -0.026 A 
HETATM   12  C   UNL     1      -1.418   5.478 -34.533  1.00  0.00     0.051 C 
HETATM   13  C   UNL     1      -3.626   4.524 -33.802  1.00  0.00     0.039 A 
BRANCH  10  14
HETATM   14  O   UNL     1      -0.504   4.924 -31.990  1.00  0.00    -0.346 OA
BRANCH  14  15
HETATM   15  C   UNL     1      -0.159   5.629 -30.795  1.00  0.00     0.121 C 
HETATM   16  C   UNL     1       0.771   4.779 -29.934  1.00  0.00     0.040 C 
HETATM   17  C   UNL     1       0.563   6.900 -31.239  1.00  0.00     0.040 C 
ENDBRANCH  14  15
ENDBRANCH  10  14
ENDBRANCH   1   7
BRANCH   3  18
HETATM   18  C   UNL     1      -6.823   0.172 -33.610  1.00  0.00     0.183 C 
BRANCH  18  19
HETATM   19  C   UNL     1      -6.046  -1.096 -33.880  1.00  0.00     0.053 A 
HETATM   20  N   UNL     1      -4.773  -1.198 -33.413  1.00  0.00    -0.264 NA
HETATM   21  C   UNL     1      -4.112  -2.353 -33.655  1.00  0.00     0.118 A 
HETATM   22  C   UNL     1      -4.659  -3.429 -34.327  1.00  0.00     0.043 A 
HETATM   23  C   UNL     1      -5.966  -3.309 -34.774  1.00  0.00     0.037 A 
HETATM   24 CL   UNL     1      -6.712  -4.617 -35.605  1.00  0.00    -0.084 Cl
HETATM   25  C   UNL     1      -6.678  -2.138 -34.553  1.00  0.00     0.052 A 
ENDBRANCH  18  19
ENDBRANCH   3  18
TORSDOF 5
ENDMDL
MODEL 2
REMARK VINA RESULT:      -7.7      3.363      8.056
REMARK  5 active torsions:
REMARK  status: ('A' for Active; 'I' for Inactive)
REMARK    1  A    between atoms: C_3  and  O_4 
REMARK    2  A    between atoms: O_4  and  C_5 
REMARK    3  A    between atoms: C_10  and  N_11 
REMARK       I    between atoms: N_11  and  C_12 
REMARK       I    between atoms: C_12  and  N_13 
REMARK    4  A    between atoms: N_13  and  C_14 
REMARK    5  A    between atoms: C_14  and  C_15 
ROOT
HETATM    1  N   UNL     1      -7.212   1.898 -32.910  1.00  0.00    -0.309 N 
HETATM    2  C   UNL     1      -6.787   3.182 -32.942  1.00  0.00     0.321 C 
HETATM    3  N   UNL     1      -5.826   3.552 -33.821  1.00  0.00    -0.337 N 
HETATM    4  O   UNL     1      -7.315   3.986 -32.173  1.00  0.00    -0.247 OA
HETATM    5  H   UNL     1      -8.005   1.829 -32.285  1.00  0.00     0.170 HD
HETATM    6  H   UNL     1      -5.799   3.061 -34.702  1.00  0.00     0.164 HD
ENDROOT
BRANCH   1   7
HETATM    7  C   UNL     1      -6.792   0.689 -33.489  1.00  0.00     0.037 A 
HETATM    8  C   UNL     1      -7.419   0.023 -34.538  1.00  0.00     0.032 A 
HETATM    9  C   UNL     1      -6.897  -1.189 -35.026  1.00  0.00     0.039 A 
HETATM   10  C   UNL     1      -5.730  -1.736 -34.488  1.00  0.00     0.075 A 
HETATM   11  C   UNL     1      -5.070  -1.055 -33.456  1.00  0.00    -0.026 A 
HETATM   12  C   UNL     1      -3.800  -1.597 -32.857  1.00  0.00     0.051 C 
HETATM   13  C   UNL     1      -5.610   0.144 -32.966  1.00  0.00     0.039 A 
BRANCH  10  14
HETATM   14  O   UNL     1      -5.158  -2.919 -34.863  1.00  0.00    -0.346 OA
BRANCH  14  15
HETATM   15  C   UNL     1      -5.761  -4.160 -34.489  1.00  0.00     0.121 C 
HETATM   16  C   UNL     1      -6.639  -4.680 -35.623  1.00  0.00     0.040 C 
HETATM   17  C   UNL     1      -4.614  -5.136 -34.232  1.00  0.00     0.040 C 
ENDBRANCH  14  15
ENDBRANCH  10  14
ENDBRANCH   1   7
BRANCH   3  18
HETATM   18  C   UNL     1      -5.477   4.956 -33.906  1.00  0.00     0.183 C 
BRANCH  18  19
HETATM   19  C   UNL     1      -3.996   5.230 -33.764  1.00  0.00     0.053 A 
HETATM   20  N   UNL     1      -3.342   5.840 -34.789  1.00  0.00    -0.264 NA
HETATM   21  C   UNL     1      -2.022   6.088 -34.624  1.00  0.00     0.118 A 
HETATM   22  C   UNL     1      -1.316   5.778 -33.478  1.00  0.00     0.043 A 
HETATM   23  C   UNL     1      -2.011   5.178 -32.439  1.00  0.00     0.037 A 
HETATM   24 CL   UNL     1      -1.195   4.778 -30.979  1.00  0.00    -0.084 Cl
HETATM   25  C   UNL     1      -3.364   4.898 -32.570  1.00  0.00     0.052 A 
ENDBRANCH  18  19
ENDBRANCH   3  18
TORSDOF 5
ENDMDL
MODEL 3
REMARK VINA RESULT:      -7.5      4.826      7.435
REMARK  5 active torsions:
REMARK  status: ('A' for Active; 'I' for Inactive)
REMARK    1  A    between atoms: C_3  and  O_4 
REMARK    2  A    between atoms: O_4  and  C_5 
REMARK    3  A    between atoms: C_10  and  N_11 
REMARK       I    between atoms: N_11  and  C_12 
REMARK       I    between atoms: C_12  and  N_13 
REMARK    4  A    between atoms: N_13  and  C_14 
REMARK    5  A    between atoms: C_14  and  C_15 
ROOT
HETATM    1  N   UNL     1      -7.127   0.702 -31.076  1.00  0.00    -0.309 N 
HETATM    2  C   UNL     1      -5.955   0.110 -31.399  1.00  0.00     0.321 C 
HETATM    3  N   UNL     1      -5.691  -0.205 -32.689  1.00  0.00    -0.337 N 
HETATM    4  O   UNL     1      -5.147  -0.106 -30.495  1.00  0.00    -0.247 OA
HETATM    5  H   UNL     1      -7.104   0.969 -30.100  1.00  0.00     0.170 HD
HETATM    6  H   UNL     1      -6.085   0.398 -33.396  1.00  0.00     0.164 HD
ENDROOT
BRANCH   1   7
HETATM    7  C   UNL     1      -8.329   0.978 -31.749  1.00  0.00     0.037 A 
HETATM    8  C   UNL     1      -9.084   0.068 -32.482  1.00  0.00     0.032 A 
HETATM    9  C   UNL     1     -10.273   0.473 -33.114  1.00  0.00     0.039 A 
HETATM   10  C   UNL     1     -10.735   1.787 -33.001  1.00  0.00     0.075 A 
HETATM   11  C   UNL     1     -10.002   2.703 -32.233  1.00  0.00    -0.026 A 
HETATM   12  C   UNL     1     -10.470   4.124 -32.068  1.00  0.00     0.051 C 
HETATM   13  C   UNL     1      -8.808   2.290 -31.622  1.00  0.00     0.039 A 
BRANCH  10  14
HETATM   14  O   UNL     1     -11.854   2.293 -33.599  1.00  0.00    -0.346 OA
BRANCH  14  15
HETATM   15  C   UNL     1     -12.350   1.711 -34.807  1.00  0.00     0.121 C 
HETATM   16  C   UNL     1     -13.724   1.092 -34.567  1.00  0.00     0.040 C 
HETATM   17  C   UNL     1     -12.464   2.851 -35.817  1.00  0.00     0.040 C 
ENDBRANCH  14  15
ENDBRANCH  10  14
ENDBRANCH   1   7
BRANCH   3  18
HETATM   18  C   UNL     1      -4.381  -0.734 -33.013  1.00  0.00     0.183 C 
BRANCH  18  19
HETATM   19  C   UNL     1      -4.389  -2.191 -33.414  1.00  0.00     0.053 A 
HETATM   20  N   UNL     1      -3.457  -3.024 -32.878  1.00  0.00    -0.264 NA
HETATM   21  C   UNL     1      -3.504  -4.326 -33.243  1.00  0.00     0.118 A 
HETATM   22  C   UNL     1      -4.446  -4.853 -34.105  1.00  0.00     0.043 A 
HETATM   23  C   UNL     1      -5.398  -3.988 -34.621  1.00  0.00     0.037 A 
HETATM   24 CL   UNL     1      -6.608  -4.582 -35.690  1.00  0.00    -0.084 Cl
HETATM   25  C   UNL     1      -5.382  -2.642 -34.279  1.00  0.00     0.052 A 
ENDBRANCH  18  19
ENDBRANCH   3  18
TORSDOF 5
ENDMDL
MODEL 4
REMARK VINA RESULT:      -7.4      2.325      3.183
REMARK  5 active torsions:
REMARK  status: ('A' for Active; 'I' for Inactive)
REMARK    1  A    between atoms: C_3  and  O_4 
REMARK    2  A    between atoms: O_4  and  C_5 
REMARK    3  A    between atoms: C_10  and  N_11 
REMARK       I    between atoms: N_11  and  C_12 
REMARK       I    between atoms: C_12  and  N_13 
REMARK    4  A    between atoms: N_13  and  C_14 
REMARK    5  A    between atoms: C_14  and  C_15 
ROOT
HETATM    1  N   UNL     1      -7.345   1.908 -33.246  1.00  0.00    -0.309 N 
HETATM    2  C   UNL     1      -7.535   0.697 -33.816  1.00  0.00     0.321 C 
HETATM    3  N   UNL     1      -6.515   0.093 -34.472  1.00  0.00    -0.337 N 
HETATM    4  O   UNL     1      -8.641   0.168 -33.698  1.00  0.00    -0.247 OA
HETATM    5  H   UNL     1      -8.166   2.151 -32.707  1.00  0.00     0.170 HD
HETATM    6  H   UNL     1      -5.583   0.274 -34.132  1.00  0.00     0.164 HD
ENDROOT
BRANCH   1   7
HETATM    7  C   UNL     1      -6.330   2.879 -33.269  1.00  0.00     0.037 A 
HETATM    8  C   UNL     1      -6.330   4.046 -34.028  1.00  0.00     0.032 A 
HETATM    9  C   UNL     1      -5.246   4.938 -33.965  1.00  0.00     0.039 A 
HETATM   10  C   UNL     1      -4.159   4.688 -33.122  1.00  0.00     0.075 A 
HETATM   11  C   UNL     1      -4.165   3.535 -32.325  1.00  0.00    -0.026 A 
HETATM   12  C   UNL     1      -3.025   3.233 -31.391  1.00  0.00     0.051 C 
HETATM   13  C   UNL     1      -5.246   2.644 -32.412  1.00  0.00     0.039 A 
BRANCH  10  14
HETATM   14  O   UNL     1      -3.043   5.468 -33.008  1.00  0.00    -0.346 OA
BRANCH  14  15
HETATM   15  C   UNL     1      -2.542   6.177 -34.144  1.00  0.00     0.121 C 
HETATM   16  C   UNL     1      -1.741   7.395 -33.691  1.00  0.00     0.040 C 
HETATM   17  C   UNL     1      -1.630   5.206 -34.890  1.00  0.00     0.040 C 
ENDBRANCH  14  15
ENDBRANCH  10  14
ENDBRANCH   1   7
BRANCH   3  18
HETATM   18  C   UNL     1      -6.722  -1.252 -34.971  1.00  0.00     0.183 C 
BRANCH  18  19
HETATM   19  C   UNL     1      -5.717  -2.259 -34.457  1.00  0.00     0.053 A 
HETATM   20  N   UNL     1      -5.689  -3.500 -35.013  1.00  0.00    -0.264 NA
HETATM   21  C   UNL     1      -4.767  -4.371 -34.544  1.00  0.00     0.118 A 
HETATM   22  C   UNL     1      -3.850  -4.066 -33.555  1.00  0.00     0.043 A 
HETATM   23  C   UNL     1      -3.885  -2.788 -33.021  1.00  0.00     0.037 A 
HETATM   24 CL   UNL     1      -2.762  -2.339 -31.797  1.00  0.00    -0.084 Cl
HETATM   25  C   UNL     1      -4.820  -1.865 -33.468  1.00  0.00     0.052 A 
ENDBRANCH  18  19
ENDBRANCH   3  18
TORSDOF 5
ENDMDL
MODEL 5
REMARK VINA RESULT:      -7.3      2.629      3.953
REMARK  5 active torsions:
REMARK  status: ('A' for Active; 'I' for Inactive)
REMARK    1  A    between atoms: C_3  and  O_4 
REMARK    2  A    between atoms: O_4  and  C_5 
REMARK    3  A    between atoms: C_10  and  N_11 
REMARK       I    between atoms: N_11  and  C_12 
REMARK       I    between atoms: C_12  and  N_13 
REMARK    4  A    between atoms: N_13  and  C_14 
REMARK    5  A    between atoms: C_14  and  C_15 
ROOT
HETATM    1  N   UNL     1      -2.639   6.172 -34.385  1.00  0.00    -0.309 N 
HETATM    2  C   UNL     1      -3.782   5.478 -34.591  1.00  0.00     0.321 C 
HETATM    3  N   UNL     1      -4.593   5.190 -33.546  1.00  0.00    -0.337 N 
HETATM    4  O   UNL     1      -4.058   5.148 -35.745  1.00  0.00    -0.247 OA
HETATM    5  H   UNL     1      -2.223   6.397 -35.281  1.00  0.00     0.170 HD
HETATM    6  H   UNL     1      -4.617   5.856 -32.789  1.00  0.00     0.164 HD
ENDROOT
BRANCH   1   7
HETATM    7  C   UNL     1      -1.911   6.593 -33.260  1.00  0.00     0.037 A 
HETATM    8  C   UNL     1      -2.051   7.813 -32.604  1.00  0.00     0.032 A 
HETATM    9  C   UNL     1      -1.256   8.116 -31.485  1.00  0.00     0.039 A 
HETATM   10  C   UNL     1      -0.328   7.194 -30.993  1.00  0.00     0.075 A 
HETATM   11  C   UNL     1      -0.204   5.948 -31.623  1.00  0.00    -0.026 A 
HETATM   12  C   UNL     1       0.769   4.918 -31.118  1.00  0.00     0.051 C 
HETATM   13  C   UNL     1      -0.992   5.665 -32.750  1.00  0.00     0.039 A 
BRANCH  10  14
HETATM   14  O   UNL     1       0.516   7.399 -29.938  1.00  0.00    -0.346 OA
BRANCH  14  15
HETATM   15  C   UNL     1       0.003   7.859 -28.685  1.00  0.00     0.121 C 
HETATM   16  C   UNL     1      -0.649   6.706 -27.929  1.00  0.00     0.040 C 
HETATM   17  C   UNL     1       1.202   8.383 -27.897  1.00  0.00     0.040 C 
ENDBRANCH  14  15
ENDBRANCH  10  14
ENDBRANCH   1   7
BRANCH   3  18
HETATM   18  C   UNL     1      -5.862   4.546 -33.820  1.00  0.00     0.183 C 
BRANCH  18  19
HETATM   19  C   UNL     1      -5.833   3.042 -33.666  1.00  0.00     0.053 A 
HETATM   20  N   UNL     1      -5.010   2.493 -32.732  1.00  0.00    -0.264 NA
HETATM   21  C   UNL     1      -5.021   1.146 -32.607  1.00  0.00     0.118 A 
HETATM   22  C   UNL     1      -5.827   0.309 -33.355  1.00  0.00     0.043 A 
HETATM   23  C   UNL     1      -6.673   0.894 -34.284  1.00  0.00     0.037 A 
HETATM   24 CL   UNL     1      -7.712  -0.091 -35.237  1.00  0.00    -0.084 Cl
HETATM   25  C   UNL     1      -6.687   2.272 -34.450  1.00  0.00     0.052 A 
ENDBRANCH  18  19
ENDBRANCH   3  18
TORSDOF 5
ENDMDL
MODEL 6
REMARK VINA RESULT:      -7.3      5.197      7.740
REMARK  5 active torsions:
REMARK  status: ('A' for Active; 'I' for Inactive)
REMARK    1  A    between atoms: C_3  and  O_4 
REMARK    2  A    between atoms: O_4  and  C_5 
REMARK    3  A    between atoms: C_10  and  N_11 
REMARK       I    between atoms: N_11  and  C_12 
REMARK       I    between atoms: C_12  and  N_13 
REMARK    4  A    between atoms: N_13  and  C_14 
REMARK    5  A    between atoms: C_14  and  C_15 
ROOT
HETATM    1  N   UNL     1      -7.356   1.008 -31.648  1.00  0.00    -0.309 N 
HETATM    2  C   UNL     1      -8.154   2.062 -31.934  1.00  0.00     0.321 C 
HETATM    3  N   UNL     1      -8.647   2.215 -33.186  1.00  0.00    -0.337 N 
HETATM    4  O   UNL     1      -8.427   2.846 -31.024  1.00  0.00    -0.247 OA
HETATM    5  H   UNL     1      -7.180   0.989 -30.651  1.00  0.00     0.170 HD
HETATM    6  H   UNL     1      -8.831   1.372 -33.709  1.00  0.00     0.164 HD
ENDROOT
BRANCH   1   7
HETATM    7  C   UNL     1      -6.711   0.008 -32.394  1.00  0.00     0.037 A 
HETATM    8  C   UNL     1      -7.227  -0.639 -33.513  1.00  0.00     0.032 A 
HETATM    9  C   UNL     1      -6.479  -1.630 -34.171  1.00  0.00     0.039 A 
HETATM   10  C   UNL     1      -5.195  -1.969 -33.736  1.00  0.00     0.075 A 
HETATM   11  C   UNL     1      -4.650  -1.297 -32.633  1.00  0.00    -0.026 A 
HETATM   12  C   UNL     1      -3.265  -1.616 -32.138  1.00  0.00     0.051 C 
HETATM   13  C   UNL     1      -5.415  -0.323 -31.974  1.00  0.00     0.039 A 
BRANCH  10  14
HETATM   14  O   UNL     1      -4.398  -2.937 -34.280  1.00  0.00    -0.346 OA
BRANCH  14  15
HETATM   15  C   UNL     1      -4.645  -4.316 -33.996  1.00  0.00     0.121 C 
HETATM   16  C   UNL     1      -5.488  -4.937 -35.107  1.00  0.00     0.040 C 
HETATM   17  C   UNL     1      -3.279  -4.995 -33.941  1.00  0.00     0.040 C 
ENDBRANCH  14  15
ENDBRANCH  10  14
ENDBRANCH   1   7
BRANCH   3  18
HETATM   18  C   UNL     1      -9.589   3.289 -33.427  1.00  0.00     0.183 C 
BRANCH  18  19
HETATM   19  C   UNL     1     -10.955   2.820 -33.872  1.00  0.00     0.053 A 
HETATM   20  N   UNL     1     -11.721   3.653 -34.627  1.00  0.00    -0.264 NA
HETATM   21  C   UNL     1     -12.931   3.196 -35.024  1.00  0.00     0.118 A 
HETATM   22  C   UNL     1     -13.417   1.938 -34.725  1.00  0.00     0.043 A 
HETATM   23  C   UNL     1     -12.609   1.101 -33.973  1.00  0.00     0.037 A 
HETATM   24 CL   UNL     1     -13.148  -0.484 -33.576  1.00  0.00    -0.084 Cl
HETATM   25  C   UNL     1     -11.363   1.532 -33.538  1.00  0.00     0.052 A 
ENDBRANCH  18  19
ENDBRANCH   3  18
TORSDOF 5
ENDMDL
MODEL 7
REMARK VINA RESULT:      -7.2      3.703      8.098
REMARK  5 active torsions:
REMARK  status: ('A' for Active; 'I' for Inactive)
REMARK    1  A    between atoms: C_3  and  O_4 
REMARK    2  A    between atoms: O_4  and  C_5 
REMARK    3  A    between atoms: C_10  and  N_11 
REMARK       I    between atoms: N_11  and  C_12 
REMARK       I    between atoms: C_12  and  N_13 
REMARK    4  A    between atoms: N_13  and  C_14 
REMARK    5  A    between atoms: C_14  and  C_15 
ROOT
HETATM    1  N   UNL     1      -6.844   2.092 -30.943  1.00  0.00    -0.309 N 
HETATM    2  C   UNL     1      -6.280   3.280 -30.628  1.00  0.00     0.321 C 
HETATM    3  N   UNL     1      -5.206   3.723 -31.325  1.00  0.00    -0.337 N 
HETATM    4  O   UNL     1      -6.786   3.938 -29.719  1.00  0.00    -0.247 OA
HETATM    5  H   UNL     1      -7.694   1.978 -30.406  1.00  0.00     0.170 HD
HETATM    6  H   UNL     1      -5.151   3.457 -32.296  1.00  0.00     0.164 HD
ENDROOT
BRANCH   1   7
HETATM    7  C   UNL     1      -6.506   1.012 -31.776  1.00  0.00     0.037 A 
HETATM    8  C   UNL     1      -5.692  -0.063 -31.433  1.00  0.00     0.032 A 
HETATM    9  C   UNL     1      -5.427  -1.083 -32.363  1.00  0.00     0.039 A 
HETATM   10  C   UNL     1      -5.994  -1.055 -33.640  1.00  0.00     0.075 A 
HETATM   11  C   UNL     1      -6.847   0.003 -33.984  1.00  0.00    -0.026 A 
HETATM   12  C   UNL     1      -7.493   0.067 -35.341  1.00  0.00     0.051 C 
HETATM   13  C   UNL     1      -7.088   1.024 -33.052  1.00  0.00     0.039 A 
BRANCH  10  14
HETATM   14  O   UNL     1      -5.778  -1.973 -34.629  1.00  0.00    -0.346 OA
BRANCH  14  15
HETATM   15  C   UNL     1      -5.690  -3.364 -34.312  1.00  0.00     0.121 C 
HETATM   16  C   UNL     1      -6.506  -4.182 -35.309  1.00  0.00     0.040 C 
HETATM   17  C   UNL     1      -4.213  -3.737 -34.422  1.00  0.00     0.040 C 
ENDBRANCH  14  15
ENDBRANCH  10  14
ENDBRANCH   1   7
BRANCH   3  18
HETATM   18  C   UNL     1      -4.699   5.049 -31.036  1.00  0.00     0.183 C 
BRANCH  18  19
HETATM   19  C   UNL     1      -3.461   5.419 -31.821  1.00  0.00     0.053 A 
HETATM   20  N   UNL     1      -3.608   5.950 -33.064  1.00  0.00    -0.264 NA
HETATM   21  C   UNL     1      -2.481   6.288 -33.733  1.00  0.00     0.118 A 
HETATM   22  C   UNL     1      -1.206   6.141 -33.221  1.00  0.00     0.043 A 
HETATM   23  C   UNL     1      -1.085   5.618 -31.943  1.00  0.00     0.037 A 
HETATM   24 CL   UNL     1       0.473   5.421 -31.241  1.00  0.00    -0.084 Cl
HETATM   25  C   UNL     1      -2.215   5.251 -31.225  1.00  0.00     0.052 A 
ENDBRANCH  18  19
ENDBRANCH   3  18
TORSDOF 5
ENDMDL
MODEL 8
REMARK VINA RESULT:      -7.0      1.588      2.472
REMARK  5 active torsions:
REMARK  status: ('A' for Active; 'I' for Inactive)
REMARK    1  A    between atoms: C_3  and  O_4 
REMARK    2  A    between atoms: O_4  and  C_5 
REMARK    3  A    between atoms: C_10  and  N_11 
REMARK       I    between atoms: N_11  and  C_12 
REMARK       I    between atoms: C_12  and  N_13 
REMARK    4  A    between atoms: N_13  and  C_14 
REMARK    5  A    between atoms: C_14  and  C_15 
ROOT
HETATM    1  N   UNL     1      -7.730   3.486 -33.348  1.00  0.00    -0.309 N 
HETATM    2  C   UNL     1      -8.055   2.173 -33.360  1.00  0.00     0.321 C 
HETATM    3  N   UNL     1      -7.114   1.243 -33.074  1.00  0.00    -0.337 N 
HETATM    4  O   UNL     1      -9.221   1.868 -33.615  1.00  0.00    -0.247 OA
HETATM    5  H   UNL     1      -8.572   4.035 -33.467  1.00  0.00     0.170 HD
HETATM    6  H   UNL     1      -6.395   1.508 -32.418  1.00  0.00     0.164 HD
ENDROOT
BRANCH   1   7
HETATM    7  C   UNL     1      -6.537   4.222 -33.254  1.00  0.00     0.037 A 
HETATM    8  C   UNL     1      -5.638   4.458 -34.290  1.00  0.00     0.032 A 
HETATM    9  C   UNL     1      -4.473   5.211 -34.064  1.00  0.00     0.039 A 
HETATM   10  C   UNL     1      -4.204   5.760 -32.807  1.00  0.00     0.075 A 
HETATM   11  C   UNL     1      -5.122   5.561 -31.767  1.00  0.00    -0.026 A 
HETATM   12  C   UNL     1      -4.884   6.147 -30.401  1.00  0.00     0.051 C 
HETATM   13  C   UNL     1      -6.272   4.792 -32.000  1.00  0.00     0.039 A 
BRANCH  10  14
HETATM   14  O   UNL     1      -3.090   6.477 -32.471  1.00  0.00    -0.346 OA
BRANCH  14  15
HETATM   15  C   UNL     1      -1.789   5.968 -32.774  1.00  0.00     0.121 C 
HETATM   16  C   UNL     1      -0.750   7.080 -32.657  1.00  0.00     0.040 C 
HETATM   17  C   UNL     1      -1.502   4.880 -31.741  1.00  0.00     0.040 C 
ENDBRANCH  14  15
ENDBRANCH  10  14
ENDBRANCH   1   7
BRANCH   3  18
HETATM   18  C   UNL     1      -7.525  -0.144 -32.985  1.00  0.00     0.183 C 
BRANCH  18  19
HETATM   19  C   UNL     1      -6.514  -1.121 -33.544  1.00  0.00     0.053 A 
HETATM   20  N   UNL     1      -5.191  -0.891 -33.326  1.00  0.00    -0.264 NA
HETATM   21  C   UNL     1      -4.314  -1.794 -33.822  1.00  0.00     0.118 A 
HETATM   22  C   UNL     1      -4.685  -2.931 -34.513  1.00  0.00     0.043 A 
HETATM   23  C   UNL     1      -6.039  -3.154 -34.702  1.00  0.00     0.037 A 
HETATM   24 CL   UNL     1      -6.569  -4.558 -35.543  1.00  0.00    -0.084 Cl
HETATM   25  C   UNL     1      -6.974  -2.249 -34.216  1.00  0.00     0.052 A 
ENDBRANCH  18  19
ENDBRANCH   3  18
TORSDOF 5
ENDMDL
MODEL 9
REMARK VINA RESULT:      -6.9      3.383      6.648
REMARK  5 active torsions:
REMARK  status: ('A' for Active; 'I' for Inactive)
REMARK    1  A    between atoms: C_3  and  O_4 
REMARK    2  A    between atoms: O_4  and  C_5 
REMARK    3  A    between atoms: C_10  and  N_11 
REMARK       I    between atoms: N_11  and  C_12 
REMARK       I    between atoms: C_12  and  N_13 
REMARK    4  A    between atoms: N_13  and  C_14 
REMARK    5  A    between atoms: C_14  and  C_15 
ROOT
HETATM    1  N   UNL     1      -5.036   2.647 -32.168  1.00  0.00    -0.309 N 
HETATM    2  C   UNL     1      -4.133   1.717 -31.782  1.00  0.00     0.321 C 
HETATM    3  N   UNL     1      -4.432   0.400 -31.891  1.00  0.00    -0.337 N 
HETATM    4  O   UNL     1      -3.045   2.107 -31.358  1.00  0.00    -0.247 OA
HETATM    5  H   UNL     1      -4.605   3.562 -32.128  1.00  0.00     0.170 HD
HETATM    6  H   UNL     1      -5.038   0.132 -32.652  1.00  0.00     0.164 HD
ENDROOT
BRANCH   1   7
HETATM    7  C   UNL     1      -6.387   2.633 -32.553  1.00  0.00     0.037 A 
HETATM    8  C   UNL     1      -6.871   2.367 -33.831  1.00  0.00     0.032 A 
HETATM    9  C   UNL     1      -8.253   2.388 -34.088  1.00  0.00     0.039 A 
HETATM   10  C   UNL     1      -9.170   2.650 -33.067  1.00  0.00     0.075 A 
HETATM   11  C   UNL     1      -8.696   2.882 -31.768  1.00  0.00    -0.026 A 
HETATM   12  C   UNL     1      -9.646   3.151 -30.633  1.00  0.00     0.051 C 
HETATM   13  C   UNL     1      -7.313   2.876 -31.528  1.00  0.00     0.039 A 
BRANCH  10  14
HETATM   14  O   UNL     1     -10.526   2.727 -33.213  1.00  0.00    -0.346 OA
BRANCH  14  15
HETATM   15  C   UNL     1     -11.184   1.972 -34.233  1.00  0.00     0.121 C 
HETATM   16  C   UNL     1     -11.996   0.841 -33.608  1.00  0.00     0.040 C 
HETATM   17  C   UNL     1     -12.118   2.944 -34.952  1.00  0.00     0.040 C 
ENDBRANCH  14  15
ENDBRANCH  10  14
ENDBRANCH   1   7
BRANCH   3  18
HETATM   18  C   UNL     1      -3.400  -0.567 -31.575  1.00  0.00     0.183 C 
BRANCH  18  19
HETATM   19  C   UNL     1      -3.543  -1.880 -32.311  1.00  0.00     0.053 A 
HETATM   20  N   UNL     1      -2.933  -2.985 -31.804  1.00  0.00    -0.264 NA
HETATM   21  C   UNL     1      -3.095  -4.148 -32.476  1.00  0.00     0.118 A 
HETATM   22  C   UNL     1      -3.853  -4.277 -33.624  1.00  0.00     0.043 A 
HETATM   23  C   UNL     1      -4.483  -3.141 -34.107  1.00  0.00     0.037 A 
HETATM   24 CL   UNL     1      -5.453  -3.235 -35.525  1.00  0.00    -0.084 Cl
HETATM   25  C   UNL     1      -4.336  -1.925 -33.453  1.00  0.00     0.052 A 
ENDBRANCH  18  19
ENDBRANCH   3  18
TORSDOF 5
ENDMDL
MODEL 10
REMARK VINA RESULT:      -6.8      5.457      8.311
REMARK  5 active torsions:
REMARK  status: ('A' for Active; 'I' for Inactive)
REMARK    1  A    between atoms: C_3  and  O_4 
REMARK    2  A    between atoms: O_4  and  C_5 
REMARK    3  A    between atoms: C_10  and  N_11 
REMARK       I    between atoms: N_11  and  C_12 
REMARK       I    between atoms: C_12  and  N_13 
REMARK    4  A    between atoms: N_13  and  C_14 
REMARK    5  A    between atoms: C_14  and  C_15 
ROOT
HETATM    1  N   UNL     1      -7.466   1.603 -32.035  1.00  0.00    -0.309 N 
HETATM    2  C   UNL     1      -7.877   2.853 -32.346  1.00  0.00     0.321 C 
HETATM    3  N   UNL     1      -8.066   3.199 -33.642  1.00  0.00    -0.337 N 
HETATM    4  O   UNL     1      -8.089   3.639 -31.422  1.00  0.00    -0.247 OA
HETATM    5  H   UNL     1      -7.491   1.487 -31.030  1.00  0.00     0.170 HD
HETATM    6  H   UNL     1      -8.373   2.470 -34.268  1.00  0.00     0.164 HD
ENDROOT
BRANCH   1   7
HETATM    7  C   UNL     1      -6.992   0.495 -32.758  1.00  0.00     0.037 A 
HETATM    8  C   UNL     1      -7.724  -0.263 -33.667  1.00  0.00     0.032 A 
HETATM    9  C   UNL     1      -7.132  -1.355 -34.325  1.00  0.00     0.039 A 
HETATM   10  C   UNL     1      -5.793  -1.687 -34.103  1.00  0.00     0.075 A 
HETATM   11  C   UNL     1      -5.035  -0.908 -33.218  1.00  0.00    -0.026 A 
HETATM   12  C   UNL     1      -3.586  -1.217 -32.960  1.00  0.00     0.051 C 
HETATM   13  C   UNL     1      -5.643   0.168 -32.554  1.00  0.00     0.039 A 
BRANCH  10  14
HETATM   14  O   UNL     1      -5.130  -2.744 -34.662  1.00  0.00    -0.346 OA
BRANCH  14  15
HETATM   15  C   UNL     1      -5.553  -4.082 -34.391  1.00  0.00     0.121 C 
HETATM   16  C   UNL     1      -6.265  -4.664 -35.609  1.00  0.00     0.040 C 
HETATM   17  C   UNL     1      -4.285  -4.883 -34.102  1.00  0.00     0.040 C 
ENDBRANCH  14  15
ENDBRANCH  10  14
ENDBRANCH   1   7
BRANCH   3  18
HETATM   18  C   UNL     1      -8.615   4.509 -33.930  1.00  0.00     0.183 C 
BRANCH  18  19
HETATM   19  C   UNL     1      -9.997   4.474 -34.541  1.00  0.00     0.053 A 
HETATM   20  N   UNL     1     -10.595   3.270 -34.743  1.00  0.00    -0.264 NA
HETATM   21  C   UNL     1     -11.840   3.274 -35.273  1.00  0.00     0.118 A 
HETATM   22  C   UNL     1     -12.535   4.423 -35.600  1.00  0.00     0.043 A 
HETATM   23  C   UNL     1     -11.913   5.638 -35.363  1.00  0.00     0.037 A 
HETATM   24 CL   UNL     1     -12.729   7.106 -35.734  1.00  0.00    -0.084 Cl
HETATM   25  C   UNL     1     -10.633   5.679 -34.827  1.00  0.00     0.052 A 
ENDBRANCH  18  19
ENDBRANCH   3  18
TORSDOF 5
ENDMDL
