MODEL 1
REMARK VINA RESULT:      -9.2      0.000      0.000
REMARK  9 active torsions:
REMARK  status: ('A' for Active; 'I' for Inactive)
REMARK    1  A    between atoms: C_2  and  O_3 
REMARK    2  A    between atoms: O_3  and  C_4 
REMARK    3  A    between atoms: C_7  and  N_8 
REMARK    4  A    between atoms: C_9  and  S_10 
REMARK    5  A    between atoms: S_10  and  C_11 
REMARK    6  A    between atoms: C_11  and  C_12 
REMARK       I    between atoms: C_12  and  N_13 
REMARK    7  A    between atoms: N_13  and  C_14 
REMARK    8  A    between atoms: C_17  and  S_18 
REMARK    9  A    between atoms: S_18  and  N_19 
ROOT
HETATM    1  N   UNL     1      -8.386   1.266 -32.817  1.00  0.00    -0.256 N 
HETATM    2  C   UNL     1      -7.857   1.804 -31.637  1.00  0.00     0.177 A 
HETATM    3  N   UNL     1      -6.731   1.473 -31.086  1.00  0.00    -0.216 NA
HETATM    4  C   UNL     1      -6.067   0.471 -31.699  1.00  0.00     0.117 A 
HETATM    5  C   UNL     1      -6.474  -0.210 -32.820  1.00  0.00     0.076 A 
HETATM    6  C   UNL     1      -7.717   0.197 -33.455  1.00  0.00     0.268 A 
HETATM    7  O   UNL     1      -8.094  -0.361 -34.484  1.00  0.00    -0.267 OA
HETATM    8  S   UNL     1      -4.600  -0.131 -31.073  1.00  0.00    -0.073 SA
HETATM    9  C   UNL     1      -4.510  -1.322 -32.282  1.00  0.00    -0.008 A 
HETATM   10  C   UNL     1      -5.557  -1.252 -33.182  1.00  0.00    -0.026 A 
HETATM   11  C   UNL     1      -5.681  -2.210 -34.332  1.00  0.00     0.041 C 
HETATM   12  C   UNL     1      -4.376  -2.986 -34.577  1.00  0.00     0.005 C 
HETATM   13  C   UNL     1      -3.746  -3.477 -33.266  1.00  0.00     0.005 C 
HETATM   14  C   UNL     1      -3.382  -2.305 -32.342  1.00  0.00     0.047 C 
ENDROOT
BRANCH   2  15
HETATM   15  S   UNL     1      -8.783   2.954 -30.674  1.00  0.00    -0.082 SA
BRANCH  15  16
HETATM   16  C   UNL     1      -7.945   4.482 -31.192  1.00  0.00     0.185 C 
BRANCH  16  17
HETATM   17  C   UNL     1      -6.566   4.744 -30.584  1.00  0.00     0.231 C 
HETATM   18  N   UNL     1      -5.577   5.132 -31.460  1.00  0.00    -0.327 N 
HETATM   19  H   UNL     1      -5.851   5.180 -32.439  1.00  0.00     0.169 HD
HETATM   20  O   UNL     1      -6.409   4.555 -29.377  1.00  0.00    -0.272 OA
BRANCH  18  21
HETATM   21  C   UNL     1      -4.208   5.339 -31.209  1.00  0.00     0.034 A 
HETATM   22  C   UNL     1      -3.695   6.415 -30.482  1.00  0.00     0.031 A 
HETATM   23  C   UNL     1      -2.319   6.518 -30.243  1.00  0.00     0.027 A 
HETATM   24  C   UNL     1      -1.454   5.538 -30.734  1.00  0.00     0.074 A 
HETATM   25  C   UNL     1      -1.949   4.473 -31.487  1.00  0.00     0.027 A 
HETATM   26  C   UNL     1      -3.324   4.376 -31.716  1.00  0.00     0.031 A 
BRANCH  24  27
HETATM   27  S   UNL     1       0.284   5.663 -30.445  1.00  0.00     0.239 S 
HETATM   28  O   UNL     1       0.956   4.578 -31.123  1.00  0.00    -0.206 OA
HETATM   29  O   UNL     1       0.699   7.039 -30.583  1.00  0.00    -0.206 OA
BRANCH  27  30
HETATM   30  N   UNL     1       0.387   5.317 -28.804  1.00  0.00    -0.225 NA
HETATM   31  H   UNL     1       1.314   4.952 -28.584  1.00  0.00     0.136 HD
HETATM   32  H   UNL     1       0.125   6.140 -28.261  1.00  0.00     0.136 HD
ENDBRANCH  27  30
ENDBRANCH  24  27
ENDBRANCH  18  21
ENDBRANCH  16  17
ENDBRANCH  15  16
ENDBRANCH   2  15
BRANCH   1  33
HETATM   33  C   UNL     1      -9.549   1.797 -33.474  1.00  0.00     0.045 A 
HETATM   34  C   UNL     1      -9.481   3.000 -34.188  1.00  0.00     0.033 A 
HETATM   35  C   UNL     1     -10.625   3.550 -34.775  1.00  0.00     0.039 A 
HETATM   36  C   UNL     1     -11.863   2.920 -34.653  1.00  0.00     0.068 A 
HETATM   37  C   UNL     1     -11.944   1.721 -33.949  1.00  0.00     0.039 A 
HETATM   38  C   UNL     1     -10.798   1.170 -33.357  1.00  0.00     0.033 A 
BRANCH  36  39
HETATM   39  O   UNL     1     -12.901   3.577 -35.250  1.00  0.00    -0.352 OA
BRANCH  39  40
HETATM   40  C   UNL     1     -12.614   4.836 -35.855  1.00  0.00     0.171 C 
HETATM   41  C   UNL     1     -13.456   5.892 -35.162  1.00  0.00     0.034 C 
ENDBRANCH  39  40
ENDBRANCH  36  39
ENDBRANCH   1  33
TORSDOF 9
ENDMDL
MODEL 2
REMARK VINA RESULT:      -8.9      2.827      8.733
REMARK  9 active torsions:
REMARK  status: ('A' for Active; 'I' for Inactive)
REMARK    1  A    between atoms: C_2  and  O_3 
REMARK    2  A    between atoms: O_3  and  C_4 
REMARK    3  A    between atoms: C_7  and  N_8 
REMARK    4  A    between atoms: C_9  and  S_10 
REMARK    5  A    between atoms: S_10  and  C_11 
REMARK    6  A    between atoms: C_11  and  C_12 
REMARK       I    between atoms: C_12  and  N_13 
REMARK    7  A    between atoms: N_13  and  C_14 
REMARK    8  A    between atoms: C_17  and  S_18 
REMARK    9  A    between atoms: S_18  and  N_19 
ROOT
HETATM    1  N   UNL     1      -4.739   2.613 -33.099  1.00  0.00    -0.256 N 
HETATM    2  C   UNL     1      -6.008   2.952 -33.586  1.00  0.00     0.177 A 
HETATM    3  N   UNL     1      -6.914   2.121 -33.996  1.00  0.00    -0.216 NA
HETATM    4  C   UNL     1      -6.542   0.824 -34.000  1.00  0.00     0.117 A 
HETATM    5  C   UNL     1      -5.318   0.327 -33.621  1.00  0.00     0.076 A 
HETATM    6  C   UNL     1      -4.323   1.262 -33.123  1.00  0.00     0.268 A 
HETATM    7  O   UNL     1      -3.231   0.850 -32.736  1.00  0.00    -0.267 OA
HETATM    8  S   UNL     1      -7.589  -0.395 -34.567  1.00  0.00    -0.073 SA
HETATM    9  C   UNL     1      -6.408  -1.595 -34.333  1.00  0.00    -0.008 A 
HETATM   10  C   UNL     1      -5.236  -1.094 -33.795  1.00  0.00    -0.026 A 
HETATM   11  C   UNL     1      -4.055  -1.977 -33.507  1.00  0.00     0.041 C 
HETATM   12  C   UNL     1      -4.429  -3.468 -33.536  1.00  0.00     0.005 C 
HETATM   13  C   UNL     1      -5.338  -3.808 -34.726  1.00  0.00     0.005 C 
HETATM   14  C   UNL     1      -6.663  -3.033 -34.663  1.00  0.00     0.047 C 
ENDROOT
BRANCH   2  15
HETATM   15  S   UNL     1      -6.466   4.639 -33.814  1.00  0.00    -0.082 SA
BRANCH  15  16
HETATM   16  C   UNL     1      -7.257   4.928 -32.203  1.00  0.00     0.185 C 
BRANCH  16  17
HETATM   17  C   UNL     1      -8.560   4.172 -31.937  1.00  0.00     0.231 C 
HETATM   18  N   UNL     1      -9.248   3.735 -33.046  1.00  0.00    -0.327 N 
HETATM   19  H   UNL     1      -8.838   3.984 -33.944  1.00  0.00     0.169 HD
HETATM   20  O   UNL     1      -8.936   4.037 -30.772  1.00  0.00    -0.272 OA
BRANCH  18  21
HETATM   21  C   UNL     1     -10.509   3.113 -33.114  1.00  0.00     0.034 A 
HETATM   22  C   UNL     1     -11.698   3.695 -32.673  1.00  0.00     0.031 A 
HETATM   23  C   UNL     1     -12.917   3.020 -32.820  1.00  0.00     0.027 A 
HETATM   24  C   UNL     1     -12.941   1.756 -33.412  1.00  0.00     0.074 A 
HETATM   25  C   UNL     1     -11.757   1.149 -33.831  1.00  0.00     0.027 A 
HETATM   26  C   UNL     1     -10.548   1.832 -33.686  1.00  0.00     0.031 A 
BRANCH  24  27
HETATM   27  S   UNL     1     -14.472   0.892 -33.596  1.00  0.00     0.239 S 
HETATM   28  O   UNL     1     -15.382   1.316 -32.557  1.00  0.00    -0.206 OA
HETATM   29  O   UNL     1     -14.846   0.864 -34.990  1.00  0.00    -0.206 OA
BRANCH  27  30
HETATM   30  N   UNL     1     -14.030  -0.682 -33.208  1.00  0.00    -0.225 NA
HETATM   31  H   UNL     1     -14.554  -1.341 -33.783  1.00  0.00     0.136 HD
HETATM   32  H   UNL     1     -13.017  -0.782 -33.280  1.00  0.00     0.136 HD
ENDBRANCH  27  30
ENDBRANCH  24  27
ENDBRANCH  18  21
ENDBRANCH  16  17
ENDBRANCH  15  16
ENDBRANCH   2  15
BRANCH   1  33
HETATM   33  C   UNL     1      -3.846   3.562 -32.493  1.00  0.00     0.045 A 
HETATM   34  C   UNL     1      -2.722   4.032 -33.185  1.00  0.00     0.033 A 
HETATM   35  C   UNL     1      -1.819   4.907 -32.574  1.00  0.00     0.039 A 
HETATM   36  C   UNL     1      -2.008   5.324 -31.258  1.00  0.00     0.068 A 
HETATM   37  C   UNL     1      -3.124   4.868 -30.559  1.00  0.00     0.039 A 
HETATM   38  C   UNL     1      -4.029   3.988 -31.169  1.00  0.00     0.033 A 
BRANCH  36  39
HETATM   39  O   UNL     1      -1.038   6.156 -30.775  1.00  0.00    -0.352 OA
BRANCH  39  40
HETATM   40  C   UNL     1       0.157   5.549 -30.288  1.00  0.00     0.171 C 
HETATM   41  C   UNL     1       0.273   5.865 -28.808  1.00  0.00     0.034 C 
ENDBRANCH  39  40
ENDBRANCH  36  39
ENDBRANCH   1  33
TORSDOF 9
ENDMDL
MODEL 3
REMARK VINA RESULT:      -8.9      1.853      2.266
REMARK  9 active torsions:
REMARK  status: ('A' for Active; 'I' for Inactive)
REMARK    1  A    between atoms: C_2  and  O_3 
REMARK    2  A    between atoms: O_3  and  C_4 
REMARK    3  A    between atoms: C_7  and  N_8 
REMARK    4  A    between atoms: C_9  and  S_10 
REMARK    5  A    between atoms: S_10  and  C_11 
REMARK    6  A    between atoms: C_11  and  C_12 
REMARK       I    between atoms: C_12  and  N_13 
REMARK    7  A    between atoms: N_13  and  C_14 
REMARK    8  A    between atoms: C_17  and  S_18 
REMARK    9  A    between atoms: S_18  and  N_19 
ROOT
HETATM    1  N   UNL     1      -8.820   0.673 -32.651  1.00  0.00    -0.256 N 
HETATM    2  C   UNL     1      -8.370   1.568 -31.673  1.00  0.00     0.177 A 
HETATM    3  N   UNL     1      -7.171   1.621 -31.181  1.00  0.00    -0.216 NA
HETATM    4  C   UNL     1      -6.326   0.671 -31.631  1.00  0.00     0.117 A 
HETATM    5  C   UNL     1      -6.621  -0.321 -32.535  1.00  0.00     0.076 A 
HETATM    6  C   UNL     1      -7.956  -0.346 -33.113  1.00  0.00     0.268 A 
HETATM    7  O   UNL     1      -8.245  -1.193 -33.955  1.00  0.00    -0.267 OA
HETATM    8  S   UNL     1      -4.730   0.556 -31.043  1.00  0.00    -0.073 SA
HETATM    9  C   UNL     1      -4.429  -0.833 -31.974  1.00  0.00    -0.008 A 
HETATM   10  C   UNL     1      -5.508  -1.198 -32.758  1.00  0.00    -0.026 A 
HETATM   11  C   UNL     1      -5.465  -2.398 -33.659  1.00  0.00     0.041 C 
HETATM   12  C   UNL     1      -4.031  -2.913 -33.865  1.00  0.00     0.005 C 
HETATM   13  C   UNL     1      -3.239  -2.943 -32.550  1.00  0.00     0.005 C 
HETATM   14  C   UNL     1      -3.108  -1.539 -31.938  1.00  0.00     0.047 C 
ENDROOT
BRANCH   2  15
HETATM   15  S   UNL     1      -9.487   2.683 -30.887  1.00  0.00    -0.082 SA
BRANCH  15  16
HETATM   16  C   UNL     1      -8.280   3.654 -29.937  1.00  0.00     0.185 C 
BRANCH  16  17
HETATM   17  C   UNL     1      -7.307   4.513 -30.745  1.00  0.00     0.231 C 
HETATM   18  N   UNL     1      -5.966   4.290 -30.523  1.00  0.00    -0.327 N 
HETATM   19  H   UNL     1      -5.749   3.591 -29.815  1.00  0.00     0.169 HD
HETATM   20  O   UNL     1      -7.765   5.370 -31.502  1.00  0.00    -0.272 OA
BRANCH  18  21
HETATM   21  C   UNL     1      -4.858   4.989 -31.037  1.00  0.00     0.034 A 
HETATM   22  C   UNL     1      -3.662   4.386 -31.432  1.00  0.00     0.031 A 
HETATM   23  C   UNL     1      -2.626   5.156 -31.975  1.00  0.00     0.027 A 
HETATM   24  C   UNL     1      -2.789   6.534 -32.122  1.00  0.00     0.074 A 
HETATM   25  C   UNL     1      -3.968   7.154 -31.705  1.00  0.00     0.027 A 
HETATM   26  C   UNL     1      -4.998   6.378 -31.170  1.00  0.00     0.031 A 
BRANCH  24  27
HETATM   27  S   UNL     1      -1.485   7.515 -32.799  1.00  0.00     0.239 S 
HETATM   28  O   UNL     1      -0.227   7.089 -32.229  1.00  0.00    -0.206 OA
HETATM   29  O   UNL     1      -1.681   7.663 -34.222  1.00  0.00    -0.206 OA
BRANCH  27  30
HETATM   30  N   UNL     1      -1.805   9.024 -32.134  1.00  0.00    -0.225 NA
HETATM   31  H   UNL     1      -1.245   9.158 -31.292  1.00  0.00     0.136 HD
HETATM   32  H   UNL     1      -1.672   9.748 -32.841  1.00  0.00     0.136 HD
ENDBRANCH  27  30
ENDBRANCH  24  27
ENDBRANCH  18  21
ENDBRANCH  16  17
ENDBRANCH  15  16
ENDBRANCH   2  15
BRANCH   1  33
HETATM   33  C   UNL     1     -10.106   0.777 -33.285  1.00  0.00     0.045 A 
HETATM   34  C   UNL     1     -10.392   1.836 -34.156  1.00  0.00     0.033 A 
HETATM   35  C   UNL     1     -11.662   1.974 -34.723  1.00  0.00     0.039 A 
HETATM   36  C   UNL     1     -12.679   1.067 -34.427  1.00  0.00     0.068 A 
HETATM   37  C   UNL     1     -12.407   0.006 -33.566  1.00  0.00     0.039 A 
HETATM   38  C   UNL     1     -11.134  -0.132 -32.994  1.00  0.00     0.033 A 
BRANCH  36  39
HETATM   39  O   UNL     1     -13.876   1.333 -35.027  1.00  0.00    -0.352 OA
BRANCH  39  40
HETATM   40  C   UNL     1     -15.046   0.799 -34.411  1.00  0.00     0.171 C 
HETATM   41  C   UNL     1     -15.367   1.654 -33.198  1.00  0.00     0.034 C 
ENDBRANCH  39  40
ENDBRANCH  36  39
ENDBRANCH   1  33
TORSDOF 9
ENDMDL
MODEL 4
REMARK VINA RESULT:      -8.9      2.881      8.365
REMARK  9 active torsions:
REMARK  status: ('A' for Active; 'I' for Inactive)
REMARK    1  A    between atoms: C_2  and  O_3 
REMARK    2  A    between atoms: O_3  and  C_4 
REMARK    3  A    between atoms: C_7  and  N_8 
REMARK    4  A    between atoms: C_9  and  S_10 
REMARK    5  A    between atoms: S_10  and  C_11 
REMARK    6  A    between atoms: C_11  and  C_12 
REMARK       I    between atoms: C_12  and  N_13 
REMARK    7  A    between atoms: N_13  and  C_14 
REMARK    8  A    between atoms: C_17  and  S_18 
REMARK    9  A    between atoms: S_18  and  N_19 
ROOT
HETATM    1  N   UNL     1      -6.292   4.260 -32.476  1.00  0.00    -0.256 N 
HETATM    2  C   UNL     1      -6.217   3.219 -31.541  1.00  0.00     0.177 A 
HETATM    3  N   UNL     1      -7.058   2.239 -31.423  1.00  0.00    -0.216 NA
HETATM    4  C   UNL     1      -8.121   2.295 -32.250  1.00  0.00     0.117 A 
HETATM    5  C   UNL     1      -8.384   3.276 -33.176  1.00  0.00     0.076 A 
HETATM    6  C   UNL     1      -7.414   4.348 -33.331  1.00  0.00     0.268 A 
HETATM    7  O   UNL     1      -7.593   5.222 -34.176  1.00  0.00    -0.267 OA
HETATM    8  S   UNL     1      -9.355   1.120 -32.186  1.00  0.00    -0.073 SA
HETATM    9  C   UNL     1     -10.260   1.925 -33.378  1.00  0.00    -0.008 A 
HETATM   10  C   UNL     1      -9.627   3.058 -33.856  1.00  0.00    -0.026 A 
HETATM   11  C   UNL     1     -10.247   3.926 -34.913  1.00  0.00     0.041 C 
HETATM   12  C   UNL     1     -11.426   3.229 -35.613  1.00  0.00     0.005 C 
HETATM   13  C   UNL     1     -12.341   2.507 -34.614  1.00  0.00     0.005 C 
HETATM   14  C   UNL     1     -11.586   1.410 -33.848  1.00  0.00     0.047 C 
ENDROOT
BRANCH   2  15
HETATM   15  S   UNL     1      -4.974   3.216 -30.291  1.00  0.00    -0.082 SA
BRANCH  15  16
HETATM   16  C   UNL     1      -3.598   2.553 -31.276  1.00  0.00     0.185 C 
BRANCH  16  17
HETATM   17  C   UNL     1      -3.688   1.077 -31.669  1.00  0.00     0.231 C 
HETATM   18  N   UNL     1      -4.388   0.794 -32.820  1.00  0.00    -0.327 N 
HETATM   19  H   UNL     1      -4.807   1.595 -33.288  1.00  0.00     0.169 HD
HETATM   20  O   UNL     1      -3.178   0.238 -30.926  1.00  0.00    -0.272 OA
BRANCH  18  21
HETATM   21  C   UNL     1      -4.720  -0.461 -33.365  1.00  0.00     0.034 A 
HETATM   22  C   UNL     1      -3.814  -1.508 -33.539  1.00  0.00     0.031 A 
HETATM   23  C   UNL     1      -4.243  -2.740 -34.049  1.00  0.00     0.027 A 
HETATM   24  C   UNL     1      -5.585  -2.922 -34.384  1.00  0.00     0.074 A 
HETATM   25  C   UNL     1      -6.497  -1.875 -34.243  1.00  0.00     0.027 A 
HETATM   26  C   UNL     1      -6.061  -0.652 -33.729  1.00  0.00     0.031 A 
BRANCH  24  27
HETATM   27  S   UNL     1      -6.135  -4.470 -35.035  1.00  0.00     0.239 S 
HETATM   28  O   UNL     1      -7.314  -4.894 -34.316  1.00  0.00    -0.206 OA
HETATM   29  O   UNL     1      -6.078  -4.435 -36.477  1.00  0.00    -0.206 OA
BRANCH  27  30
HETATM   30  N   UNL     1      -4.903  -5.505 -34.553  1.00  0.00    -0.225 NA
HETATM   31  H   UNL     1      -4.433  -5.890 -35.372  1.00  0.00     0.136 HD
HETATM   32  H   UNL     1      -4.280  -5.021 -33.906  1.00  0.00     0.136 HD
ENDBRANCH  27  30
ENDBRANCH  24  27
ENDBRANCH  18  21
ENDBRANCH  16  17
ENDBRANCH  15  16
ENDBRANCH   2  15
BRANCH   1  33
HETATM   33  C   UNL     1      -5.239   5.217 -32.676  1.00  0.00     0.045 A 
HETATM   34  C   UNL     1      -4.278   5.026 -33.677  1.00  0.00     0.033 A 
HETATM   35  C   UNL     1      -3.217   5.924 -33.833  1.00  0.00     0.039 A 
HETATM   36  C   UNL     1      -3.084   7.024 -32.987  1.00  0.00     0.068 A 
HETATM   37  C   UNL     1      -4.035   7.229 -31.990  1.00  0.00     0.039 A 
HETATM   38  C   UNL     1      -5.097   6.328 -31.831  1.00  0.00     0.033 A 
BRANCH  36  39
HETATM   39  O   UNL     1      -1.989   7.805 -33.231  1.00  0.00    -0.352 OA
BRANCH  39  40
HETATM   40  C   UNL     1      -0.711   7.178 -33.148  1.00  0.00     0.171 C 
HETATM   41  C   UNL     1      -0.364   7.018 -31.678  1.00  0.00     0.034 C 
ENDBRANCH  39  40
ENDBRANCH  36  39
ENDBRANCH   1  33
TORSDOF 9
ENDMDL
MODEL 5
REMARK VINA RESULT:      -8.8      2.185      2.926
REMARK  9 active torsions:
REMARK  status: ('A' for Active; 'I' for Inactive)
REMARK    1  A    between atoms: C_2  and  O_3 
REMARK    2  A    between atoms: O_3  and  C_4 
REMARK    3  A    between atoms: C_7  and  N_8 
REMARK    4  A    between atoms: C_9  and  S_10 
REMARK    5  A    between atoms: S_10  and  C_11 
REMARK    6  A    between atoms: C_11  and  C_12 
REMARK       I    between atoms: C_12  and  N_13 
REMARK    7  A    between atoms: N_13  and  C_14 
REMARK    8  A    between atoms: C_17  and  S_18 
REMARK    9  A    between atoms: S_18  and  N_19 
ROOT
HETATM    1  N   UNL     1      -7.283   1.451 -32.920  1.00  0.00    -0.256 N 
HETATM    2  C   UNL     1      -6.006   1.902 -32.562  1.00  0.00     0.177 A 
HETATM    3  N   UNL     1      -4.896   1.249 -32.717  1.00  0.00    -0.216 NA
HETATM    4  C   UNL     1      -5.031   0.002 -33.213  1.00  0.00     0.117 A 
HETATM    5  C   UNL     1      -6.209  -0.618 -33.552  1.00  0.00     0.076 A 
HETATM    6  C   UNL     1      -7.445   0.137 -33.414  1.00  0.00     0.268 A 
HETATM    7  O   UNL     1      -8.514  -0.369 -33.746  1.00  0.00    -0.267 OA
HETATM    8  S   UNL     1      -3.680  -1.017 -33.423  1.00  0.00    -0.073 SA
HETATM    9  C   UNL     1      -4.662  -2.302 -33.946  1.00  0.00    -0.008 A 
HETATM   10  C   UNL     1      -6.002  -1.964 -34.002  1.00  0.00    -0.026 A 
HETATM   11  C   UNL     1      -7.051  -2.948 -34.435  1.00  0.00     0.041 C 
HETATM   12  C   UNL     1      -6.437  -4.179 -35.122  1.00  0.00     0.005 C 
HETATM   13  C   UNL     1      -5.199  -4.695 -34.375  1.00  0.00     0.005 C 
HETATM   14  C   UNL     1      -4.089  -3.634 -34.323  1.00  0.00     0.047 C 
ENDROOT
BRANCH   2  15
HETATM   15  S   UNL     1      -5.794   3.428 -31.707  1.00  0.00    -0.082 SA
BRANCH  15  16
HETATM   16  C   UNL     1      -4.225   3.949 -32.463  1.00  0.00     0.185 C 
BRANCH  16  17
HETATM   17  C   UNL     1      -3.093   4.316 -31.503  1.00  0.00     0.231 C 
HETATM   18  N   UNL     1      -3.107   5.600 -31.005  1.00  0.00    -0.327 N 
HETATM   19  H   UNL     1      -3.857   6.196 -31.350  1.00  0.00     0.169 HD
HETATM   20  O   UNL     1      -2.226   3.475 -31.266  1.00  0.00    -0.272 OA
BRANCH  18  21
HETATM   21  C   UNL     1      -2.152   6.243 -30.196  1.00  0.00     0.034 A 
HETATM   22  C   UNL     1      -0.779   6.245 -30.449  1.00  0.00     0.031 A 
HETATM   23  C   UNL     1       0.095   6.951 -29.613  1.00  0.00     0.027 A 
HETATM   24  C   UNL     1      -0.409   7.655 -28.519  1.00  0.00     0.074 A 
HETATM   25  C   UNL     1      -1.775   7.638 -28.236  1.00  0.00     0.027 A 
HETATM   26  C   UNL     1      -2.640   6.937 -29.079  1.00  0.00     0.031 A 
BRANCH  24  27
HETATM   27  S   UNL     1       0.687   8.541 -27.453  1.00  0.00     0.239 S 
HETATM   28  O   UNL     1       1.906   8.840 -28.170  1.00  0.00    -0.206 OA
HETATM   29  O   UNL     1      -0.053   9.548 -26.729  1.00  0.00    -0.206 OA
BRANCH  27  30
HETATM   30  N   UNL     1       1.093   7.368 -26.321  1.00  0.00    -0.225 NA
HETATM   31  H   UNL     1       0.862   7.696 -25.383  1.00  0.00     0.136 HD
HETATM   32  H   UNL     1       0.654   6.482 -26.571  1.00  0.00     0.136 HD
ENDBRANCH  27  30
ENDBRANCH  24  27
ENDBRANCH  18  21
ENDBRANCH  16  17
ENDBRANCH  15  16
ENDBRANCH   2  15
BRANCH   1  33
HETATM   33  C   UNL     1      -8.452   2.287 -32.889  1.00  0.00     0.045 A 
HETATM   34  C   UNL     1      -9.204   2.423 -31.715  1.00  0.00     0.033 A 
HETATM   35  C   UNL     1     -10.377   3.185 -31.700  1.00  0.00     0.039 A 
HETATM   36  C   UNL     1     -10.832   3.818 -32.856  1.00  0.00     0.068 A 
HETATM   37  C   UNL     1     -10.091   3.694 -34.030  1.00  0.00     0.039 A 
HETATM   38  C   UNL     1      -8.917   2.928 -34.047  1.00  0.00     0.033 A 
BRANCH  36  39
HETATM   39  O   UNL     1     -12.002   4.506 -32.709  1.00  0.00    -0.352 OA
BRANCH  39  40
HETATM   40  C   UNL     1     -13.084   4.142 -33.563  1.00  0.00     0.171 C 
HETATM   41  C   UNL     1     -13.858   3.023 -32.887  1.00  0.00     0.034 C 
ENDBRANCH  39  40
ENDBRANCH  36  39
ENDBRANCH   1  33
TORSDOF 9
ENDMDL
MODEL 6
REMARK VINA RESULT:      -8.7      3.529      9.757
REMARK  9 active torsions:
REMARK  status: ('A' for Active; 'I' for Inactive)
REMARK    1  A    between atoms: C_2  and  O_3 
REMARK    2  A    between atoms: O_3  and  C_4 
REMARK    3  A    between atoms: C_7  and  N_8 
REMARK    4  A    between atoms: C_9  and  S_10 
REMARK    5  A    between atoms: S_10  and  C_11 
REMARK    6  A    between atoms: C_11  and  C_12 
REMARK       I    between atoms: C_12  and  N_13 
REMARK    7  A    between atoms: N_13  and  C_14 
REMARK    8  A    between atoms: C_17  and  S_18 
REMARK    9  A    between atoms: S_18  and  N_19 
ROOT
HETATM    1  N   UNL     1      -5.643   2.595 -32.171  1.00  0.00    -0.256 N 
HETATM    2  C   UNL     1      -6.608   3.236 -31.384  1.00  0.00     0.177 A 
HETATM    3  N   UNL     1      -6.469   4.381 -30.791  1.00  0.00    -0.216 NA
HETATM    4  C   UNL     1      -5.250   4.945 -30.914  1.00  0.00     0.117 A 
HETATM    5  C   UNL     1      -4.175   4.423 -31.590  1.00  0.00     0.076 A 
HETATM    6  C   UNL     1      -4.352   3.158 -32.287  1.00  0.00     0.268 A 
HETATM    7  O   UNL     1      -3.425   2.679 -32.936  1.00  0.00    -0.267 OA
HETATM    8  S   UNL     1      -4.877   6.421 -30.147  1.00  0.00    -0.073 SA
HETATM    9  C   UNL     1      -3.269   6.361 -30.692  1.00  0.00    -0.008 A 
HETATM   10  C   UNL     1      -3.012   5.255 -31.482  1.00  0.00    -0.026 A 
HETATM   11  C   UNL     1      -1.654   4.999 -32.071  1.00  0.00     0.041 C 
HETATM   12  C   UNL     1      -0.750   6.240 -31.994  1.00  0.00     0.005 C 
HETATM   13  C   UNL     1      -0.848   6.939 -30.631  1.00  0.00     0.005 C 
HETATM   14  C   UNL     1      -2.276   7.430 -30.351  1.00  0.00     0.047 C 
ENDROOT
BRANCH   2  15
HETATM   15  S   UNL     1      -8.136   2.443 -31.004  1.00  0.00    -0.082 SA
BRANCH  15  16
HETATM   16  C   UNL     1      -9.259   3.597 -31.849  1.00  0.00     0.185 C 
BRANCH  16  17
HETATM   17  C   UNL     1     -10.739   3.506 -31.474  1.00  0.00     0.231 C 
HETATM   18  N   UNL     1     -11.605   3.159 -32.486  1.00  0.00    -0.327 N 
HETATM   19  H   UNL     1     -11.179   3.024 -33.401  1.00  0.00     0.169 HD
HETATM   20  O   UNL     1     -11.072   3.786 -30.321  1.00  0.00    -0.272 OA
BRANCH  18  21
HETATM   21  C   UNL     1     -13.011   3.100 -32.463  1.00  0.00     0.034 A 
HETATM   22  C   UNL     1     -13.755   1.957 -32.763  1.00  0.00     0.031 A 
HETATM   23  C   UNL     1     -15.152   1.977 -32.671  1.00  0.00     0.027 A 
HETATM   24  C   UNL     1     -15.805   3.146 -32.277  1.00  0.00     0.074 A 
HETATM   25  C   UNL     1     -15.077   4.304 -32.003  1.00  0.00     0.027 A 
HETATM   26  C   UNL     1     -13.683   4.273 -32.092  1.00  0.00     0.031 A 
BRANCH  24  27
HETATM   27  S   UNL     1     -17.568   3.183 -32.166  1.00  0.00     0.239 S 
HETATM   28  O   UNL     1     -18.000   2.223 -31.176  1.00  0.00    -0.206 OA
HETATM   29  O   UNL     1     -18.023   4.553 -32.167  1.00  0.00    -0.206 OA
BRANCH  27  30
HETATM   30  N   UNL     1     -18.022   2.548 -33.654  1.00  0.00    -0.225 NA
HETATM   31  H   UNL     1     -17.549   1.658 -33.811  1.00  0.00     0.136 HD
HETATM   32  H   UNL     1     -19.040   2.493 -33.708  1.00  0.00     0.136 HD
ENDBRANCH  27  30
ENDBRANCH  24  27
ENDBRANCH  18  21
ENDBRANCH  16  17
ENDBRANCH  15  16
ENDBRANCH   2  15
BRANCH   1  33
HETATM   33  C   UNL     1      -5.914   1.416 -32.946  1.00  0.00     0.045 A 
HETATM   34  C   UNL     1      -5.490   0.155 -32.506  1.00  0.00     0.033 A 
HETATM   35  C   UNL     1      -5.698  -0.985 -33.290  1.00  0.00     0.039 A 
HETATM   36  C   UNL     1      -6.321  -0.892 -34.533  1.00  0.00     0.068 A 
HETATM   37  C   UNL     1      -6.752   0.355 -34.982  1.00  0.00     0.039 A 
HETATM   38  C   UNL     1      -6.541   1.499 -34.198  1.00  0.00     0.033 A 
BRANCH  36  39
HETATM   39  O   UNL     1      -6.436  -2.076 -35.206  1.00  0.00    -0.352 OA
BRANCH  39  40
HETATM   40  C   UNL     1      -5.708  -3.190 -34.693  1.00  0.00     0.171 C 
HETATM   41  C   UNL     1      -6.481  -4.451 -35.036  1.00  0.00     0.034 C 
ENDBRANCH  39  40
ENDBRANCH  36  39
ENDBRANCH   1  33
TORSDOF 9
ENDMDL
MODEL 7
REMARK VINA RESULT:      -8.6      2.754      8.874
REMARK  9 active torsions:
REMARK  status: ('A' for Active; 'I' for Inactive)
REMARK    1  A    between atoms: C_2  and  O_3 
REMARK    2  A    between atoms: O_3  and  C_4 
REMARK    3  A    between atoms: C_7  and  N_8 
REMARK    4  A    between atoms: C_9  and  S_10 
REMARK    5  A    between atoms: S_10  and  C_11 
REMARK    6  A    between atoms: C_11  and  C_12 
REMARK       I    between atoms: C_12  and  N_13 
REMARK    7  A    between atoms: N_13  and  C_14 
REMARK    8  A    between atoms: C_17  and  S_18 
REMARK    9  A    between atoms: S_18  and  N_19 
ROOT
HETATM    1  N   UNL     1      -4.152   4.172 -32.008  1.00  0.00    -0.256 N 
HETATM    2  C   UNL     1      -5.342   4.377 -32.717  1.00  0.00     0.177 A 
HETATM    3  N   UNL     1      -6.107   3.450 -33.206  1.00  0.00    -0.216 NA
HETATM    4  C   UNL     1      -5.649   2.191 -33.053  1.00  0.00     0.117 A 
HETATM    5  C   UNL     1      -4.474   1.819 -32.446  1.00  0.00     0.076 A 
HETATM    6  C   UNL     1      -3.644   2.861 -31.863  1.00  0.00     0.268 A 
HETATM    7  O   UNL     1      -2.606   2.564 -31.276  1.00  0.00    -0.267 OA
HETATM    8  S   UNL     1      -6.498   0.857 -33.690  1.00  0.00    -0.073 SA
HETATM    9  C   UNL     1      -5.291  -0.225 -33.181  1.00  0.00    -0.008 A 
HETATM   10  C   UNL     1      -4.264   0.401 -32.498  1.00  0.00    -0.026 A 
HETATM   11  C   UNL     1      -3.089  -0.363 -31.959  1.00  0.00     0.041 C 
HETATM   12  C   UNL     1      -3.347  -1.878 -31.938  1.00  0.00     0.005 C 
HETATM   13  C   UNL     1      -4.018  -2.364 -33.231  1.00  0.00     0.005 C 
HETATM   14  C   UNL     1      -5.386  -1.697 -33.441  1.00  0.00     0.047 C 
ENDROOT
BRANCH   2  15
HETATM   15  S   UNL     1      -5.873   6.004 -33.141  1.00  0.00    -0.082 SA
BRANCH  15  16
HETATM   16  C   UNL     1      -7.268   6.145 -31.984  1.00  0.00     0.185 C 
BRANCH  16  17
HETATM   17  C   UNL     1      -8.617   5.615 -32.473  1.00  0.00     0.231 C 
HETATM   18  N   UNL     1      -8.978   4.364 -32.027  1.00  0.00    -0.327 N 
HETATM   19  H   UNL     1      -8.296   3.894 -31.435  1.00  0.00     0.169 HD
HETATM   20  O   UNL     1      -9.272   6.304 -33.256  1.00  0.00    -0.272 OA
BRANCH  18  21
HETATM   21  C   UNL     1     -10.096   3.588 -32.387  1.00  0.00     0.034 A 
HETATM   22  C   UNL     1     -11.419   3.940 -32.115  1.00  0.00     0.031 A 
HETATM   23  C   UNL     1     -12.474   3.128 -32.550  1.00  0.00     0.027 A 
HETATM   24  C   UNL     1     -12.200   1.958 -33.261  1.00  0.00     0.074 A 
HETATM   25  C   UNL     1     -10.882   1.578 -33.515  1.00  0.00     0.027 A 
HETATM   26  C   UNL     1      -9.837   2.397 -33.082  1.00  0.00     0.031 A 
BRANCH  24  27
HETATM   27  S   UNL     1     -13.523   0.922 -33.807  1.00  0.00     0.239 S 
HETATM   28  O   UNL     1     -13.970   1.371 -35.106  1.00  0.00    -0.206 OA
HETATM   29  O   UNL     1     -13.201  -0.458 -33.532  1.00  0.00    -0.206 OA
BRANCH  27  30
HETATM   30  N   UNL     1     -14.748   1.329 -32.732  1.00  0.00    -0.225 NA
HETATM   31  H   UNL     1     -15.422   0.566 -32.669  1.00  0.00     0.136 HD
HETATM   32  H   UNL     1     -14.343   1.602 -31.836  1.00  0.00     0.136 HD
ENDBRANCH  27  30
ENDBRANCH  24  27
ENDBRANCH  18  21
ENDBRANCH  16  17
ENDBRANCH  15  16
ENDBRANCH   2  15
BRANCH   1  33
HETATM   33  C   UNL     1      -3.442   5.227 -31.337  1.00  0.00     0.045 A 
HETATM   34  C   UNL     1      -2.188   5.650 -31.796  1.00  0.00     0.033 A 
HETATM   35  C   UNL     1      -1.468   6.632 -31.108  1.00  0.00     0.039 A 
HETATM   36  C   UNL     1      -1.975   7.205 -29.942  1.00  0.00     0.068 A 
HETATM   37  C   UNL     1      -3.224   6.796 -29.477  1.00  0.00     0.039 A 
HETATM   38  C   UNL     1      -3.945   5.809 -30.165  1.00  0.00     0.033 A 
BRANCH  36  39
HETATM   39  O   UNL     1      -1.159   8.130 -29.356  1.00  0.00    -0.352 OA
BRANCH  39  40
HETATM   40  C   UNL     1      -0.501   7.747 -28.151  1.00  0.00     0.171 C 
HETATM   41  C   UNL     1       0.936   8.231 -28.229  1.00  0.00     0.034 C 
ENDBRANCH  39  40
ENDBRANCH  36  39
ENDBRANCH   1  33
TORSDOF 9
ENDMDL
MODEL 8
REMARK VINA RESULT:      -8.4      3.619      9.200
REMARK  9 active torsions:
REMARK  status: ('A' for Active; 'I' for Inactive)
REMARK    1  A    between atoms: C_2  and  O_3 
REMARK    2  A    between atoms: O_3  and  C_4 
REMARK    3  A    between atoms: C_7  and  N_8 
REMARK    4  A    between atoms: C_9  and  S_10 
REMARK    5  A    between atoms: S_10  and  C_11 
REMARK    6  A    between atoms: C_11  and  C_12 
REMARK       I    between atoms: C_12  and  N_13 
REMARK    7  A    between atoms: N_13  and  C_14 
REMARK    8  A    between atoms: C_17  and  S_18 
REMARK    9  A    between atoms: S_18  and  N_19 
ROOT
HETATM    1  N   UNL     1      -6.449   1.247 -32.792  1.00  0.00    -0.256 N 
HETATM    2  C   UNL     1      -7.515   0.961 -33.655  1.00  0.00     0.177 A 
HETATM    3  N   UNL     1      -7.743  -0.177 -34.233  1.00  0.00    -0.216 NA
HETATM    4  C   UNL     1      -6.813  -1.129 -34.009  1.00  0.00     0.117 A 
HETATM    5  C   UNL     1      -5.678  -0.996 -33.248  1.00  0.00     0.076 A 
HETATM    6  C   UNL     1      -5.452   0.270 -32.569  1.00  0.00     0.268 A 
HETATM    7  O   UNL     1      -4.469   0.414 -31.847  1.00  0.00    -0.267 OA
HETATM    8  S   UNL     1      -6.925  -2.664 -34.742  1.00  0.00    -0.073 SA
HETATM    9  C   UNL     1      -5.445  -3.155 -34.067  1.00  0.00    -0.008 A 
HETATM   10  C   UNL     1      -4.877  -2.186 -33.260  1.00  0.00    -0.026 A 
HETATM   11  C   UNL     1      -3.566  -2.404 -32.562  1.00  0.00     0.041 C 
HETATM   12  C   UNL     1      -3.152  -3.885 -32.562  1.00  0.00     0.005 C 
HETATM   13  C   UNL     1      -3.385  -4.545 -33.928  1.00  0.00     0.005 C 
HETATM   14  C   UNL     1      -4.869  -4.513 -34.324  1.00  0.00     0.047 C 
ENDROOT
BRANCH   2  15
HETATM   15  S   UNL     1      -8.633   2.227 -34.160  1.00  0.00    -0.082 SA
BRANCH  15  16
HETATM   16  C   UNL     1     -10.176   1.268 -34.101  1.00  0.00     0.185 C 
BRANCH  16  17
HETATM   17  C   UNL     1     -11.476   2.070 -34.028  1.00  0.00     0.231 C 
HETATM   18  N   UNL     1     -12.321   1.769 -32.984  1.00  0.00    -0.327 N 
HETATM   19  H   UNL     1     -12.013   1.015 -32.373  1.00  0.00     0.169 HD
HETATM   20  O   UNL     1     -11.710   2.894 -34.913  1.00  0.00    -0.272 OA
BRANCH  18  21
HETATM   21  C   UNL     1     -13.613   2.262 -32.724  1.00  0.00     0.034 A 
HETATM   22  C   UNL     1     -13.879   3.496 -32.126  1.00  0.00     0.031 A 
HETATM   23  C   UNL     1     -15.200   3.927 -31.946  1.00  0.00     0.027 A 
HETATM   24  C   UNL     1     -16.256   3.118 -32.366  1.00  0.00     0.074 A 
HETATM   25  C   UNL     1     -16.007   1.870 -32.938  1.00  0.00     0.027 A 
HETATM   26  C   UNL     1     -14.687   1.451 -33.119  1.00  0.00     0.031 A 
BRANCH  24  27
HETATM   27  S   UNL     1     -17.926   3.649 -32.136  1.00  0.00     0.239 S 
HETATM   28  O   UNL     1     -18.821   2.602 -32.573  1.00  0.00    -0.206 OA
HETATM   29  O   UNL     1     -18.055   4.293 -30.851  1.00  0.00    -0.206 OA
BRANCH  27  30
HETATM   30  N   UNL     1     -18.059   4.875 -33.277  1.00  0.00    -0.225 NA
HETATM   31  H   UNL     1     -17.847   4.510 -34.206  1.00  0.00     0.136 HD
HETATM   32  H   UNL     1     -18.977   5.315 -33.204  1.00  0.00     0.136 HD
ENDBRANCH  27  30
ENDBRANCH  24  27
ENDBRANCH  18  21
ENDBRANCH  16  17
ENDBRANCH  15  16
ENDBRANCH   2  15
BRANCH   1  33
HETATM   33  C   UNL     1      -6.347   2.469 -32.042  1.00  0.00     0.045 A 
HETATM   34  C   UNL     1      -7.009   2.615 -30.816  1.00  0.00     0.033 A 
HETATM   35  C   UNL     1      -6.962   3.824 -30.116  1.00  0.00     0.039 A 
HETATM   36  C   UNL     1      -6.266   4.919 -30.628  1.00  0.00     0.068 A 
HETATM   37  C   UNL     1      -5.600   4.786 -31.844  1.00  0.00     0.039 A 
HETATM   38  C   UNL     1      -5.648   3.575 -32.548  1.00  0.00     0.033 A 
BRANCH  36  39
HETATM   39  O   UNL     1      -6.324   6.045 -29.857  1.00  0.00    -0.352 OA
BRANCH  39  40
HETATM   40  C   UNL     1      -6.708   5.882 -28.494  1.00  0.00     0.171 C 
HETATM   41  C   UNL     1      -6.515   7.215 -27.791  1.00  0.00     0.034 C 
ENDBRANCH  39  40
ENDBRANCH  36  39
ENDBRANCH   1  33
TORSDOF 9
ENDMDL
MODEL 9
REMARK VINA RESULT:      -8.1      3.733      6.666
REMARK  9 active torsions:
REMARK  status: ('A' for Active; 'I' for Inactive)
REMARK    1  A    between atoms: C_2  and  O_3 
REMARK    2  A    between atoms: O_3  and  C_4 
REMARK    3  A    between atoms: C_7  and  N_8 
REMARK    4  A    between atoms: C_9  and  S_10 
REMARK    5  A    between atoms: S_10  and  C_11 
REMARK    6  A    between atoms: C_11  and  C_12 
REMARK       I    between atoms: C_12  and  N_13 
REMARK    7  A    between atoms: N_13  and  C_14 
REMARK    8  A    between atoms: C_17  and  S_18 
REMARK    9  A    between atoms: S_18  and  N_19 
ROOT
HETATM    1  N   UNL     1      -5.070   3.377 -32.083  1.00  0.00    -0.256 N 
HETATM    2  C   UNL     1      -5.920   4.485 -32.184  1.00  0.00     0.177 A 
HETATM    3  N   UNL     1      -5.563   5.729 -32.095  1.00  0.00    -0.216 NA
HETATM    4  C   UNL     1      -4.259   5.932 -31.818  1.00  0.00     0.117 A 
HETATM    5  C   UNL     1      -3.307   4.962 -31.622  1.00  0.00     0.076 A 
HETATM    6  C   UNL     1      -3.707   3.570 -31.765  1.00  0.00     0.268 A 
HETATM    7  O   UNL     1      -2.874   2.675 -31.638  1.00  0.00    -0.267 OA
HETATM    8  S   UNL     1      -3.634   7.504 -31.607  1.00  0.00    -0.073 SA
HETATM    9  C   UNL     1      -2.091   6.899 -31.229  1.00  0.00    -0.008 A 
HETATM   10  C   UNL     1      -2.026   5.519 -31.295  1.00  0.00    -0.026 A 
HETATM   11  C   UNL     1      -0.760   4.769 -30.998  1.00  0.00     0.041 C 
HETATM   12  C   UNL     1       0.467   5.696 -30.979  1.00  0.00     0.005 C 
HETATM   13  C   UNL     1       0.186   7.005 -30.229  1.00  0.00     0.005 C 
HETATM   14  C   UNL     1      -0.946   7.804 -30.894  1.00  0.00     0.047 C 
ENDROOT
BRANCH   2  15
HETATM   15  S   UNL     1      -7.665   4.276 -32.322  1.00  0.00    -0.082 SA
BRANCH  15  16
HETATM   16  C   UNL     1      -8.190   5.740 -31.381  1.00  0.00     0.185 C 
BRANCH  16  17
HETATM   17  C   UNL     1      -7.546   5.937 -30.008  1.00  0.00     0.231 C 
HETATM   18  N   UNL     1      -6.869   7.120 -29.816  1.00  0.00    -0.327 N 
HETATM   19  H   UNL     1      -6.835   7.743 -30.621  1.00  0.00     0.169 HD
HETATM   20  O   UNL     1      -7.630   5.027 -29.182  1.00  0.00    -0.272 OA
BRANCH  18  21
HETATM   21  C   UNL     1      -6.101   7.528 -28.709  1.00  0.00     0.034 A 
HETATM   22  C   UNL     1      -6.398   8.634 -27.911  1.00  0.00     0.031 A 
HETATM   23  C   UNL     1      -5.602   8.940 -26.799  1.00  0.00     0.027 A 
HETATM   24  C   UNL     1      -4.505   8.135 -26.489  1.00  0.00     0.074 A 
HETATM   25  C   UNL     1      -4.179   7.044 -27.295  1.00  0.00     0.027 A 
HETATM   26  C   UNL     1      -4.982   6.742 -28.397  1.00  0.00     0.031 A 
BRANCH  24  27
HETATM   27  S   UNL     1      -3.490   8.518 -25.094  1.00  0.00     0.239 S 
HETATM   28  O   UNL     1      -2.609   7.403 -24.830  1.00  0.00    -0.206 OA
HETATM   29  O   UNL     1      -3.011   9.875 -25.204  1.00  0.00    -0.206 OA
BRANCH  27  30
HETATM   30  N   UNL     1      -4.611   8.527 -23.843  1.00  0.00    -0.225 NA
HETATM   31  H   UNL     1      -5.527   8.799 -24.199  1.00  0.00     0.136 HD
HETATM   32  H   UNL     1      -4.602   7.625 -23.365  1.00  0.00     0.136 HD
ENDBRANCH  27  30
ENDBRANCH  24  27
ENDBRANCH  18  21
ENDBRANCH  16  17
ENDBRANCH  15  16
ENDBRANCH   2  15
BRANCH   1  33
HETATM   33  C   UNL     1      -5.491   2.032 -32.366  1.00  0.00     0.045 A 
HETATM   34  C   UNL     1      -5.698   1.609 -33.686  1.00  0.00     0.033 A 
HETATM   35  C   UNL     1      -6.168   0.320 -33.959  1.00  0.00     0.039 A 
HETATM   36  C   UNL     1      -6.454  -0.570 -32.926  1.00  0.00     0.068 A 
HETATM   37  C   UNL     1      -6.248  -0.164 -31.609  1.00  0.00     0.039 A 
HETATM   38  C   UNL     1      -5.780   1.129 -31.333  1.00  0.00     0.033 A 
BRANCH  36  39
HETATM   39  O   UNL     1      -6.931  -1.784 -33.331  1.00  0.00    -0.352 OA
BRANCH  39  40
HETATM   40  C   UNL     1      -6.650  -2.180 -34.672  1.00  0.00     0.171 C 
HETATM   41  C   UNL     1      -6.758  -3.692 -34.746  1.00  0.00     0.034 C 
ENDBRANCH  39  40
ENDBRANCH  36  39
ENDBRANCH   1  33
TORSDOF 9
ENDMDL
MODEL 10
REMARK VINA RESULT:      -8.0      2.927      7.135
REMARK  9 active torsions:
REMARK  status: ('A' for Active; 'I' for Inactive)
REMARK    1  A    between atoms: C_2  and  O_3 
REMARK    2  A    between atoms: O_3  and  C_4 
REMARK    3  A    between atoms: C_7  and  N_8 
REMARK    4  A    between atoms: C_9  and  S_10 
REMARK    5  A    between atoms: S_10  and  C_11 
REMARK    6  A    between atoms: C_11  and  C_12 
REMARK       I    between atoms: C_12  and  N_13 
REMARK    7  A    between atoms: N_13  and  C_14 
REMARK    8  A    between atoms: C_17  and  S_18 
REMARK    9  A    between atoms: S_18  and  N_19 
ROOT
HETATM    1  N   UNL     1      -7.461   1.088 -32.695  1.00  0.00    -0.256 N 
HETATM    2  C   UNL     1      -7.351   1.509 -31.364  1.00  0.00     0.177 A 
HETATM    3  N   UNL     1      -8.057   2.438 -30.798  1.00  0.00    -0.216 NA
HETATM    4  C   UNL     1      -8.920   3.078 -31.613  1.00  0.00     0.117 A 
HETATM    5  C   UNL     1      -9.104   2.839 -32.953  1.00  0.00     0.076 A 
HETATM    6  C   UNL     1      -8.339   1.767 -33.570  1.00  0.00     0.268 A 
HETATM    7  O   UNL     1      -8.507   1.495 -34.756  1.00  0.00    -0.267 OA
HETATM    8  S   UNL     1      -9.880   4.368 -31.048  1.00  0.00    -0.073 SA
HETATM    9  C   UNL     1     -10.534   4.632 -32.595  1.00  0.00    -0.008 A 
HETATM   10  C   UNL     1     -10.064   3.733 -33.534  1.00  0.00    -0.026 A 
HETATM   11  C   UNL     1     -10.506   3.782 -34.969  1.00  0.00     0.041 C 
HETATM   12  C   UNL     1     -11.750   4.665 -35.159  1.00  0.00     0.005 C 
HETATM   13  C   UNL     1     -11.648   5.977 -34.368  1.00  0.00     0.005 C 
HETATM   14  C   UNL     1     -11.531   5.718 -32.858  1.00  0.00     0.047 C 
ENDROOT
BRANCH   2  15
HETATM   15  S   UNL     1      -6.090   0.865 -30.314  1.00  0.00    -0.082 SA
BRANCH  15  16
HETATM   16  C   UNL     1      -4.744   1.995 -30.779  1.00  0.00     0.185 C 
BRANCH  16  17
HETATM   17  C   UNL     1      -4.996   3.486 -30.552  1.00  0.00     0.231 C 
HETATM   18  N   UNL     1      -5.506   3.838 -29.322  1.00  0.00    -0.327 N 
HETATM   19  H   UNL     1      -5.697   3.065 -28.688  1.00  0.00     0.169 HD
HETATM   20  O   UNL     1      -4.775   4.269 -31.476  1.00  0.00    -0.272 OA
BRANCH  18  21
HETATM   21  C   UNL     1      -5.929   5.103 -28.871  1.00  0.00     0.034 A 
HETATM   22  C   UNL     1      -5.089   6.208 -28.728  1.00  0.00     0.031 A 
HETATM   23  C   UNL     1      -5.605   7.443 -28.314  1.00  0.00     0.027 A 
HETATM   24  C   UNL     1      -6.968   7.569 -28.043  1.00  0.00     0.074 A 
HETATM   25  C   UNL     1      -7.815   6.465 -28.154  1.00  0.00     0.027 A 
HETATM   26  C   UNL     1      -7.292   5.239 -28.572  1.00  0.00     0.031 A 
BRANCH  24  27
HETATM   27  S   UNL     1      -7.628   9.120 -27.514  1.00  0.00     0.239 S 
HETATM   28  O   UNL     1      -9.025   9.188 -27.876  1.00  0.00    -0.206 OA
HETATM   29  O   UNL     1      -7.158   9.414 -26.181  1.00  0.00    -0.206 OA
BRANCH  27  30
HETATM   30  N   UNL     1      -6.834  10.198 -28.528  1.00  0.00    -0.225 NA
HETATM   31  H   UNL     1      -5.890   9.864 -28.719  1.00  0.00     0.136 HD
HETATM   32  H   UNL     1      -7.395  10.360 -29.365  1.00  0.00     0.136 HD
ENDBRANCH  27  30
ENDBRANCH  24  27
ENDBRANCH  18  21
ENDBRANCH  16  17
ENDBRANCH  15  16
ENDBRANCH   2  15
BRANCH   1  33
HETATM   33  C   UNL     1      -6.779  -0.064 -33.217  1.00  0.00     0.045 A 
HETATM   34  C   UNL     1      -5.401  -0.028 -33.471  1.00  0.00     0.033 A 
HETATM   35  C   UNL     1      -4.748  -1.127 -34.037  1.00  0.00     0.039 A 
HETATM   36  C   UNL     1      -5.454  -2.281 -34.374  1.00  0.00     0.068 A 
HETATM   37  C   UNL     1      -6.823  -2.333 -34.123  1.00  0.00     0.039 A 
HETATM   38  C   UNL     1      -7.480  -1.230 -33.558  1.00  0.00     0.033 A 
BRANCH  36  39
HETATM   39  O   UNL     1      -4.700  -3.267 -34.944  1.00  0.00    -0.352 OA
BRANCH  39  40
HETATM   40  C   UNL     1      -4.744  -4.556 -34.334  1.00  0.00     0.171 C 
HETATM   41  C   UNL     1      -3.578  -4.655 -33.366  1.00  0.00     0.034 C 
ENDBRANCH  39  40
ENDBRANCH  36  39
ENDBRANCH   1  33
TORSDOF 9
ENDMDL
