MODEL 1
REMARK VINA RESULT:      -8.3      0.000      0.000
REMARK  5 active torsions:
REMARK  status: ('A' for Active; 'I' for Inactive)
REMARK    1  A    between atoms: O_2  and  C_3 
REMARK    2  A    between atoms: C_5  and  C_6 
REMARK    3  A    between atoms: C_10  and  C_11 
REMARK       I    between atoms: C_11  and  N_12 
REMARK    4  A    between atoms: N_12  and  C_13 
REMARK    5  A    between atoms: C_15  and  O_16 
ROOT
HETATM    1  C   UNL     1      -4.373  -0.328 -32.794  1.00  0.00     0.063 A 
HETATM    2  N   UNL     1      -5.594   0.264 -33.003  1.00  0.00    -0.277 N 
HETATM    3  H   UNL     1      -6.462  -0.192 -33.258  1.00  0.00     0.189 HD
HETATM    4  N   UNL     1      -5.610   1.597 -32.819  1.00  0.00    -0.169 NA
HETATM    5  C   UNL     1      -4.347   1.887 -32.447  1.00  0.00     0.147 A 
HETATM    6  C   UNL     1      -3.546   0.717 -32.428  1.00  0.00     0.071 A 
ENDROOT
BRANCH   5   7
HETATM    7  C   UNL     1      -3.925   3.259 -32.107  1.00  0.00     0.276 C 
HETATM    8  N   UNL     1      -2.796   3.633 -32.810  1.00  0.00    -0.322 N 
HETATM    9  H   UNL     1      -2.440   2.896 -33.414  1.00  0.00     0.169 HD
HETATM   10  O   UNL     1      -4.545   3.935 -31.293  1.00  0.00    -0.266 OA
BRANCH   8  11
HETATM   11  C   UNL     1      -2.121   4.865 -32.797  1.00  0.00     0.037 A 
HETATM   12  C   UNL     1      -1.065   5.165 -31.930  1.00  0.00     0.066 A 
HETATM   13  C   UNL     1      -0.453   6.423 -31.966  1.00  0.00     0.070 A 
HETATM   14  C   UNL     1      -0.894   7.376 -32.885  1.00  0.00     0.037 A 
HETATM   15  C   UNL     1      -1.943   7.087 -33.754  1.00  0.00     0.005 A 
HETATM   16  C   UNL     1      -2.555   5.836 -33.708  1.00  0.00     0.029 A 
BRANCH  13  17
HETATM   17  O   UNL     1       0.577   6.838 -31.165  1.00  0.00    -0.356 OA
HETATM   18  C   UNL     1       0.267   7.086 -29.798  1.00  0.00     0.210 C 
ENDBRANCH  13  17
ENDBRANCH   8  11
ENDBRANCH   5   7
BRANCH   1  19
HETATM   19  C   UNL     1      -4.123  -1.766 -32.920  1.00  0.00    -0.005 A 
HETATM   20  C   UNL     1      -4.761  -2.505 -33.933  1.00  0.00     0.050 A 
HETATM   21  C   UNL     1      -4.533  -3.876 -34.077  1.00  0.00     0.069 A 
HETATM   22  C   UNL     1      -3.655  -4.519 -33.204  1.00  0.00     0.037 A 
HETATM   23  C   UNL     1      -3.019  -3.807 -32.191  1.00  0.00     0.004 A 
HETATM   24  C   UNL     1      -3.254  -2.437 -32.047  1.00  0.00     0.014 A 
BRANCH  21  25
HETATM   25  O   UNL     1      -5.095  -4.691 -35.022  1.00  0.00    -0.356 OA
HETATM   26  C   UNL     1      -6.480  -4.513 -35.286  1.00  0.00     0.210 C 
ENDBRANCH  21  25
ENDBRANCH   1  19
TORSDOF 5
ENDMDL
MODEL 2
REMARK VINA RESULT:      -8.0      1.239      1.949
REMARK  5 active torsions:
REMARK  status: ('A' for Active; 'I' for Inactive)
REMARK    1  A    between atoms: O_2  and  C_3 
REMARK    2  A    between atoms: C_5  and  C_6 
REMARK    3  A    between atoms: C_10  and  C_11 
REMARK       I    between atoms: C_11  and  N_12 
REMARK    4  A    between atoms: N_12  and  C_13 
REMARK    5  A    between atoms: C_15  and  O_16 
ROOT
HETATM    1  C   UNL     1      -5.415   0.427 -33.456  1.00  0.00     0.063 A 
HETATM    2  N   UNL     1      -6.347   1.412 -33.669  1.00  0.00    -0.277 N 
HETATM    3  H   UNL     1      -7.249   1.317 -34.122  1.00  0.00     0.189 HD
HETATM    4  N   UNL     1      -6.003   2.622 -33.192  1.00  0.00    -0.169 NA
HETATM    5  C   UNL     1      -4.801   2.414 -32.618  1.00  0.00     0.147 A 
HETATM    6  C   UNL     1      -4.398   1.063 -32.769  1.00  0.00     0.071 A 
ENDROOT
BRANCH   5   7
HETATM    7  C   UNL     1      -4.064   3.489 -31.929  1.00  0.00     0.276 C 
HETATM    8  N   UNL     1      -2.919   3.843 -32.617  1.00  0.00    -0.322 N 
HETATM    9  H   UNL     1      -2.770   3.287 -33.456  1.00  0.00     0.169 HD
HETATM   10  O   UNL     1      -4.471   3.972 -30.878  1.00  0.00    -0.266 OA
BRANCH   8  11
HETATM   11  C   UNL     1      -1.984   4.846 -32.312  1.00  0.00     0.037 A 
HETATM   12  C   UNL     1      -1.189   4.846 -31.161  1.00  0.00     0.066 A 
HETATM   13  C   UNL     1      -0.292   5.891 -30.917  1.00  0.00     0.070 A 
HETATM   14  C   UNL     1      -0.182   6.932 -31.841  1.00  0.00     0.037 A 
HETATM   15  C   UNL     1      -0.967   6.942 -32.991  1.00  0.00     0.005 A 
HETATM   16  C   UNL     1      -1.866   5.902 -33.224  1.00  0.00     0.029 A 
BRANCH  13  17
HETATM   17  O   UNL     1       0.527   6.009 -29.826  1.00  0.00    -0.356 OA
HETATM   18  C   UNL     1       0.992   4.799 -29.238  1.00  0.00     0.210 C 
ENDBRANCH  13  17
ENDBRANCH   8  11
ENDBRANCH   5   7
BRANCH   1  19
HETATM   19  C   UNL     1      -5.581  -0.968 -33.873  1.00  0.00    -0.005 A 
HETATM   20  C   UNL     1      -4.475  -1.838 -33.878  1.00  0.00     0.050 A 
HETATM   21  C   UNL     1      -4.610  -3.173 -34.266  1.00  0.00     0.069 A 
HETATM   22  C   UNL     1      -5.864  -3.651 -34.649  1.00  0.00     0.037 A 
HETATM   23  C   UNL     1      -6.970  -2.804 -34.656  1.00  0.00     0.004 A 
HETATM   24  C   UNL     1      -6.828  -1.468 -34.274  1.00  0.00     0.014 A 
BRANCH  21  25
HETATM   25  O   UNL     1      -3.609  -4.105 -34.309  1.00  0.00    -0.356 OA
HETATM   26  C   UNL     1      -3.704  -5.197 -33.404  1.00  0.00     0.210 C 
ENDBRANCH  21  25
ENDBRANCH   1  19
TORSDOF 5
ENDMDL
MODEL 3
REMARK VINA RESULT:      -8.0      1.890      9.128
REMARK  5 active torsions:
REMARK  status: ('A' for Active; 'I' for Inactive)
REMARK    1  A    between atoms: O_2  and  C_3 
REMARK    2  A    between atoms: C_5  and  C_6 
REMARK    3  A    between atoms: C_10  and  C_11 
REMARK       I    between atoms: C_11  and  N_12 
REMARK    4  A    between atoms: N_12  and  C_13 
REMARK    5  A    between atoms: C_15  and  O_16 
ROOT
HETATM    1  C   UNL     1      -3.524   4.039 -32.014  1.00  0.00     0.063 A 
HETATM    2  N   UNL     1      -4.087   3.954 -30.765  1.00  0.00    -0.277 N 
HETATM    3  H   UNL     1      -4.093   4.666 -30.043  1.00  0.00     0.189 HD
HETATM    4  N   UNL     1      -4.711   2.790 -30.507  1.00  0.00    -0.169 NA
HETATM    5  C   UNL     1      -4.572   2.090 -31.651  1.00  0.00     0.147 A 
HETATM    6  C   UNL     1      -3.833   2.830 -32.609  1.00  0.00     0.071 A 
ENDROOT
BRANCH   5   7
HETATM    7  C   UNL     1      -5.149   0.744 -31.822  1.00  0.00     0.276 C 
HETATM    8  N   UNL     1      -4.945   0.260 -33.100  1.00  0.00    -0.322 N 
HETATM    9  H   UNL     1      -4.460   0.921 -33.704  1.00  0.00     0.169 HD
HETATM   10  O   UNL     1      -5.726   0.174 -30.902  1.00  0.00    -0.266 OA
BRANCH   8  11
HETATM   11  C   UNL     1      -5.301  -0.989 -33.636  1.00  0.00     0.037 A 
HETATM   12  C   UNL     1      -4.417  -2.066 -33.755  1.00  0.00     0.066 A 
HETATM   13  C   UNL     1      -4.842  -3.275 -34.317  1.00  0.00     0.070 A 
HETATM   14  C   UNL     1      -6.164  -3.405 -34.748  1.00  0.00     0.037 A 
HETATM   15  C   UNL     1      -7.053  -2.340 -34.633  1.00  0.00     0.005 A 
HETATM   16  C   UNL     1      -6.621  -1.135 -34.080  1.00  0.00     0.029 A 
BRANCH  13  17
HETATM   17  O   UNL     1      -4.072  -4.392 -34.497  1.00  0.00    -0.356 OA
HETATM   18  C   UNL     1      -3.406  -4.904 -33.348  1.00  0.00     0.210 C 
ENDBRANCH  13  17
ENDBRANCH   8  11
ENDBRANCH   5   7
BRANCH   1  19
HETATM   19  C   UNL     1      -2.810   5.215 -32.517  1.00  0.00    -0.005 A 
HETATM   20  C   UNL     1      -3.030   6.476 -31.932  1.00  0.00     0.050 A 
HETATM   21  C   UNL     1      -2.356   7.610 -32.391  1.00  0.00     0.069 A 
HETATM   22  C   UNL     1      -1.448   7.488 -33.442  1.00  0.00     0.037 A 
HETATM   23  C   UNL     1      -1.221   6.250 -34.039  1.00  0.00     0.004 A 
HETATM   24  C   UNL     1      -1.902   5.120 -33.581  1.00  0.00     0.014 A 
BRANCH  21  25
HETATM   25  O   UNL     1      -2.490   8.880 -31.899  1.00  0.00    -0.356 OA
HETATM   26  C   UNL     1      -2.610   9.017 -30.489  1.00  0.00     0.210 C 
ENDBRANCH  21  25
ENDBRANCH   1  19
TORSDOF 5
ENDMDL
MODEL 4
REMARK VINA RESULT:      -8.0      1.355      9.219
REMARK  5 active torsions:
REMARK  status: ('A' for Active; 'I' for Inactive)
REMARK    1  A    between atoms: O_2  and  C_3 
REMARK    2  A    between atoms: C_5  and  C_6 
REMARK    3  A    between atoms: C_10  and  C_11 
REMARK       I    between atoms: C_11  and  N_12 
REMARK    4  A    between atoms: N_12  and  C_13 
REMARK    5  A    between atoms: C_15  and  O_16 
ROOT
HETATM    1  C   UNL     1      -3.256   3.872 -31.597  1.00  0.00     0.063 A 
HETATM    2  N   UNL     1      -4.222   3.873 -30.622  1.00  0.00    -0.277 N 
HETATM    3  H   UNL     1      -4.519   4.656 -30.051  1.00  0.00     0.189 HD
HETATM    4  N   UNL     1      -4.842   2.692 -30.444  1.00  0.00    -0.169 NA
HETATM    5  C   UNL     1      -4.271   1.887 -31.363  1.00  0.00     0.147 A 
HETATM    6  C   UNL     1      -3.275   2.582 -32.093  1.00  0.00     0.071 A 
ENDROOT
BRANCH   5   7
HETATM    7  C   UNL     1      -4.686   0.482 -31.540  1.00  0.00     0.276 C 
HETATM    8  N   UNL     1      -3.870  -0.180 -32.437  1.00  0.00    -0.322 N 
HETATM    9  H   UNL     1      -3.148   0.417 -32.836  1.00  0.00     0.169 HD
HETATM   10  O   UNL     1      -5.644   0.017 -30.934  1.00  0.00    -0.266 OA
BRANCH   8  11
HETATM   11  C   UNL     1      -3.910  -1.526 -32.835  1.00  0.00     0.037 A 
HETATM   12  C   UNL     1      -4.617  -1.988 -33.951  1.00  0.00     0.066 A 
HETATM   13  C   UNL     1      -4.625  -3.349 -34.273  1.00  0.00     0.070 A 
HETATM   14  C   UNL     1      -3.908  -4.247 -33.481  1.00  0.00     0.037 A 
HETATM   15  C   UNL     1      -3.199  -3.799 -32.370  1.00  0.00     0.005 A 
HETATM   16  C   UNL     1      -3.202  -2.442 -32.047  1.00  0.00     0.029 A 
BRANCH  13  17
HETATM   17  O   UNL     1      -5.285  -3.922 -35.327  1.00  0.00    -0.356 OA
HETATM   18  C   UNL     1      -6.556  -4.499 -35.051  1.00  0.00     0.210 C 
ENDBRANCH  13  17
ENDBRANCH   8  11
ENDBRANCH   5   7
BRANCH   1  19
HETATM   19  C   UNL     1      -2.466   5.047 -31.975  1.00  0.00    -0.005 A 
HETATM   20  C   UNL     1      -1.336   5.407 -31.218  1.00  0.00     0.050 A 
HETATM   21  C   UNL     1      -0.563   6.519 -31.563  1.00  0.00     0.069 A 
HETATM   22  C   UNL     1      -0.917   7.280 -32.677  1.00  0.00     0.037 A 
HETATM   23  C   UNL     1      -2.037   6.943 -33.435  1.00  0.00     0.004 A 
HETATM   24  C   UNL     1      -2.809   5.834 -33.083  1.00  0.00     0.014 A 
BRANCH  21  25
HETATM   25  O   UNL     1       0.552   6.961 -30.903  1.00  0.00    -0.356 OA
HETATM   26  C   UNL     1       0.398   7.299 -29.531  1.00  0.00     0.210 C 
ENDBRANCH  21  25
ENDBRANCH   1  19
TORSDOF 5
ENDMDL
MODEL 5
REMARK VINA RESULT:      -7.7      1.831      2.632
REMARK  5 active torsions:
REMARK  status: ('A' for Active; 'I' for Inactive)
REMARK    1  A    between atoms: O_2  and  C_3 
REMARK    2  A    between atoms: C_5  and  C_6 
REMARK    3  A    between atoms: C_10  and  C_11 
REMARK       I    between atoms: C_11  and  N_12 
REMARK    4  A    between atoms: N_12  and  C_13 
REMARK    5  A    between atoms: C_15  and  O_16 
ROOT
HETATM    1  C   UNL     1      -4.415   0.473 -32.645  1.00  0.00     0.063 A 
HETATM    2  N   UNL     1      -3.467   0.307 -31.666  1.00  0.00    -0.277 N 
HETATM    3  H   UNL     1      -3.096  -0.567 -31.312  1.00  0.00     0.189 HD
HETATM    4  N   UNL     1      -2.980   1.453 -31.155  1.00  0.00    -0.169 NA
HETATM    5  C   UNL     1      -3.622   2.414 -31.851  1.00  0.00     0.147 A 
HETATM    6  C   UNL     1      -4.527   1.844 -32.781  1.00  0.00     0.071 A 
ENDROOT
BRANCH   5   7
HETATM    7  C   UNL     1      -3.358   3.849 -31.632  1.00  0.00     0.276 C 
HETATM    8  N   UNL     1      -2.075   4.066 -31.167  1.00  0.00    -0.322 N 
HETATM    9  H   UNL     1      -1.549   3.205 -31.031  1.00  0.00     0.169 HD
HETATM   10  O   UNL     1      -4.213   4.697 -31.858  1.00  0.00    -0.266 OA
BRANCH   8  11
HETATM   11  C   UNL     1      -1.437   5.284 -30.884  1.00  0.00     0.037 A 
HETATM   12  C   UNL     1      -2.037   6.334 -30.182  1.00  0.00     0.066 A 
HETATM   13  C   UNL     1      -1.342   7.526 -29.954  1.00  0.00     0.070 A 
HETATM   14  C   UNL     1      -0.033   7.659 -30.422  1.00  0.00     0.037 A 
HETATM   15  C   UNL     1       0.576   6.619 -31.120  1.00  0.00     0.005 A 
HETATM   16  C   UNL     1      -0.125   5.437 -31.352  1.00  0.00     0.029 A 
BRANCH  13  17
HETATM   17  O   UNL     1      -1.824   8.625 -29.293  1.00  0.00    -0.356 OA
HETATM   18  C   UNL     1      -1.025   9.137 -28.233  1.00  0.00     0.210 C 
ENDBRANCH  13  17
ENDBRANCH   8  11
ENDBRANCH   5   7
BRANCH   1  19
HETATM   19  C   UNL     1      -5.069  -0.630 -33.353  1.00  0.00    -0.005 A 
HETATM   20  C   UNL     1      -4.379  -1.838 -33.566  1.00  0.00     0.050 A 
HETATM   21  C   UNL     1      -4.985  -2.906 -34.232  1.00  0.00     0.069 A 
HETATM   22  C   UNL     1      -6.296  -2.772 -34.688  1.00  0.00     0.037 A 
HETATM   23  C   UNL     1      -6.994  -1.583 -34.493  1.00  0.00     0.004 A 
HETATM   24  C   UNL     1      -6.382  -0.516 -33.832  1.00  0.00     0.014 A 
BRANCH  21  25
HETATM   25  O   UNL     1      -4.412  -4.121 -34.494  1.00  0.00    -0.356 OA
HETATM   26  C   UNL     1      -3.508  -4.631 -33.522  1.00  0.00     0.210 C 
ENDBRANCH  21  25
ENDBRANCH   1  19
TORSDOF 5
ENDMDL
MODEL 6
REMARK VINA RESULT:      -7.6      6.708      9.237
REMARK  5 active torsions:
REMARK  status: ('A' for Active; 'I' for Inactive)
REMARK    1  A    between atoms: O_2  and  C_3 
REMARK    2  A    between atoms: C_5  and  C_6 
REMARK    3  A    between atoms: C_10  and  C_11 
REMARK       I    between atoms: C_11  and  N_12 
REMARK    4  A    between atoms: N_12  and  C_13 
REMARK    5  A    between atoms: C_15  and  O_16 
ROOT
HETATM    1  C   UNL     1      -7.365   0.661 -33.847  1.00  0.00     0.063 A 
HETATM    2  N   UNL     1      -7.084   2.004 -33.907  1.00  0.00    -0.277 N 
HETATM    3  H   UNL     1      -6.170   2.440 -33.922  1.00  0.00     0.189 HD
HETATM    4  N   UNL     1      -8.166   2.801 -33.976  1.00  0.00    -0.169 NA
HETATM    5  C   UNL     1      -9.202   1.939 -33.986  1.00  0.00     0.147 A 
HETATM    6  C   UNL     1      -8.745   0.600 -33.899  1.00  0.00     0.071 A 
ENDROOT
BRANCH   5   7
HETATM    7  C   UNL     1     -10.601   2.395 -34.089  1.00  0.00     0.276 C 
HETATM    8  N   UNL     1     -11.487   1.419 -33.676  1.00  0.00    -0.322 N 
HETATM    9  H   UNL     1     -11.027   0.554 -33.400  1.00  0.00     0.169 HD
HETATM   10  O   UNL     1     -10.879   3.518 -34.497  1.00  0.00    -0.266 OA
BRANCH   8  11
HETATM   11  C   UNL     1     -12.887   1.483 -33.584  1.00  0.00     0.037 A 
HETATM   12  C   UNL     1     -13.572   2.342 -32.717  1.00  0.00     0.066 A 
HETATM   13  C   UNL     1     -14.970   2.335 -32.670  1.00  0.00     0.070 A 
HETATM   14  C   UNL     1     -15.683   1.473 -33.505  1.00  0.00     0.037 A 
HETATM   15  C   UNL     1     -15.011   0.616 -34.373  1.00  0.00     0.005 A 
HETATM   16  C   UNL     1     -13.618   0.620 -34.410  1.00  0.00     0.029 A 
BRANCH  13  17
HETATM   17  O   UNL     1     -15.751   3.116 -31.860  1.00  0.00    -0.356 OA
HETATM   18  C   UNL     1     -17.160   2.957 -31.979  1.00  0.00     0.210 C 
ENDBRANCH  13  17
ENDBRANCH   8  11
ENDBRANCH   5   7
BRANCH   1  19
HETATM   19  C   UNL     1      -6.348  -0.391 -33.783  1.00  0.00    -0.005 A 
HETATM   20  C   UNL     1      -6.440  -1.511 -34.629  1.00  0.00     0.050 A 
HETATM   21  C   UNL     1      -5.478  -2.524 -34.592  1.00  0.00     0.069 A 
HETATM   22  C   UNL     1      -4.407  -2.417 -33.704  1.00  0.00     0.037 A 
HETATM   23  C   UNL     1      -4.301  -1.319 -32.853  1.00  0.00     0.004 A 
HETATM   24  C   UNL     1      -5.269  -0.313 -32.891  1.00  0.00     0.014 A 
BRANCH  21  25
HETATM   25  O   UNL     1      -5.466  -3.653 -35.364  1.00  0.00    -0.356 OA
HETATM   26  C   UNL     1      -5.452  -4.901 -34.683  1.00  0.00     0.210 C 
ENDBRANCH  21  25
ENDBRANCH   1  19
TORSDOF 5
ENDMDL
MODEL 7
REMARK VINA RESULT:      -7.4      7.582     11.722
REMARK  5 active torsions:
REMARK  status: ('A' for Active; 'I' for Inactive)
REMARK    1  A    between atoms: O_2  and  C_3 
REMARK    2  A    between atoms: C_5  and  C_6 
REMARK    3  A    between atoms: C_10  and  C_11 
REMARK       I    between atoms: C_11  and  N_12 
REMARK    4  A    between atoms: N_12  and  C_13 
REMARK    5  A    between atoms: C_15  and  O_16 
ROOT
HETATM    1  C   UNL     1       0.543   7.516 -27.505  1.00  0.00     0.063 A 
HETATM    2  N   UNL     1      -0.534   7.928 -26.759  1.00  0.00    -0.277 N 
HETATM    3  H   UNL     1      -1.515   7.772 -26.956  1.00  0.00     0.189 HD
HETATM    4  N   UNL     1      -0.214   8.594 -25.633  1.00  0.00    -0.169 NA
HETATM    5  C   UNL     1       1.134   8.595 -25.631  1.00  0.00     0.147 A 
HETATM    6  C   UNL     1       1.641   7.942 -26.782  1.00  0.00     0.071 A 
ENDROOT
BRANCH   5   7
HETATM    7  C   UNL     1       1.916   9.201 -24.537  1.00  0.00     0.276 C 
HETATM    8  N   UNL     1       3.039   8.454 -24.238  1.00  0.00    -0.322 N 
HETATM    9  H   UNL     1       3.117   7.609 -24.800  1.00  0.00     0.169 HD
HETATM   10  O   UNL     1       1.561  10.245 -24.000  1.00  0.00    -0.266 OA
BRANCH   8  11
HETATM   11  C   UNL     1       4.048   8.720 -23.298  1.00  0.00     0.037 A 
HETATM   12  C   UNL     1       4.156   8.068 -22.065  1.00  0.00     0.066 A 
HETATM   13  C   UNL     1       5.180   8.401 -21.173  1.00  0.00     0.070 A 
HETATM   14  C   UNL     1       6.108   9.383 -21.526  1.00  0.00     0.037 A 
HETATM   15  C   UNL     1       6.011  10.037 -22.752  1.00  0.00     0.005 A 
HETATM   16  C   UNL     1       4.983   9.707 -23.633  1.00  0.00     0.029 A 
BRANCH  13  17
HETATM   17  O   UNL     1       5.384   7.844 -19.939  1.00  0.00    -0.356 OA
HETATM   18  C   UNL     1       6.605   7.139 -19.745  1.00  0.00     0.210 C 
ENDBRANCH  13  17
ENDBRANCH   8  11
ENDBRANCH   5   7
BRANCH   1  19
HETATM   19  C   UNL     1       0.436   6.763 -28.757  1.00  0.00    -0.005 A 
HETATM   20  C   UNL     1      -0.050   7.393 -29.918  1.00  0.00     0.050 A 
HETATM   21  C   UNL     1      -0.155   6.696 -31.125  1.00  0.00     0.069 A 
HETATM   22  C   UNL     1       0.234   5.358 -31.178  1.00  0.00     0.037 A 
HETATM   23  C   UNL     1       0.711   4.715 -30.039  1.00  0.00     0.004 A 
HETATM   24  C   UNL     1       0.808   5.413 -28.833  1.00  0.00     0.014 A 
BRANCH  21  25
HETATM   25  O   UNL     1      -0.611   7.205 -32.311  1.00  0.00    -0.356 OA
HETATM   26  C   UNL     1      -1.730   8.080 -32.250  1.00  0.00     0.210 C 
ENDBRANCH  21  25
ENDBRANCH   1  19
TORSDOF 5
ENDMDL
MODEL 8
REMARK VINA RESULT:      -7.3      6.820      8.950
REMARK  5 active torsions:
REMARK  status: ('A' for Active; 'I' for Inactive)
REMARK    1  A    between atoms: O_2  and  C_3 
REMARK    2  A    between atoms: C_5  and  C_6 
REMARK    3  A    between atoms: C_10  and  C_11 
REMARK       I    between atoms: C_11  and  N_12 
REMARK    4  A    between atoms: N_12  and  C_13 
REMARK    5  A    between atoms: C_15  and  O_16 
ROOT
HETATM    1  C   UNL     1      -7.902  -0.116 -33.158  1.00  0.00     0.063 A 
HETATM    2  N   UNL     1      -8.109   0.442 -31.920  1.00  0.00    -0.277 N 
HETATM    3  H   UNL     1      -7.513   0.367 -31.105  1.00  0.00     0.189 HD
HETATM    4  N   UNL     1      -9.228   1.184 -31.819  1.00  0.00    -0.169 NA
HETATM    5  C   UNL     1      -9.764   1.129 -33.054  1.00  0.00     0.147 A 
HETATM    6  C   UNL     1      -8.973   0.324 -33.912  1.00  0.00     0.071 A 
ENDROOT
BRANCH   5   7
HETATM    7  C   UNL     1     -11.005   1.846 -33.403  1.00  0.00     0.276 C 
HETATM    8  N   UNL     1     -11.408   2.691 -32.387  1.00  0.00    -0.322 N 
HETATM    9  H   UNL     1     -10.801   2.651 -31.571  1.00  0.00     0.169 HD
HETATM   10  O   UNL     1     -11.562   1.674 -34.482  1.00  0.00    -0.266 OA
BRANCH   8  11
HETATM   11  C   UNL     1     -12.504   3.568 -32.354  1.00  0.00     0.037 A 
HETATM   12  C   UNL     1     -13.829   3.154 -32.176  1.00  0.00     0.066 A 
HETATM   13  C   UNL     1     -14.870   4.088 -32.174  1.00  0.00     0.070 A 
HETATM   14  C   UNL     1     -14.579   5.444 -32.336  1.00  0.00     0.037 A 
HETATM   15  C   UNL     1     -13.264   5.867 -32.512  1.00  0.00     0.005 A 
HETATM   16  C   UNL     1     -12.231   4.931 -32.523  1.00  0.00     0.029 A 
BRANCH  13  17
HETATM   17  O   UNL     1     -16.202   3.807 -32.021  1.00  0.00    -0.356 OA
HETATM   18  C   UNL     1     -16.592   2.446 -32.172  1.00  0.00     0.210 C 
ENDBRANCH  13  17
ENDBRANCH   8  11
ENDBRANCH   5   7
BRANCH   1  19
HETATM   19  C   UNL     1      -6.746  -0.946 -33.503  1.00  0.00    -0.005 A 
HETATM   20  C   UNL     1      -5.561  -0.850 -32.751  1.00  0.00     0.050 A 
HETATM   21  C   UNL     1      -4.447  -1.636 -33.057  1.00  0.00     0.069 A 
HETATM   22  C   UNL     1      -4.515  -2.532 -34.124  1.00  0.00     0.037 A 
HETATM   23  C   UNL     1      -5.677  -2.637 -34.885  1.00  0.00     0.004 A 
HETATM   24  C   UNL     1      -6.785  -1.845 -34.578  1.00  0.00     0.014 A 
BRANCH  21  25
HETATM   25  O   UNL     1      -3.248  -1.627 -32.397  1.00  0.00    -0.356 OA
HETATM   26  C   UNL     1      -3.018  -0.554 -31.493  1.00  0.00     0.210 C 
ENDBRANCH  21  25
ENDBRANCH   1  19
TORSDOF 5
ENDMDL
MODEL 9
REMARK VINA RESULT:      -7.3      2.706      3.247
REMARK  5 active torsions:
REMARK  status: ('A' for Active; 'I' for Inactive)
REMARK    1  A    between atoms: O_2  and  C_3 
REMARK    2  A    between atoms: C_5  and  C_6 
REMARK    3  A    between atoms: C_10  and  C_11 
REMARK       I    between atoms: C_11  and  N_12 
REMARK    4  A    between atoms: N_12  and  C_13 
REMARK    5  A    between atoms: C_15  and  O_16 
ROOT
HETATM    1  C   UNL     1      -4.263   0.302 -32.539  1.00  0.00     0.063 A 
HETATM    2  N   UNL     1      -3.380   0.037 -31.522  1.00  0.00    -0.277 N 
HETATM    3  H   UNL     1      -3.092  -0.872 -31.177  1.00  0.00     0.189 HD
HETATM    4  N   UNL     1      -2.834   1.129 -30.954  1.00  0.00    -0.169 NA
HETATM    5  C   UNL     1      -3.367   2.154 -31.648  1.00  0.00     0.147 A 
HETATM    6  C   UNL     1      -4.267   1.680 -32.636  1.00  0.00     0.071 A 
ENDROOT
BRANCH   5   7
HETATM    7  C   UNL     1      -3.008   3.558 -31.374  1.00  0.00     0.276 C 
HETATM    8  N   UNL     1      -4.114   4.307 -31.021  1.00  0.00    -0.322 N 
HETATM    9  H   UNL     1      -4.980   3.772 -31.038  1.00  0.00     0.169 HD
HETATM   10  O   UNL     1      -1.850   3.951 -31.461  1.00  0.00    -0.266 OA
BRANCH   8  11
HETATM   11  C   UNL     1      -4.178   5.659 -30.646  1.00  0.00     0.037 A 
HETATM   12  C   UNL     1      -3.533   6.691 -31.335  1.00  0.00     0.066 A 
HETATM   13  C   UNL     1      -3.629   8.013 -30.889  1.00  0.00     0.070 A 
HETATM   14  C   UNL     1      -4.388   8.301 -29.753  1.00  0.00     0.037 A 
HETATM   15  C   UNL     1      -5.037   7.282 -29.060  1.00  0.00     0.005 A 
HETATM   16  C   UNL     1      -4.930   5.965 -29.504  1.00  0.00     0.029 A 
BRANCH  13  17
HETATM   17  O   UNL     1      -3.036   9.102 -31.468  1.00  0.00    -0.356 OA
HETATM   18  C   UNL     1      -2.647  10.160 -30.599  1.00  0.00     0.210 C 
ENDBRANCH  13  17
ENDBRANCH   8  11
ENDBRANCH   5   7
BRANCH   1  19
HETATM   19  C   UNL     1      -4.963  -0.729 -33.310  1.00  0.00    -0.005 A 
HETATM   20  C   UNL     1      -4.354  -1.978 -33.529  1.00  0.00     0.050 A 
HETATM   21  C   UNL     1      -5.005  -2.979 -34.256  1.00  0.00     0.069 A 
HETATM   22  C   UNL     1      -6.280  -2.734 -34.766  1.00  0.00     0.037 A 
HETATM   23  C   UNL     1      -6.897  -1.502 -34.565  1.00  0.00     0.004 A 
HETATM   24  C   UNL     1      -6.240  -0.503 -33.843  1.00  0.00     0.014 A 
BRANCH  21  25
HETATM   25  O   UNL     1      -4.512  -4.226 -34.530  1.00  0.00    -0.356 OA
HETATM   26  C   UNL     1      -3.612  -4.786 -33.582  1.00  0.00     0.210 C 
ENDBRANCH  21  25
ENDBRANCH   1  19
TORSDOF 5
ENDMDL
MODEL 10
REMARK VINA RESULT:      -7.1      3.075     10.319
REMARK  5 active torsions:
REMARK  status: ('A' for Active; 'I' for Inactive)
REMARK    1  A    between atoms: O_2  and  C_3 
REMARK    2  A    between atoms: C_5  and  C_6 
REMARK    3  A    between atoms: C_10  and  C_11 
REMARK       I    between atoms: C_11  and  N_12 
REMARK    4  A    between atoms: N_12  and  C_13 
REMARK    5  A    between atoms: C_15  and  O_16 
ROOT
HETATM    1  C   UNL     1      -0.155   6.517 -29.329  1.00  0.00     0.063 A 
HETATM    2  N   UNL     1       0.623   5.400 -29.514  1.00  0.00    -0.277 N 
HETATM    3  H   UNL     1       1.478   5.159 -29.028  1.00  0.00     0.189 HD
HETATM    4  N   UNL     1       0.157   4.538 -30.437  1.00  0.00    -0.169 NA
HETATM    5  C   UNL     1      -0.992   5.105 -30.857  1.00  0.00     0.147 A 
HETATM    6  C   UNL     1      -1.216   6.340 -30.197  1.00  0.00     0.071 A 
ENDROOT
BRANCH   5   7
HETATM    7  C   UNL     1      -1.861   4.464 -31.862  1.00  0.00     0.276 C 
HETATM    8  N   UNL     1      -2.726   3.555 -31.283  1.00  0.00    -0.322 N 
HETATM    9  H   UNL     1      -2.596   3.466 -30.278  1.00  0.00     0.169 HD
HETATM   10  O   UNL     1      -1.779   4.749 -33.052  1.00  0.00    -0.266 OA
BRANCH   8  11
HETATM   11  C   UNL     1      -3.728   2.783 -31.893  1.00  0.00     0.037 A 
HETATM   12  C   UNL     1      -3.615   1.409 -32.133  1.00  0.00     0.066 A 
HETATM   13  C   UNL     1      -4.650   0.711 -32.762  1.00  0.00     0.070 A 
HETATM   14  C   UNL     1      -5.809   1.392 -33.140  1.00  0.00     0.037 A 
HETATM   15  C   UNL     1      -5.933   2.759 -32.905  1.00  0.00     0.005 A 
HETATM   16  C   UNL     1      -4.894   3.452 -32.285  1.00  0.00     0.029 A 
BRANCH  13  17
HETATM   17  O   UNL     1      -4.654  -0.625 -33.060  1.00  0.00    -0.356 OA
HETATM   18  C   UNL     1      -5.877  -1.173 -33.540  1.00  0.00     0.210 C 
ENDBRANCH  13  17
ENDBRANCH   8  11
ENDBRANCH   5   7
BRANCH   1  19
HETATM   19  C   UNL     1       0.147   7.580 -28.368  1.00  0.00    -0.005 A 
HETATM   20  C   UNL     1       1.223   7.435 -27.473  1.00  0.00     0.050 A 
HETATM   21  C   UNL     1       1.534   8.438 -26.551  1.00  0.00     0.069 A 
HETATM   22  C   UNL     1       0.767   9.603 -26.524  1.00  0.00     0.037 A 
HETATM   23  C   UNL     1      -0.306   9.763 -27.397  1.00  0.00     0.004 A 
HETATM   24  C   UNL     1      -0.617   8.755 -28.312  1.00  0.00     0.014 A 
BRANCH  21  25
HETATM   25  O   UNL     1       2.553   8.405 -25.638  1.00  0.00    -0.356 OA
HETATM   26  C   UNL     1       2.403   9.210 -24.475  1.00  0.00     0.210 C 
ENDBRANCH  21  25
ENDBRANCH   1  19
TORSDOF 5
ENDMDL
