MODEL 1
REMARK VINA RESULT:      -9.0      0.000      0.000
REMARK  9 active torsions:
REMARK  status: ('A' for Active; 'I' for Inactive)
REMARK    1  A    between atoms: O_2  and  C_3 
REMARK    2  A    between atoms: C_6  and  C_7 
REMARK    3  A    between atoms: C_13  and  C_14 
REMARK       I    between atoms: C_14  and  N_15 
REMARK    4  A    between atoms: N_15  and  N_16 
REMARK    5  A    between atoms: N_16  and  C_17 
REMARK    6  A    between atoms: C_17  and  N_18 
REMARK    7  A    between atoms: N_18  and  C_19 
REMARK    8  A    between atoms: C_19  and  C_20 
REMARK    9  A    between atoms: C_27  and  C_28 
ROOT
HETATM    1  C   UNL     1      -7.505   0.486 -33.556  1.00  0.00     0.118 C 
HETATM    2  N   UNL     1      -6.909   1.803 -33.725  1.00  0.00    -0.365 N 
HETATM    3  C   UNL     1      -7.690   2.901 -33.870  1.00  0.00     0.138 A 
HETATM    4  N   UNL     1      -9.030   2.771 -34.134  1.00  0.00    -0.240 N 
HETATM    5  N   UNL     1      -9.663   3.937 -34.316  1.00  0.00    -0.181 NA
HETATM    6  C   UNL     1      -8.694   4.841 -34.132  1.00  0.00     0.160 A 
HETATM    7  C   UNL     1      -7.434   4.258 -33.831  1.00  0.00     0.098 A 
HETATM    8  C   UNL     1      -9.724   1.501 -34.262  1.00  0.00     0.221 C 
HETATM    9  C   UNL     1      -8.710   0.366 -34.511  1.00  0.00     0.066 C 
HETATM   10  H   UNL     1      -5.917   1.895 -33.492  1.00  0.00     0.161 HD
ENDROOT
BRANCH   7  11
HETATM   11  C   UNL     1      -6.147   4.890 -33.598  1.00  0.00     0.275 C 
HETATM   12  N   UNL     1      -5.845   5.308 -32.313  1.00  0.00    -0.263 N 
HETATM   13  H   UNL     1      -4.924   5.726 -32.220  1.00  0.00     0.190 HD
HETATM   14  O   UNL     1      -5.316   5.050 -34.492  1.00  0.00    -0.266 OA
BRANCH  12  15
HETATM   15  N   UNL     1      -6.293   4.605 -31.178  1.00  0.00    -0.274 N 
HETATM   16  H   UNL     1      -6.934   5.097 -30.565  1.00  0.00     0.189 HD
BRANCH  15  17
HETATM   17  C   UNL     1      -5.656   3.473 -30.737  1.00  0.00     0.186 C 
HETATM   18  S   UNL     1      -6.408   2.097 -30.160  1.00  0.00    -0.040 SA
BRANCH  17  19
HETATM   19  N   UNL     1      -4.296   3.500 -30.750  1.00  0.00    -0.360 N 
HETATM   20  H   UNL     1      -3.876   4.010 -29.980  1.00  0.00     0.162 HD
BRANCH  19  21
HETATM   21  C   UNL     1      -3.373   2.919 -31.708  1.00  0.00     0.187 C 
BRANCH  21  22
HETATM   22  C   UNL     1      -2.393   3.939 -32.146  1.00  0.00     0.070 A 
HETATM   23  O   UNL     1      -1.488   4.355 -31.213  1.00  0.00    -0.325 OA
HETATM   24  C   UNL     1      -0.692   5.274 -31.816  1.00  0.00     0.142 A 
HETATM   25  C   UNL     1      -1.081   5.467 -33.119  1.00  0.00     0.027 A 
HETATM   26  C   UNL     1      -2.185   4.609 -33.335  1.00  0.00     0.036 A 
ENDBRANCH  21  22
ENDBRANCH  19  21
ENDBRANCH  17  19
ENDBRANCH  15  17
ENDBRANCH  12  15
ENDBRANCH   7  11
BRANCH   1  27
HETATM   27  C   UNL     1      -6.453  -0.590 -33.740  1.00  0.00    -0.035 A 
HETATM   28  C   UNL     1      -6.799  -1.779 -34.400  1.00  0.00     0.012 A 
HETATM   29  C   UNL     1      -5.850  -2.782 -34.616  1.00  0.00     0.037 A 
HETATM   30  C   UNL     1      -4.536  -2.619 -34.182  1.00  0.00     0.068 A 
HETATM   31  C   UNL     1      -4.189  -1.464 -33.483  1.00  0.00     0.037 A 
HETATM   32  C   UNL     1      -5.143  -0.463 -33.256  1.00  0.00     0.012 A 
BRANCH  30  33
HETATM   33  O   UNL     1      -3.699  -3.658 -34.480  1.00  0.00    -0.356 OA
HETATM   34  C   UNL     1      -3.919  -4.868 -33.764  1.00  0.00     0.210 C 
ENDBRANCH  30  33
ENDBRANCH   1  27
BRANCH   8  35
HETATM   35  C   UNL     1     -10.567   1.255 -33.032  1.00  0.00     0.409 C 
HETATM   36  F   UNL     1     -10.037   1.788 -31.907  1.00  0.00    -0.169 F 
HETATM   37  F   UNL     1     -11.827   1.728 -33.149  1.00  0.00    -0.169 F 
HETATM   38  F   UNL     1     -10.682  -0.080 -32.807  1.00  0.00    -0.169 F 
ENDBRANCH   8  35
TORSDOF 9
ENDMDL
MODEL 2
REMARK VINA RESULT:      -8.6      1.840      2.537
REMARK  9 active torsions:
REMARK  status: ('A' for Active; 'I' for Inactive)
REMARK    1  A    between atoms: O_2  and  C_3 
REMARK    2  A    between atoms: C_6  and  C_7 
REMARK    3  A    between atoms: C_13  and  C_14 
REMARK       I    between atoms: C_14  and  N_15 
REMARK    4  A    between atoms: N_15  and  N_16 
REMARK    5  A    between atoms: N_16  and  C_17 
REMARK    6  A    between atoms: C_17  and  N_18 
REMARK    7  A    between atoms: N_18  and  C_19 
REMARK    8  A    between atoms: C_19  and  C_20 
REMARK    9  A    between atoms: C_27  and  C_28 
ROOT
HETATM    1  C   UNL     1      -7.416   0.299 -33.679  1.00  0.00     0.118 C 
HETATM    2  N   UNL     1      -6.620   1.517 -33.666  1.00  0.00    -0.365 N 
HETATM    3  C   UNL     1      -7.218   2.732 -33.688  1.00  0.00     0.138 A 
HETATM    4  N   UNL     1      -8.550   2.847 -33.995  1.00  0.00    -0.240 N 
HETATM    5  N   UNL     1      -8.990   4.111 -34.041  1.00  0.00    -0.181 NA
HETATM    6  C   UNL     1      -7.903   4.823 -33.724  1.00  0.00     0.160 A 
HETATM    7  C   UNL     1      -6.760   4.018 -33.472  1.00  0.00     0.098 A 
HETATM    8  C   UNL     1      -9.423   1.726 -34.298  1.00  0.00     0.221 C 
HETATM    9  C   UNL     1      -8.585   0.485 -34.667  1.00  0.00     0.066 C 
HETATM   10  H   UNL     1      -5.636   1.424 -33.402  1.00  0.00     0.161 HD
ENDROOT
BRANCH   7  11
HETATM   11  C   UNL     1      -5.403   4.407 -33.134  1.00  0.00     0.275 C 
HETATM   12  N   UNL     1      -5.221   5.354 -32.139  1.00  0.00    -0.263 N 
HETATM   13  H   UNL     1      -4.247   5.567 -31.944  1.00  0.00     0.190 HD
HETATM   14  O   UNL     1      -4.416   3.918 -33.683  1.00  0.00    -0.266 OA
BRANCH  12  15
HETATM   15  N   UNL     1      -6.080   5.436 -31.026  1.00  0.00    -0.274 N 
HETATM   16  H   UNL     1      -6.976   5.886 -31.178  1.00  0.00     0.189 HD
BRANCH  15  17
HETATM   17  C   UNL     1      -5.619   5.241 -29.749  1.00  0.00     0.186 C 
HETATM   18  S   UNL     1      -5.025   6.431 -28.737  1.00  0.00    -0.040 SA
BRANCH  17  19
HETATM   19  N   UNL     1      -5.626   3.959 -29.292  1.00  0.00    -0.360 N 
HETATM   20  H   UNL     1      -5.095   3.811 -28.442  1.00  0.00     0.162 HD
BRANCH  19  21
HETATM   21  C   UNL     1      -6.272   2.786 -29.854  1.00  0.00     0.187 C 
BRANCH  21  22
HETATM   22  C   UNL     1      -5.247   1.821 -30.315  1.00  0.00     0.070 A 
HETATM   23  O   UNL     1      -4.135   2.348 -30.906  1.00  0.00    -0.325 OA
HETATM   24  C   UNL     1      -3.334   1.306 -31.243  1.00  0.00     0.142 A 
HETATM   25  C   UNL     1      -3.922   0.114 -30.893  1.00  0.00     0.027 A 
HETATM   26  C   UNL     1      -5.162   0.444 -30.296  1.00  0.00     0.036 A 
ENDBRANCH  21  22
ENDBRANCH  19  21
ENDBRANCH  17  19
ENDBRANCH  15  17
ENDBRANCH  12  15
ENDBRANCH   7  11
BRANCH   1  27
HETATM   27  C   UNL     1      -6.534  -0.899 -33.974  1.00  0.00    -0.035 A 
HETATM   28  C   UNL     1      -5.149  -0.793 -33.772  1.00  0.00     0.012 A 
HETATM   29  C   UNL     1      -4.306  -1.883 -34.003  1.00  0.00     0.037 A 
HETATM   30  C   UNL     1      -4.825  -3.102 -34.436  1.00  0.00     0.068 A 
HETATM   31  C   UNL     1      -6.192  -3.207 -34.686  1.00  0.00     0.037 A 
HETATM   32  C   UNL     1      -7.038  -2.112 -34.466  1.00  0.00     0.012 A 
BRANCH  30  33
HETATM   33  O   UNL     1      -3.901  -4.097 -34.597  1.00  0.00    -0.356 OA
HETATM   34  C   UNL     1      -3.516  -4.794 -33.419  1.00  0.00     0.210 C 
ENDBRANCH  30  33
ENDBRANCH   1  27
BRANCH   8  35
HETATM   35  C   UNL     1     -10.345   1.467 -33.127  1.00  0.00     0.409 C 
HETATM   36  F   UNL     1     -10.715   0.171 -33.017  1.00  0.00    -0.169 F 
HETATM   37  F   UNL     1      -9.814   1.839 -31.942  1.00  0.00    -0.169 F 
HETATM   38  F   UNL     1     -11.490   2.184 -33.272  1.00  0.00    -0.169 F 
ENDBRANCH   8  35
TORSDOF 9
ENDMDL
MODEL 3
REMARK VINA RESULT:      -8.4      2.031      3.012
REMARK  9 active torsions:
REMARK  status: ('A' for Active; 'I' for Inactive)
REMARK    1  A    between atoms: O_2  and  C_3 
REMARK    2  A    between atoms: C_6  and  C_7 
REMARK    3  A    between atoms: C_13  and  C_14 
REMARK       I    between atoms: C_14  and  N_15 
REMARK    4  A    between atoms: N_15  and  N_16 
REMARK    5  A    between atoms: N_16  and  C_17 
REMARK    6  A    between atoms: C_17  and  N_18 
REMARK    7  A    between atoms: N_18  and  C_19 
REMARK    8  A    between atoms: C_19  and  C_20 
REMARK    9  A    between atoms: C_27  and  C_28 
ROOT
HETATM    1  C   UNL     1      -6.713   0.405 -33.120  1.00  0.00     0.118 C 
HETATM    2  N   UNL     1      -5.592   1.280 -32.811  1.00  0.00    -0.365 N 
HETATM    3  C   UNL     1      -5.783   2.608 -32.623  1.00  0.00     0.138 A 
HETATM    4  N   UNL     1      -6.968   3.197 -32.983  1.00  0.00    -0.240 N 
HETATM    5  N   UNL     1      -6.992   4.524 -32.800  1.00  0.00    -0.181 NA
HETATM    6  C   UNL     1      -5.788   4.780 -32.277  1.00  0.00     0.160 A 
HETATM    7  C   UNL     1      -4.985   3.619 -32.122  1.00  0.00     0.098 A 
HETATM    8  C   UNL     1      -8.097   2.488 -33.562  1.00  0.00     0.221 C 
HETATM    9  C   UNL     1      -7.637   1.127 -34.121  1.00  0.00     0.066 C 
HETATM   10  H   UNL     1      -4.723   0.830 -32.510  1.00  0.00     0.161 HD
ENDROOT
BRANCH   7  11
HETATM   11  C   UNL     1      -3.627   3.485 -31.627  1.00  0.00     0.275 C 
HETATM   12  N   UNL     1      -3.017   4.599 -31.077  1.00  0.00    -0.263 N 
HETATM   13  H   UNL     1      -2.074   4.429 -30.737  1.00  0.00     0.190 HD
HETATM   14  O   UNL     1      -3.010   2.420 -31.664  1.00  0.00    -0.266 OA
BRANCH  12  15
HETATM   15  N   UNL     1      -3.743   5.561 -30.350  1.00  0.00    -0.274 N 
HETATM   16  H   UNL     1      -4.586   5.238 -29.888  1.00  0.00     0.189 HD
BRANCH  15  17
HETATM   17  C   UNL     1      -3.532   6.905 -30.528  1.00  0.00     0.186 C 
HETATM   18  S   UNL     1      -4.583   8.123 -30.073  1.00  0.00    -0.040 SA
BRANCH  17  19
HETATM   19  N   UNL     1      -2.378   7.259 -31.155  1.00  0.00    -0.360 N 
HETATM   20  H   UNL     1      -1.537   7.102 -30.611  1.00  0.00     0.162 HD
BRANCH  19  21
HETATM   21  C   UNL     1      -2.187   7.834 -32.475  1.00  0.00     0.187 C 
BRANCH  21  22
HETATM   22  C   UNL     1      -2.170   6.759 -33.494  1.00  0.00     0.070 A 
HETATM   23  O   UNL     1      -3.382   6.354 -33.974  1.00  0.00    -0.325 OA
HETATM   24  C   UNL     1      -3.141   5.381 -34.887  1.00  0.00     0.142 A 
HETATM   25  C   UNL     1      -1.792   5.141 -34.992  1.00  0.00     0.027 A 
HETATM   26  C   UNL     1      -1.161   6.028 -34.088  1.00  0.00     0.036 A 
ENDBRANCH  21  22
ENDBRANCH  19  21
ENDBRANCH  17  19
ENDBRANCH  15  17
ENDBRANCH  12  15
ENDBRANCH   7  11
BRANCH   1  27
HETATM   27  C   UNL     1      -6.208  -0.943 -33.596  1.00  0.00    -0.035 A 
HETATM   28  C   UNL     1      -4.867  -1.289 -33.370  1.00  0.00     0.012 A 
HETATM   29  C   UNL     1      -4.371  -2.534 -33.765  1.00  0.00     0.037 A 
HETATM   30  C   UNL     1      -5.202  -3.461 -34.391  1.00  0.00     0.068 A 
HETATM   31  C   UNL     1      -6.523  -3.114 -34.664  1.00  0.00     0.037 A 
HETATM   32  C   UNL     1      -7.019  -1.861 -34.279  1.00  0.00     0.012 A 
BRANCH  30  33
HETATM   33  O   UNL     1      -4.604  -4.652 -34.702  1.00  0.00    -0.356 OA
HETATM   34  C   UNL     1      -3.671  -5.153 -33.753  1.00  0.00     0.210 C 
ENDBRANCH  30  33
ENDBRANCH   1  27
BRANCH   8  35
HETATM   35  C   UNL     1      -9.190   2.343 -32.528  1.00  0.00     0.409 C 
HETATM   36  F   UNL     1      -9.953   1.241 -32.711  1.00  0.00    -0.169 F 
HETATM   37  F   UNL     1      -8.722   2.308 -31.262  1.00  0.00    -0.169 F 
HETATM   38  F   UNL     1     -10.033   3.408 -32.592  1.00  0.00    -0.169 F 
ENDBRANCH   8  35
TORSDOF 9
ENDMDL
MODEL 4
REMARK VINA RESULT:      -8.4      3.285      5.631
REMARK  9 active torsions:
REMARK  status: ('A' for Active; 'I' for Inactive)
REMARK    1  A    between atoms: O_2  and  C_3 
REMARK    2  A    between atoms: C_6  and  C_7 
REMARK    3  A    between atoms: C_13  and  C_14 
REMARK       I    between atoms: C_14  and  N_15 
REMARK    4  A    between atoms: N_15  and  N_16 
REMARK    5  A    between atoms: N_16  and  C_17 
REMARK    6  A    between atoms: C_17  and  N_18 
REMARK    7  A    between atoms: N_18  and  C_19 
REMARK    8  A    between atoms: C_19  and  C_20 
REMARK    9  A    between atoms: C_27  and  C_28 
ROOT
HETATM    1  C   UNL     1      -9.092   1.220 -33.183  1.00  0.00     0.118 C 
HETATM    2  N   UNL     1      -8.456   1.756 -31.990  1.00  0.00    -0.365 N 
HETATM    3  C   UNL     1      -7.223   1.336 -31.616  1.00  0.00     0.138 A 
HETATM    4  N   UNL     1      -6.668   0.218 -32.184  1.00  0.00    -0.240 N 
HETATM    5  N   UNL     1      -5.476  -0.115 -31.674  1.00  0.00    -0.181 NA
HETATM    6  C   UNL     1      -5.254   0.844 -30.769  1.00  0.00     0.160 A 
HETATM    7  C   UNL     1      -6.303   1.798 -30.695  1.00  0.00     0.098 A 
HETATM    8  C   UNL     1      -7.308  -0.587 -33.211  1.00  0.00     0.221 C 
HETATM    9  C   UNL     1      -8.822  -0.297 -33.245  1.00  0.00     0.066 C 
HETATM   10  H   UNL     1      -8.858   2.611 -31.596  1.00  0.00     0.161 HD
ENDROOT
BRANCH   7  11
HETATM   11  C   UNL     1      -6.451   2.956 -29.830  1.00  0.00     0.275 C 
HETATM   12  N   UNL     1      -5.318   3.685 -29.512  1.00  0.00    -0.263 N 
HETATM   13  H   UNL     1      -5.497   4.488 -28.917  1.00  0.00     0.190 HD
HETATM   14  O   UNL     1      -7.541   3.317 -29.387  1.00  0.00    -0.266 OA
BRANCH  12  15
HETATM   15  N   UNL     1      -4.259   3.849 -30.425  1.00  0.00    -0.274 N 
HETATM   16  H   UNL     1      -3.515   3.161 -30.384  1.00  0.00     0.189 HD
BRANCH  15  17
HETATM   17  C   UNL     1      -4.061   5.033 -31.090  1.00  0.00     0.186 C 
HETATM   18  S   UNL     1      -4.563   6.538 -30.563  1.00  0.00    -0.040 SA
BRANCH  17  19
HETATM   19  N   UNL     1      -3.427   4.955 -32.290  1.00  0.00    -0.360 N 
HETATM   20  H   UNL     1      -3.955   5.328 -33.072  1.00  0.00     0.162 HD
BRANCH  19  21
HETATM   21  C   UNL     1      -2.120   4.408 -32.607  1.00  0.00     0.187 C 
BRANCH  21  22
HETATM   22  C   UNL     1      -1.070   5.164 -31.886  1.00  0.00     0.070 A 
HETATM   23  O   UNL     1      -0.468   4.527 -30.841  1.00  0.00    -0.325 OA
HETATM   24  C   UNL     1       0.453   5.384 -30.332  1.00  0.00     0.142 A 
HETATM   25  C   UNL     1       0.442   6.570 -31.025  1.00  0.00     0.027 A 
HETATM   26  C   UNL     1      -0.546   6.433 -32.029  1.00  0.00     0.036 A 
ENDBRANCH  21  22
ENDBRANCH  19  21
ENDBRANCH  17  19
ENDBRANCH  15  17
ENDBRANCH  12  15
ENDBRANCH   7  11
BRANCH   1  27
HETATM   27  C   UNL     1     -10.561   1.594 -33.205  1.00  0.00    -0.035 A 
HETATM   28  C   UNL     1     -11.502   0.646 -33.636  1.00  0.00     0.012 A 
HETATM   29  C   UNL     1     -12.867   0.942 -33.641  1.00  0.00     0.037 A 
HETATM   30  C   UNL     1     -13.324   2.187 -33.213  1.00  0.00     0.068 A 
HETATM   31  C   UNL     1     -12.399   3.155 -32.826  1.00  0.00     0.037 A 
HETATM   32  C   UNL     1     -11.028   2.863 -32.832  1.00  0.00     0.012 A 
BRANCH  30  33
HETATM   33  O   UNL     1     -14.683   2.342 -33.238  1.00  0.00    -0.356 OA
HETATM   34  C   UNL     1     -15.349   2.260 -31.985  1.00  0.00     0.210 C 
ENDBRANCH  30  33
ENDBRANCH   1  27
BRANCH   8  35
HETATM   35  C   UNL     1      -6.645  -0.330 -34.545  1.00  0.00     0.409 C 
HETATM   36  F   UNL     1      -7.484  -0.486 -35.595  1.00  0.00    -0.169 F 
HETATM   37  F   UNL     1      -6.103   0.903 -34.639  1.00  0.00    -0.169 F 
HETATM   38  F   UNL     1      -5.626  -1.209 -34.733  1.00  0.00    -0.169 F 
ENDBRANCH   8  35
TORSDOF 9
ENDMDL
MODEL 5
REMARK VINA RESULT:      -8.3      2.005      2.799
REMARK  9 active torsions:
REMARK  status: ('A' for Active; 'I' for Inactive)
REMARK    1  A    between atoms: O_2  and  C_3 
REMARK    2  A    between atoms: C_6  and  C_7 
REMARK    3  A    between atoms: C_13  and  C_14 
REMARK       I    between atoms: C_14  and  N_15 
REMARK    4  A    between atoms: N_15  and  N_16 
REMARK    5  A    between atoms: N_16  and  C_17 
REMARK    6  A    between atoms: C_17  and  N_18 
REMARK    7  A    between atoms: N_18  and  C_19 
REMARK    8  A    between atoms: C_19  and  C_20 
REMARK    9  A    between atoms: C_27  and  C_28 
ROOT
HETATM    1  C   UNL     1      -7.303   0.168 -33.477  1.00  0.00     0.118 C 
HETATM    2  N   UNL     1      -6.441   1.113 -32.783  1.00  0.00    -0.365 N 
HETATM    3  C   UNL     1      -6.828   2.398 -32.603  1.00  0.00     0.138 A 
HETATM    4  N   UNL     1      -7.898   2.906 -33.296  1.00  0.00    -0.240 N 
HETATM    5  N   UNL     1      -8.126   4.205 -33.066  1.00  0.00    -0.181 NA
HETATM    6  C   UNL     1      -7.184   4.526 -32.174  1.00  0.00     0.160 A 
HETATM    7  C   UNL     1      -6.346   3.434 -31.825  1.00  0.00     0.098 A 
HETATM    8  C   UNL     1      -8.702   2.146 -34.239  1.00  0.00     0.221 C 
HETATM    9  C   UNL     1      -7.941   0.881 -34.686  1.00  0.00     0.066 C 
HETATM   10  H   UNL     1      -5.666   0.720 -32.241  1.00  0.00     0.161 HD
ENDROOT
BRANCH   7  11
HETATM   11  C   UNL     1      -5.206   3.383 -30.928  1.00  0.00     0.275 C 
HETATM   12  N   UNL     1      -3.967   3.064 -31.458  1.00  0.00    -0.263 N 
HETATM   13  H   UNL     1      -3.214   3.062 -30.777  1.00  0.00     0.190 HD
HETATM   14  O   UNL     1      -5.298   3.628 -29.725  1.00  0.00    -0.266 OA
BRANCH  12  15
HETATM   15  N   UNL     1      -3.591   3.459 -32.756  1.00  0.00    -0.274 N 
HETATM   16  H   UNL     1      -3.586   2.734 -33.466  1.00  0.00     0.189 HD
BRANCH  15  17
HETATM   17  C   UNL     1      -2.946   4.647 -32.986  1.00  0.00     0.186 C 
HETATM   18  S   UNL     1      -3.082   5.575 -34.370  1.00  0.00    -0.040 SA
BRANCH  17  19
HETATM   19  N   UNL     1      -2.105   5.079 -32.008  1.00  0.00    -0.360 N 
HETATM   20  H   UNL     1      -2.565   5.346 -31.144  1.00  0.00     0.162 HD
BRANCH  19  21
HETATM   21  C   UNL     1      -0.661   5.222 -32.032  1.00  0.00     0.187 C 
BRANCH  21  22
HETATM   22  C   UNL     1      -0.196   5.852 -30.775  1.00  0.00     0.070 A 
HETATM   23  O   UNL     1       0.135   5.007 -29.755  1.00  0.00    -0.325 OA
HETATM   24  C   UNL     1       0.534   5.780 -28.714  1.00  0.00     0.142 A 
HETATM   25  C   UNL     1       0.450   7.112 -29.043  1.00  0.00     0.027 A 
HETATM   26  C   UNL     1      -0.027   7.162 -30.374  1.00  0.00     0.036 A 
ENDBRANCH  21  22
ENDBRANCH  19  21
ENDBRANCH  17  19
ENDBRANCH  15  17
ENDBRANCH  12  15
ENDBRANCH   7  11
BRANCH   1  27
HETATM   27  C   UNL     1      -6.527  -1.086 -33.829  1.00  0.00    -0.035 A 
HETATM   28  C   UNL     1      -5.175  -1.178 -33.465  1.00  0.00     0.012 A 
HETATM   29  C   UNL     1      -4.434  -2.329 -33.744  1.00  0.00     0.037 A 
HETATM   30  C   UNL     1      -5.026  -3.414 -34.389  1.00  0.00     0.068 A 
HETATM   31  C   UNL     1      -6.354  -3.318 -34.799  1.00  0.00     0.037 A 
HETATM   32  C   UNL     1      -7.096  -2.160 -34.530  1.00  0.00     0.012 A 
BRANCH  30  33
HETATM   33  O   UNL     1      -4.203  -4.490 -34.578  1.00  0.00    -0.356 OA
HETATM   34  C   UNL     1      -3.444  -4.906 -33.450  1.00  0.00     0.210 C 
ENDBRANCH  30  33
ENDBRANCH   1  27
BRANCH   8  35
HETATM   35  C   UNL     1     -10.041   1.820 -33.618  1.00  0.00     0.409 C 
HETATM   36  F   UNL     1     -10.963   2.793 -33.798  1.00  0.00    -0.169 F 
HETATM   37  F   UNL     1     -10.573   0.667 -34.080  1.00  0.00    -0.169 F 
HETATM   38  F   UNL     1      -9.904   1.663 -32.275  1.00  0.00    -0.169 F 
ENDBRANCH   8  35
TORSDOF 9
ENDMDL
MODEL 6
REMARK VINA RESULT:      -8.2      1.876      2.711
REMARK  9 active torsions:
REMARK  status: ('A' for Active; 'I' for Inactive)
REMARK    1  A    between atoms: O_2  and  C_3 
REMARK    2  A    between atoms: C_6  and  C_7 
REMARK    3  A    between atoms: C_13  and  C_14 
REMARK       I    between atoms: C_14  and  N_15 
REMARK    4  A    between atoms: N_15  and  N_16 
REMARK    5  A    between atoms: N_16  and  C_17 
REMARK    6  A    between atoms: C_17  and  N_18 
REMARK    7  A    between atoms: N_18  and  C_19 
REMARK    8  A    between atoms: C_19  and  C_20 
REMARK    9  A    between atoms: C_27  and  C_28 
ROOT
HETATM    1  C   UNL     1      -6.871  -0.053 -33.768  1.00  0.00     0.118 C 
HETATM    2  N   UNL     1      -5.782   0.799 -33.314  1.00  0.00    -0.365 N 
HETATM    3  C   UNL     1      -5.937   2.144 -33.256  1.00  0.00     0.138 A 
HETATM    4  N   UNL     1      -7.004   2.749 -33.869  1.00  0.00    -0.240 N 
HETATM    5  N   UNL     1      -6.994   4.085 -33.783  1.00  0.00    -0.181 NA
HETATM    6  C   UNL     1      -5.895   4.335 -33.063  1.00  0.00     0.160 A 
HETATM    7  C   UNL     1      -5.194   3.159 -32.684  1.00  0.00     0.098 A 
HETATM    8  C   UNL     1      -8.043   2.041 -34.598  1.00  0.00     0.221 C 
HETATM    9  C   UNL     1      -7.559   0.624 -34.969  1.00  0.00     0.066 C 
HETATM   10  H   UNL     1      -5.008   0.341 -32.828  1.00  0.00     0.161 HD
ENDROOT
BRANCH   7  11
HETATM   11  C   UNL     1      -3.958   3.012 -31.937  1.00  0.00     0.275 C 
HETATM   12  N   UNL     1      -3.743   3.847 -30.854  1.00  0.00    -0.263 N 
HETATM   13  H   UNL     1      -2.866   3.678 -30.369  1.00  0.00     0.190 HD
HETATM   14  O   UNL     1      -3.109   2.167 -32.220  1.00  0.00    -0.266 OA
BRANCH  12  15
HETATM   15  N   UNL     1      -4.799   4.285 -30.032  1.00  0.00    -0.274 N 
HETATM   16  H   UNL     1      -5.683   3.799 -30.134  1.00  0.00     0.189 HD
BRANCH  15  17
HETATM   17  C   UNL     1      -4.752   5.495 -29.388  1.00  0.00     0.186 C 
HETATM   18  S   UNL     1      -5.727   5.953 -28.109  1.00  0.00    -0.040 SA
BRANCH  17  19
HETATM   19  N   UNL     1      -3.851   6.398 -29.859  1.00  0.00    -0.360 N 
HETATM   20  H   UNL     1      -4.020   6.706 -30.810  1.00  0.00     0.162 HD
BRANCH  19  21
HETATM   21  C   UNL     1      -2.686   6.965 -29.203  1.00  0.00     0.187 C 
BRANCH  21  22
HETATM   22  C   UNL     1      -1.469   6.666 -29.991  1.00  0.00     0.070 A 
HETATM   23  O   UNL     1      -1.527   5.578 -30.813  1.00  0.00    -0.325 OA
HETATM   24  C   UNL     1      -0.325   5.490 -31.438  1.00  0.00     0.142 A 
HETATM   25  C   UNL     1       0.510   6.497 -31.019  1.00  0.00     0.027 A 
HETATM   26  C   UNL     1      -0.225   7.257 -30.080  1.00  0.00     0.036 A 
ENDBRANCH  21  22
ENDBRANCH  19  21
ENDBRANCH  17  19
ENDBRANCH  15  17
ENDBRANCH  12  15
ENDBRANCH   7  11
BRANCH   1  27
HETATM   27  C   UNL     1      -6.357  -1.452 -34.049  1.00  0.00    -0.035 A 
HETATM   28  C   UNL     1      -5.001  -1.738 -33.830  1.00  0.00     0.012 A 
HETATM   29  C   UNL     1      -4.494  -3.022 -34.048  1.00  0.00     0.037 A 
HETATM   30  C   UNL     1      -5.330  -4.048 -34.486  1.00  0.00     0.068 A 
HETATM   31  C   UNL     1      -6.669  -3.767 -34.753  1.00  0.00     0.037 A 
HETATM   32  C   UNL     1      -7.175  -2.477 -34.546  1.00  0.00     0.012 A 
BRANCH  30  33
HETATM   33  O   UNL     1      -4.720  -5.263 -34.633  1.00  0.00    -0.356 OA
HETATM   34  C   UNL     1      -3.489  -5.437 -33.943  1.00  0.00     0.210 C 
ENDBRANCH  30  33
ENDBRANCH   1  27
BRANCH   8  35
HETATM   35  C   UNL     1      -9.313   2.015 -33.778  1.00  0.00     0.409 C 
HETATM   36  F   UNL     1     -10.084   0.932 -34.025  1.00  0.00    -0.169 F 
HETATM   37  F   UNL     1      -9.087   2.058 -32.448  1.00  0.00    -0.169 F 
HETATM   38  F   UNL     1     -10.074   3.103 -34.069  1.00  0.00    -0.169 F 
ENDBRANCH   8  35
TORSDOF 9
ENDMDL
MODEL 7
REMARK VINA RESULT:      -8.2      4.771      9.342
REMARK  9 active torsions:
REMARK  status: ('A' for Active; 'I' for Inactive)
REMARK    1  A    between atoms: O_2  and  C_3 
REMARK    2  A    between atoms: C_6  and  C_7 
REMARK    3  A    between atoms: C_13  and  C_14 
REMARK       I    between atoms: C_14  and  N_15 
REMARK    4  A    between atoms: N_15  and  N_16 
REMARK    5  A    between atoms: N_16  and  C_17 
REMARK    6  A    between atoms: C_17  and  N_18 
REMARK    7  A    between atoms: N_18  and  C_19 
REMARK    8  A    between atoms: C_19  and  C_20 
REMARK    9  A    between atoms: C_27  and  C_28 
ROOT
HETATM    1  C   UNL     1      -0.947   6.444 -29.658  1.00  0.00     0.118 C 
HETATM    2  N   UNL     1      -2.354   6.521 -29.293  1.00  0.00    -0.365 N 
HETATM    3  C   UNL     1      -3.320   6.368 -30.230  1.00  0.00     0.138 A 
HETATM    4  N   UNL     1      -3.007   6.410 -31.565  1.00  0.00    -0.240 N 
HETATM    5  N   UNL     1      -4.068   6.309 -32.375  1.00  0.00    -0.181 NA
HETATM    6  C   UNL     1      -5.089   6.167 -31.523  1.00  0.00     0.160 A 
HETATM    7  C   UNL     1      -4.687   6.177 -30.161  1.00  0.00     0.098 A 
HETATM    8  C   UNL     1      -1.665   6.599 -32.089  1.00  0.00     0.221 C 
HETATM    9  C   UNL     1      -0.746   7.182 -30.996  1.00  0.00     0.066 C 
HETATM   10  H   UNL     1      -2.578   6.453 -28.297  1.00  0.00     0.161 HD
ENDROOT
BRANCH   7  11
HETATM   11  C   UNL     1      -5.487   6.083 -28.952  1.00  0.00     0.275 C 
HETATM   12  N   UNL     1      -6.233   4.934 -28.749  1.00  0.00    -0.263 N 
HETATM   13  H   UNL     1      -6.755   4.930 -27.877  1.00  0.00     0.190 HD
HETATM   14  O   UNL     1      -5.512   6.973 -28.103  1.00  0.00    -0.266 OA
BRANCH  12  15
HETATM   15  N   UNL     1      -5.783   3.670 -29.176  1.00  0.00    -0.274 N 
HETATM   16  H   UNL     1      -4.783   3.507 -29.132  1.00  0.00     0.189 HD
BRANCH  15  17
HETATM   17  C   UNL     1      -6.581   2.838 -29.919  1.00  0.00     0.186 C 
HETATM   18  S   UNL     1      -7.542   3.306 -31.204  1.00  0.00    -0.040 SA
BRANCH  17  19
HETATM   19  N   UNL     1      -6.603   1.530 -29.548  1.00  0.00    -0.360 N 
HETATM   20  H   UNL     1      -7.481   1.220 -29.146  1.00  0.00     0.162 HD
BRANCH  19  21
HETATM   21  C   UNL     1      -5.553   0.531 -29.634  1.00  0.00     0.187 C 
BRANCH  21  22
HETATM   22  C   UNL     1      -5.507  -0.033 -31.003  1.00  0.00     0.070 A 
HETATM   23  O   UNL     1      -6.707  -0.246 -31.616  1.00  0.00    -0.325 OA
HETATM   24  C   UNL     1      -6.440  -0.753 -32.846  1.00  0.00     0.142 A 
HETATM   25  C   UNL     1      -5.084  -0.884 -33.028  1.00  0.00     0.027 A 
HETATM   26  C   UNL     1      -4.477  -0.423 -31.836  1.00  0.00     0.036 A 
ENDBRANCH  21  22
ENDBRANCH  19  21
ENDBRANCH  17  19
ENDBRANCH  15  17
ENDBRANCH  12  15
ENDBRANCH   7  11
BRANCH   1  27
HETATM   27  C   UNL     1      -0.085   6.962 -28.523  1.00  0.00    -0.035 A 
HETATM   28  C   UNL     1       0.784   8.038 -28.761  1.00  0.00     0.012 A 
HETATM   29  C   UNL     1       1.572   8.563 -27.734  1.00  0.00     0.037 A 
HETATM   30  C   UNL     1       1.508   8.030 -26.448  1.00  0.00     0.068 A 
HETATM   31  C   UNL     1       0.686   6.931 -26.208  1.00  0.00     0.037 A 
HETATM   32  C   UNL     1      -0.097   6.396 -27.240  1.00  0.00     0.012 A 
BRANCH  30  33
HETATM   33  O   UNL     1       2.307   8.651 -25.527  1.00  0.00    -0.356 OA
HETATM   34  C   UNL     1       1.894   9.946 -25.109  1.00  0.00     0.210 C 
ENDBRANCH  30  33
ENDBRANCH   1  27
BRANCH   8  35
HETATM   35  C   UNL     1      -1.143   5.290 -32.636  1.00  0.00     0.409 C 
HETATM   36  F   UNL     1      -1.855   4.217 -32.221  1.00  0.00    -0.169 F 
HETATM   37  F   UNL     1      -1.109   5.255 -33.986  1.00  0.00    -0.169 F 
HETATM   38  F   UNL     1       0.135   5.089 -32.218  1.00  0.00    -0.169 F 
ENDBRANCH   8  35
TORSDOF 9
ENDMDL
MODEL 8
REMARK VINA RESULT:      -8.1      4.050      8.877
REMARK  9 active torsions:
REMARK  status: ('A' for Active; 'I' for Inactive)
REMARK    1  A    between atoms: O_2  and  C_3 
REMARK    2  A    between atoms: C_6  and  C_7 
REMARK    3  A    between atoms: C_13  and  C_14 
REMARK       I    between atoms: C_14  and  N_15 
REMARK    4  A    between atoms: N_15  and  N_16 
REMARK    5  A    between atoms: N_16  and  C_17 
REMARK    6  A    between atoms: C_17  and  N_18 
REMARK    7  A    between atoms: N_18  and  C_19 
REMARK    8  A    between atoms: C_19  and  C_20 
REMARK    9  A    between atoms: C_27  and  C_28 
ROOT
HETATM    1  C   UNL     1      -1.868   6.383 -31.119  1.00  0.00     0.118 C 
HETATM    2  N   UNL     1      -3.084   5.831 -30.541  1.00  0.00    -0.365 N 
HETATM    3  C   UNL     1      -4.049   5.307 -31.335  1.00  0.00     0.138 A 
HETATM    4  N   UNL     1      -4.031   5.525 -32.689  1.00  0.00    -0.240 N 
HETATM    5  N   UNL     1      -5.079   5.002 -33.337  1.00  0.00    -0.181 NA
HETATM    6  C   UNL     1      -5.772   4.404 -32.362  1.00  0.00     0.160 A 
HETATM    7  C   UNL     1      -5.172   4.542 -31.082  1.00  0.00     0.098 A 
HETATM    8  C   UNL     1      -3.012   6.293 -33.384  1.00  0.00     0.221 C 
HETATM    9  C   UNL     1      -2.241   7.179 -32.385  1.00  0.00     0.066 C 
HETATM   10  H   UNL     1      -3.073   5.640 -29.536  1.00  0.00     0.161 HD
ENDROOT
BRANCH   7  11
HETATM   11  C   UNL     1      -5.624   4.070 -29.785  1.00  0.00     0.275 C 
HETATM   12  N   UNL     1      -5.981   2.738 -29.660  1.00  0.00    -0.263 N 
HETATM   13  H   UNL     1      -6.272   2.474 -28.723  1.00  0.00     0.190 HD
HETATM   14  O   UNL     1      -5.684   4.802 -28.798  1.00  0.00    -0.266 OA
BRANCH  12  15
HETATM   15  N   UNL     1      -5.329   1.723 -30.385  1.00  0.00    -0.274 N 
HETATM   16  H   UNL     1      -4.326   1.820 -30.499  1.00  0.00     0.189 HD
BRANCH  15  17
HETATM   17  C   UNL     1      -6.026   0.846 -31.177  1.00  0.00     0.186 C 
HETATM   18  S   UNL     1      -7.659   0.935 -31.522  1.00  0.00    -0.040 SA
BRANCH  17  19
HETATM   19  N   UNL     1      -5.320  -0.195 -31.695  1.00  0.00    -0.360 N 
HETATM   20  H   UNL     1      -5.244  -1.000 -31.083  1.00  0.00     0.162 HD
BRANCH  19  21
HETATM   21  C   UNL     1      -4.657  -0.308 -32.982  1.00  0.00     0.187 C 
BRANCH  21  22
HETATM   22  C   UNL     1      -5.174  -1.488 -33.712  1.00  0.00     0.070 A 
HETATM   23  O   UNL     1      -4.285  -2.497 -33.948  1.00  0.00    -0.325 OA
HETATM   24  C   UNL     1      -4.957  -3.469 -34.615  1.00  0.00     0.142 A 
HETATM   25  C   UNL     1      -6.262  -3.095 -34.825  1.00  0.00     0.027 A 
HETATM   26  C   UNL     1      -6.405  -1.811 -34.246  1.00  0.00     0.036 A 
ENDBRANCH  21  22
ENDBRANCH  19  21
ENDBRANCH  17  19
ENDBRANCH  15  17
ENDBRANCH  12  15
ENDBRANCH   7  11
BRANCH   1  27
HETATM   27  C   UNL     1      -1.112   7.184 -30.077  1.00  0.00    -0.035 A 
HETATM   28  C   UNL     1      -1.785   8.191 -29.369  1.00  0.00     0.012 A 
HETATM   29  C   UNL     1      -1.132   8.930 -28.379  1.00  0.00     0.037 A 
HETATM   30  C   UNL     1       0.204   8.679 -28.072  1.00  0.00     0.068 A 
HETATM   31  C   UNL     1       0.899   7.714 -28.800  1.00  0.00     0.037 A 
HETATM   32  C   UNL     1       0.248   6.980 -29.800  1.00  0.00     0.012 A 
BRANCH  30  33
HETATM   33  O   UNL     1       0.719   9.449 -27.066  1.00  0.00    -0.356 OA
HETATM   34  C   UNL     1      -0.122  10.486 -26.576  1.00  0.00     0.210 C 
ENDBRANCH  30  33
ENDBRANCH   1  27
BRANCH   8  35
HETATM   35  C   UNL     1      -2.098   5.357 -34.142  1.00  0.00     0.409 C 
HETATM   36  F   UNL     1      -1.933   4.162 -33.530  1.00  0.00    -0.169 F 
HETATM   37  F   UNL     1      -2.517   5.112 -35.403  1.00  0.00    -0.169 F 
HETATM   38  F   UNL     1      -0.860   5.907 -34.253  1.00  0.00    -0.169 F 
ENDBRANCH   8  35
TORSDOF 9
ENDMDL
MODEL 9
REMARK VINA RESULT:      -8.1      3.299      5.668
REMARK  9 active torsions:
REMARK  status: ('A' for Active; 'I' for Inactive)
REMARK    1  A    between atoms: O_2  and  C_3 
REMARK    2  A    between atoms: C_6  and  C_7 
REMARK    3  A    between atoms: C_13  and  C_14 
REMARK       I    between atoms: C_14  and  N_15 
REMARK    4  A    between atoms: N_15  and  N_16 
REMARK    5  A    between atoms: N_16  and  C_17 
REMARK    6  A    between atoms: C_17  and  N_18 
REMARK    7  A    between atoms: N_18  and  C_19 
REMARK    8  A    between atoms: C_19  and  C_20 
REMARK    9  A    between atoms: C_27  and  C_28 
ROOT
HETATM    1  C   UNL     1      -7.124   0.670 -33.380  1.00  0.00     0.118 C 
HETATM    2  N   UNL     1      -6.414   1.562 -32.476  1.00  0.00    -0.365 N 
HETATM    3  C   UNL     1      -5.252   1.175 -31.895  1.00  0.00     0.138 A 
HETATM    4  N   UNL     1      -4.865  -0.141 -31.925  1.00  0.00    -0.240 N 
HETATM    5  N   UNL     1      -3.731  -0.388 -31.257  1.00  0.00    -0.181 NA
HETATM    6  C   UNL     1      -3.371   0.821 -30.812  1.00  0.00     0.160 A 
HETATM    7  C   UNL     1      -4.273   1.850 -31.193  1.00  0.00     0.098 A 
HETATM    8  C   UNL     1      -5.617  -1.205 -32.567  1.00  0.00     0.221 C 
HETATM    9  C   UNL     1      -7.074  -0.758 -32.802  1.00  0.00     0.066 C 
HETATM   10  H   UNL     1      -6.688   2.548 -32.488  1.00  0.00     0.161 HD
ENDROOT
BRANCH   7  11
HETATM   11  C   UNL     1      -4.250   3.269 -30.885  1.00  0.00     0.275 C 
HETATM   12  N   UNL     1      -3.205   4.031 -31.381  1.00  0.00    -0.263 N 
HETATM   13  H   UNL     1      -3.262   5.016 -31.140  1.00  0.00     0.190 HD
HETATM   14  O   UNL     1      -5.128   3.817 -30.219  1.00  0.00    -0.266 OA
BRANCH  12  15
HETATM   15  N   UNL     1      -2.615   3.759 -32.630  1.00  0.00    -0.274 N 
HETATM   16  H   UNL     1      -2.092   2.893 -32.705  1.00  0.00     0.189 HD
BRANCH  15  17
HETATM   17  C   UNL     1      -2.457   4.738 -33.577  1.00  0.00     0.186 C 
HETATM   18  S   UNL     1      -3.606   5.198 -34.700  1.00  0.00    -0.040 SA
BRANCH  17  19
HETATM   19  N   UNL     1      -1.246   5.359 -33.610  1.00  0.00    -0.360 N 
HETATM   20  H   UNL     1      -0.544   4.884 -34.166  1.00  0.00     0.162 HD
BRANCH  19  21
HETATM   21  C   UNL     1      -0.823   6.585 -32.958  1.00  0.00     0.187 C 
BRANCH  21  22
HETATM   22  C   UNL     1      -0.344   6.286 -31.589  1.00  0.00     0.070 A 
HETATM   23  O   UNL     1      -0.069   4.978 -31.311  1.00  0.00    -0.325 OA
HETATM   24  C   UNL     1       0.355   4.928 -30.023  1.00  0.00     0.142 A 
HETATM   25  C   UNL     1       0.343   6.183 -29.463  1.00  0.00     0.027 A 
HETATM   26  C   UNL     1      -0.113   7.063 -30.472  1.00  0.00     0.036 A 
ENDBRANCH  21  22
ENDBRANCH  19  21
ENDBRANCH  17  19
ENDBRANCH  15  17
ENDBRANCH  12  15
ENDBRANCH   7  11
BRANCH   1  27
HETATM   27  C   UNL     1      -8.525   1.193 -33.634  1.00  0.00    -0.035 A 
HETATM   28  C   UNL     1      -9.625   0.387 -33.304  1.00  0.00     0.012 A 
HETATM   29  C   UNL     1     -10.932   0.844 -33.495  1.00  0.00     0.037 A 
HETATM   30  C   UNL     1     -11.169   2.116 -34.014  1.00  0.00     0.068 A 
HETATM   31  C   UNL     1     -10.086   2.909 -34.390  1.00  0.00     0.037 A 
HETATM   32  C   UNL     1      -8.776   2.447 -34.210  1.00  0.00     0.012 A 
BRANCH  30  33
HETATM   33  O   UNL     1     -12.489   2.455 -34.124  1.00  0.00    -0.356 OA
HETATM   34  C   UNL     1     -13.174   2.719 -32.906  1.00  0.00     0.210 C 
ENDBRANCH  30  33
ENDBRANCH   1  27
BRANCH   8  35
HETATM   35  C   UNL     1      -4.929  -1.611 -33.851  1.00  0.00     0.409 C 
HETATM   36  F   UNL     1      -3.937  -0.765 -34.214  1.00  0.00    -0.169 F 
HETATM   37  F   UNL     1      -4.405  -2.854 -33.802  1.00  0.00    -0.169 F 
HETATM   38  F   UNL     1      -5.823  -1.615 -34.875  1.00  0.00    -0.169 F 
ENDBRANCH   8  35
TORSDOF 9
ENDMDL
MODEL 10
REMARK VINA RESULT:      -8.1      3.478      6.407
REMARK  9 active torsions:
REMARK  status: ('A' for Active; 'I' for Inactive)
REMARK    1  A    between atoms: O_2  and  C_3 
REMARK    2  A    between atoms: C_6  and  C_7 
REMARK    3  A    between atoms: C_13  and  C_14 
REMARK       I    between atoms: C_14  and  N_15 
REMARK    4  A    between atoms: N_15  and  N_16 
REMARK    5  A    between atoms: N_16  and  C_17 
REMARK    6  A    between atoms: C_17  and  N_18 
REMARK    7  A    between atoms: N_18  and  C_19 
REMARK    8  A    between atoms: C_19  and  C_20 
REMARK    9  A    between atoms: C_27  and  C_28 
ROOT
HETATM    1  C   UNL     1      -5.367   1.286 -32.813  1.00  0.00     0.118 C 
HETATM    2  N   UNL     1      -6.593   1.719 -32.161  1.00  0.00    -0.365 N 
HETATM    3  C   UNL     1      -6.583   2.758 -31.291  1.00  0.00     0.138 A 
HETATM    4  N   UNL     1      -5.397   3.243 -30.802  1.00  0.00    -0.240 N 
HETATM    5  N   UNL     1      -5.542   4.227 -29.904  1.00  0.00    -0.181 NA
HETATM    6  C   UNL     1      -6.868   4.391 -29.845  1.00  0.00     0.160 A 
HETATM    7  C   UNL     1      -7.580   3.513 -30.704  1.00  0.00     0.098 A 
HETATM    8  C   UNL     1      -4.087   2.728 -31.161  1.00  0.00     0.221 C 
HETATM    9  C   UNL     1      -4.221   1.323 -31.782  1.00  0.00     0.066 C 
HETATM   10  H   UNL     1      -7.473   1.378 -32.557  1.00  0.00     0.161 HD
ENDROOT
BRANCH   7  11
HETATM   11  C   UNL     1      -9.011   3.360 -30.903  1.00  0.00     0.275 C 
HETATM   12  N   UNL     1      -9.631   4.163 -31.845  1.00  0.00    -0.263 N 
HETATM   13  H   UNL     1     -10.628   3.992 -31.942  1.00  0.00     0.190 HD
HETATM   14  O   UNL     1      -9.682   2.539 -30.279  1.00  0.00    -0.266 OA
BRANCH  12  15
HETATM   15  N   UNL     1      -8.980   4.556 -33.030  1.00  0.00    -0.274 N 
HETATM   16  H   UNL     1      -8.298   5.302 -32.946  1.00  0.00     0.189 HD
BRANCH  15  17
HETATM   17  C   UNL     1      -9.466   4.208 -34.265  1.00  0.00     0.186 C 
HETATM   18  S   UNL     1     -10.332   5.210 -35.286  1.00  0.00    -0.040 SA
BRANCH  17  19
HETATM   19  N   UNL     1      -9.241   2.928 -34.666  1.00  0.00    -0.360 N 
HETATM   20  H   UNL     1      -8.559   2.832 -35.409  1.00  0.00     0.162 HD
BRANCH  19  21
HETATM   21  C   UNL     1      -9.845   1.696 -34.191  1.00  0.00     0.187 C 
BRANCH  21  22
HETATM   22  C   UNL     1     -11.321   1.824 -34.197  1.00  0.00     0.070 A 
HETATM   23  O   UNL     1     -11.899   2.260 -33.040  1.00  0.00    -0.325 OA
HETATM   24  C   UNL     1     -13.237   2.311 -33.262  1.00  0.00     0.142 A 
HETATM   25  C   UNL     1     -13.530   1.900 -34.540  1.00  0.00     0.027 A 
HETATM   26  C   UNL     1     -12.293   1.579 -35.146  1.00  0.00     0.036 A 
ENDBRANCH  21  22
ENDBRANCH  19  21
ENDBRANCH  17  19
ENDBRANCH  15  17
ENDBRANCH  12  15
ENDBRANCH   7  11
BRANCH   1  27
HETATM   27  C   UNL     1      -5.573  -0.065 -33.469  1.00  0.00    -0.035 A 
HETATM   28  C   UNL     1      -4.515  -0.987 -33.484  1.00  0.00     0.012 A 
HETATM   29  C   UNL     1      -4.675  -2.254 -34.051  1.00  0.00     0.037 A 
HETATM   30  C   UNL     1      -5.895  -2.630 -34.611  1.00  0.00     0.068 A 
HETATM   31  C   UNL     1      -6.940  -1.709 -34.646  1.00  0.00     0.037 A 
HETATM   32  C   UNL     1      -6.777  -0.434 -34.088  1.00  0.00     0.012 A 
BRANCH  30  33
HETATM   33  O   UNL     1      -5.932  -3.905 -35.106  1.00  0.00    -0.356 OA
HETATM   34  C   UNL     1      -5.080  -4.850 -34.471  1.00  0.00     0.210 C 
ENDBRANCH  30  33
ENDBRANCH   1  27
BRANCH   8  35
HETATM   35  C   UNL     1      -3.394   3.701 -32.089  1.00  0.00     0.409 C 
HETATM   36  F   UNL     1      -2.564   3.097 -32.970  1.00  0.00    -0.169 F 
HETATM   37  F   UNL     1      -4.256   4.461 -32.799  1.00  0.00    -0.169 F 
HETATM   38  F   UNL     1      -2.630   4.564 -31.369  1.00  0.00    -0.169 F 
ENDBRANCH   8  35
TORSDOF 9
ENDMDL
