MODEL 1
REMARK VINA RESULT:      -8.8      0.000      0.000
REMARK  8 active torsions:
REMARK  status: ('A' for Active; 'I' for Inactive)
REMARK    1  A    between atoms: C_5  and  C_6 
REMARK    2  A    between atoms: C_6  and  N_7 
REMARK       I    between atoms: N_7  and  C_8 
REMARK    3  A    between atoms: C_8  and  C_9 
REMARK    4  A    between atoms: C_9  and  S_10 
REMARK    5  A    between atoms: S_10  and  C_11 
REMARK    6  A    between atoms: C_13  and  N_14 
REMARK    7  A    between atoms: C_15  and  N_16 
REMARK       I    between atoms: N_16  and  C_17 
REMARK    8  A    between atoms: C_17  and  C_18 
ROOT
HETATM    1  C   UNL     1      -7.710   3.563 -31.682  1.00  0.00     0.171 C 
HETATM    2  N   UNL     1      -7.076   3.346 -30.583  1.00  0.00    -0.210 NA
HETATM    3  C   UNL     1      -5.791   3.815 -30.490  1.00  0.00     0.136 C 
HETATM    4  C   UNL     1      -5.144   4.399 -31.528  1.00  0.00     0.144 C 
HETATM    5  C   UNL     1      -5.836   4.332 -32.852  1.00  0.00     0.277 C 
HETATM    6  O   UNL     1      -5.255   4.279 -33.929  1.00  0.00    -0.266 OA
HETATM    7  N   UNL     1      -7.184   4.159 -32.776  1.00  0.00    -0.300 N 
HETATM    8  H   UNL     1      -7.687   4.106 -33.647  1.00  0.00     0.171 HD
ENDROOT
BRANCH   1   9
HETATM    9  S   UNL     1      -9.374   3.116 -31.883  1.00  0.00    -0.083 SA
BRANCH   9  10
HETATM   10  C   UNL     1      -9.189   1.336 -32.175  1.00  0.00     0.185 C 
BRANCH  10  11
HETATM   11  C   UNL     1      -8.600   0.966 -33.527  1.00  0.00     0.227 C 
HETATM   12  N   UNL     1      -8.148  -0.327 -33.665  1.00  0.00    -0.356 N 
HETATM   13  H   UNL     1      -7.883  -0.806 -32.811  1.00  0.00     0.162 HD
HETATM   14  O   UNL     1      -8.620   1.763 -34.464  1.00  0.00    -0.273 OA
BRANCH  12  15
HETATM   15  C   UNL     1      -7.461  -0.714 -34.875  1.00  0.00     0.161 C 
BRANCH  15  16
HETATM   16  C   UNL     1      -6.404  -1.755 -34.621  1.00  0.00    -0.041 A 
HETATM   17  C   UNL     1      -5.214  -1.420 -33.962  1.00  0.00     0.009 A 
HETATM   18  C   UNL     1      -4.258  -2.397 -33.675  1.00  0.00     0.007 A 
HETATM   19  C   UNL     1      -4.474  -3.729 -34.043  1.00  0.00    -0.062 A 
HETATM   20  C   UNL     1      -3.477  -4.794 -33.695  1.00  0.00     0.048 C 
HETATM   21  C   UNL     1      -5.664  -4.069 -34.695  1.00  0.00     0.007 A 
HETATM   22  C   UNL     1      -6.619  -3.091 -34.985  1.00  0.00     0.009 A 
ENDBRANCH  15  16
ENDBRANCH  12  15
ENDBRANCH  10  11
ENDBRANCH   9  10
ENDBRANCH   1   9
BRANCH   3  23
HETATM   23  N   UNL     1      -5.176   3.712 -29.247  1.00  0.00    -0.285 NA
HETATM   24  H   UNL     1      -5.774   4.205 -28.583  1.00  0.00     0.125 HD
HETATM   25  H   UNL     1      -5.129   2.736 -28.960  1.00  0.00     0.125 HD
ENDBRANCH   3  23
BRANCH   4  26
HETATM   26  N   UNL     1      -3.919   5.005 -31.337  1.00  0.00    -0.314 N 
HETATM   27  C   UNL     1      -2.671   4.451 -31.541  1.00  0.00     0.280 C 
HETATM   28  O   UNL     1      -2.460   3.304 -31.914  1.00  0.00    -0.265 OA
HETATM   29  H   UNL     1      -3.936   6.019 -31.289  1.00  0.00     0.169 HD
BRANCH  27  30
HETATM   30  C   UNL     1      -1.595   5.409 -31.356  1.00  0.00     0.144 A 
HETATM   31  O   UNL     1      -1.273   5.826 -30.090  1.00  0.00    -0.298 OA
HETATM   32  C   UNL     1      -0.279   6.747 -30.212  1.00  0.00     0.122 A 
HETATM   33 BR   UNL     1       0.496   7.643 -28.772  1.00  0.00    -0.023 Br
HETATM   34  C   UNL     1       0.056   6.921 -31.534  1.00  0.00     0.048 A 
HETATM   35  C   UNL     1      -0.790   6.059 -32.274  1.00  0.00     0.046 A 
ENDBRANCH  27  30
ENDBRANCH   4  26
TORSDOF 8
ENDMDL
MODEL 2
REMARK VINA RESULT:      -8.8      4.430      7.778
REMARK  8 active torsions:
REMARK  status: ('A' for Active; 'I' for Inactive)
REMARK    1  A    between atoms: C_5  and  C_6 
REMARK    2  A    between atoms: C_6  and  N_7 
REMARK       I    between atoms: N_7  and  C_8 
REMARK    3  A    between atoms: C_8  and  C_9 
REMARK    4  A    between atoms: C_9  and  S_10 
REMARK    5  A    between atoms: S_10  and  C_11 
REMARK    6  A    between atoms: C_13  and  N_14 
REMARK    7  A    between atoms: C_15  and  N_16 
REMARK       I    between atoms: N_16  and  C_17 
REMARK    8  A    between atoms: C_17  and  C_18 
ROOT
HETATM    1  C   UNL     1      -7.107   3.687 -30.985  1.00  0.00     0.171 C 
HETATM    2  N   UNL     1      -7.479   2.462 -30.862  1.00  0.00    -0.210 NA
HETATM    3  C   UNL     1      -8.781   2.161 -31.170  1.00  0.00     0.136 C 
HETATM    4  C   UNL     1      -9.697   3.105 -31.496  1.00  0.00     0.144 C 
HETATM    5  C   UNL     1      -9.267   4.524 -31.313  1.00  0.00     0.277 C 
HETATM    6  O   UNL     1     -10.026   5.440 -31.018  1.00  0.00    -0.266 OA
HETATM    7  N   UNL     1      -7.919   4.712 -31.330  1.00  0.00    -0.300 N 
HETATM    8  H   UNL     1      -7.588   5.657 -31.206  1.00  0.00     0.171 HD
ENDROOT
BRANCH   1   9
HETATM    9  S   UNL     1      -5.463   4.176 -30.731  1.00  0.00    -0.083 SA
BRANCH   9  10
HETATM   10  C   UNL     1      -4.679   3.406 -32.173  1.00  0.00     0.185 C 
BRANCH  10  11
HETATM   11  C   UNL     1      -4.107   2.019 -31.927  1.00  0.00     0.227 C 
HETATM   12  N   UNL     1      -4.886   0.955 -32.322  1.00  0.00    -0.356 N 
HETATM   13  H   UNL     1      -5.885   1.125 -32.381  1.00  0.00     0.162 HD
HETATM   14  O   UNL     1      -2.968   1.875 -31.484  1.00  0.00    -0.273 OA
BRANCH  12  15
HETATM   15  C   UNL     1      -4.467  -0.390 -32.005  1.00  0.00     0.161 C 
BRANCH  15  16
HETATM   16  C   UNL     1      -4.993  -1.397 -32.993  1.00  0.00    -0.041 A 
HETATM   17  C   UNL     1      -4.165  -2.413 -33.486  1.00  0.00     0.009 A 
HETATM   18  C   UNL     1      -4.668  -3.382 -34.359  1.00  0.00     0.007 A 
HETATM   19  C   UNL     1      -6.009  -3.351 -34.755  1.00  0.00    -0.062 A 
HETATM   20  C   UNL     1      -6.571  -4.415 -35.651  1.00  0.00     0.048 C 
HETATM   21  C   UNL     1      -6.841  -2.341 -34.259  1.00  0.00     0.007 A 
HETATM   22  C   UNL     1      -6.337  -1.371 -33.389  1.00  0.00     0.009 A 
ENDBRANCH  15  16
ENDBRANCH  12  15
ENDBRANCH  10  11
ENDBRANCH   9  10
ENDBRANCH   1   9
BRANCH   3  23
HETATM   23  N   UNL     1      -9.124   0.813 -31.184  1.00  0.00    -0.285 NA
HETATM   24  H   UNL     1      -9.030   0.477 -30.225  1.00  0.00     0.125 HD
HETATM   25  H   UNL     1     -10.099   0.703 -31.458  1.00  0.00     0.125 HD
ENDBRANCH   3  23
BRANCH   4  26
HETATM   26  N   UNL     1     -10.944   2.738 -31.961  1.00  0.00    -0.314 N 
HETATM   27  C   UNL     1     -11.320   2.530 -33.273  1.00  0.00     0.280 C 
HETATM   28  O   UNL     1     -10.589   2.662 -34.246  1.00  0.00    -0.265 OA
HETATM   29  H   UNL     1     -11.568   2.338 -31.266  1.00  0.00     0.169 HD
BRANCH  27  30
HETATM   30  C   UNL     1     -12.680   2.036 -33.395  1.00  0.00     0.144 A 
HETATM   31  O   UNL     1     -13.691   2.667 -32.717  1.00  0.00    -0.298 OA
HETATM   32  C   UNL     1     -14.835   1.975 -32.968  1.00  0.00     0.122 A 
HETATM   33 BR   UNL     1     -16.500   2.415 -32.251  1.00  0.00    -0.023 Br
HETATM   34  C   UNL     1     -14.582   0.915 -33.807  1.00  0.00     0.048 A 
HETATM   35  C   UNL     1     -13.194   0.953 -34.084  1.00  0.00     0.046 A 
ENDBRANCH  27  30
ENDBRANCH   4  26
TORSDOF 8
ENDMDL
MODEL 3
REMARK VINA RESULT:      -8.7      3.218      4.821
REMARK  8 active torsions:
REMARK  status: ('A' for Active; 'I' for Inactive)
REMARK    1  A    between atoms: C_5  and  C_6 
REMARK    2  A    between atoms: C_6  and  N_7 
REMARK       I    between atoms: N_7  and  C_8 
REMARK    3  A    between atoms: C_8  and  C_9 
REMARK    4  A    between atoms: C_9  and  S_10 
REMARK    5  A    between atoms: S_10  and  C_11 
REMARK    6  A    between atoms: C_13  and  N_14 
REMARK    7  A    between atoms: C_15  and  N_16 
REMARK       I    between atoms: N_16  and  C_17 
REMARK    8  A    between atoms: C_17  and  C_18 
ROOT
HETATM    1  C   UNL     1      -2.498   4.977 -32.079  1.00  0.00     0.171 C 
HETATM    2  N   UNL     1      -1.498   4.405 -31.505  1.00  0.00    -0.210 NA
HETATM    3  C   UNL     1      -0.765   5.149 -30.617  1.00  0.00     0.136 C 
HETATM    4  C   UNL     1      -0.990   6.468 -30.401  1.00  0.00     0.144 C 
HETATM    5  C   UNL     1      -1.958   7.127 -31.331  1.00  0.00     0.277 C 
HETATM    6  O   UNL     1      -1.893   8.303 -31.670  1.00  0.00    -0.266 OA
HETATM    7  N   UNL     1      -2.839   6.277 -31.924  1.00  0.00    -0.300 N 
HETATM    8  H   UNL     1      -3.508   6.682 -32.561  1.00  0.00     0.171 HD
ENDROOT
BRANCH   1   9
HETATM    9  S   UNL     1      -3.566   4.113 -33.138  1.00  0.00    -0.083 SA
BRANCH   9  10
HETATM   10  C   UNL     1      -4.339   2.982 -31.951  1.00  0.00     0.185 C 
BRANCH  10  11
HETATM   11  C   UNL     1      -3.669   1.622 -31.831  1.00  0.00     0.227 C 
HETATM   12  N   UNL     1      -4.008   0.686 -32.781  1.00  0.00    -0.356 N 
HETATM   13  H   UNL     1      -4.908   0.807 -33.232  1.00  0.00     0.162 HD
HETATM   14  O   UNL     1      -2.803   1.418 -30.981  1.00  0.00    -0.273 OA
BRANCH  12  15
HETATM   15  C   UNL     1      -3.510  -0.664 -32.658  1.00  0.00     0.161 C 
BRANCH  15  16
HETATM   16  C   UNL     1      -4.334  -1.647 -33.446  1.00  0.00    -0.041 A 
HETATM   17  C   UNL     1      -3.883  -2.959 -33.646  1.00  0.00     0.009 A 
HETATM   18  C   UNL     1      -4.672  -3.888 -34.328  1.00  0.00     0.007 A 
HETATM   19  C   UNL     1      -5.927  -3.523 -34.825  1.00  0.00    -0.062 A 
HETATM   20  C   UNL     1      -6.804  -4.526 -35.514  1.00  0.00     0.048 C 
HETATM   21  C   UNL     1      -6.384  -2.215 -34.622  1.00  0.00     0.007 A 
HETATM   22  C   UNL     1      -5.593  -1.285 -33.942  1.00  0.00     0.009 A 
ENDBRANCH  15  16
ENDBRANCH  12  15
ENDBRANCH  10  11
ENDBRANCH   9  10
ENDBRANCH   1   9
BRANCH   3  23
HETATM   23  N   UNL     1       0.209   4.474 -29.891  1.00  0.00    -0.285 NA
HETATM   24  H   UNL     1       0.721   5.179 -29.360  1.00  0.00     0.125 HD
HETATM   25  H   UNL     1      -0.227   3.837 -29.226  1.00  0.00     0.125 HD
ENDBRANCH   3  23
BRANCH   4  26
HETATM   26  N   UNL     1      -0.341   7.130 -29.380  1.00  0.00    -0.314 N 
HETATM   27  C   UNL     1      -0.856   7.475 -28.146  1.00  0.00     0.280 C 
HETATM   28  O   UNL     1      -2.002   7.256 -27.773  1.00  0.00    -0.265 OA
HETATM   29  H   UNL     1       0.673   7.136 -29.439  1.00  0.00     0.169 HD
BRANCH  27  30
HETATM   30  C   UNL     1       0.140   8.059 -27.265  1.00  0.00     0.144 A 
HETATM   31  O   UNL     1      -0.259   8.649 -26.093  1.00  0.00    -0.298 OA
HETATM   32  C   UNL     1       0.856   9.150 -25.497  1.00  0.00     0.122 A 
HETATM   33 BR   UNL     1       0.848  10.078 -23.879  1.00  0.00    -0.023 Br
HETATM   34  C   UNL     1       1.970   8.881 -26.256  1.00  0.00     0.048 A 
HETATM   35  C   UNL     1       1.511   8.177 -27.397  1.00  0.00     0.046 A 
ENDBRANCH  27  30
ENDBRANCH   4  26
TORSDOF 8
ENDMDL
MODEL 4
REMARK VINA RESULT:      -8.5      2.619      4.066
REMARK  8 active torsions:
REMARK  status: ('A' for Active; 'I' for Inactive)
REMARK    1  A    between atoms: C_5  and  C_6 
REMARK    2  A    between atoms: C_6  and  N_7 
REMARK       I    between atoms: N_7  and  C_8 
REMARK    3  A    between atoms: C_8  and  C_9 
REMARK    4  A    between atoms: C_9  and  S_10 
REMARK    5  A    between atoms: S_10  and  C_11 
REMARK    6  A    between atoms: C_13  and  N_14 
REMARK    7  A    between atoms: C_15  and  N_16 
REMARK       I    between atoms: N_16  and  C_17 
REMARK    8  A    between atoms: C_17  and  C_18 
ROOT
HETATM    1  C   UNL     1      -3.206   5.387 -33.596  1.00  0.00     0.171 C 
HETATM    2  N   UNL     1      -2.555   4.581 -32.833  1.00  0.00    -0.210 NA
HETATM    3  C   UNL     1      -1.894   5.120 -31.759  1.00  0.00     0.136 C 
HETATM    4  C   UNL     1      -1.821   6.454 -31.534  1.00  0.00     0.144 C 
HETATM    5  C   UNL     1      -2.335   7.332 -32.630  1.00  0.00     0.277 C 
HETATM    6  O   UNL     1      -1.893   8.446 -32.882  1.00  0.00    -0.266 OA
HETATM    7  N   UNL     1      -3.233   6.733 -33.458  1.00  0.00    -0.300 N 
HETATM    8  H   UNL     1      -3.602   7.291 -34.213  1.00  0.00     0.171 HD
ENDROOT
BRANCH   1   9
HETATM    9  S   UNL     1      -4.170   4.818 -34.921  1.00  0.00    -0.083 SA
BRANCH   9  10
HETATM   10  C   UNL     1      -5.744   4.535 -34.067  1.00  0.00     0.185 C 
BRANCH  10  11
HETATM   11  C   UNL     1      -5.722   3.419 -33.035  1.00  0.00     0.227 C 
HETATM   12  N   UNL     1      -5.559   2.141 -33.518  1.00  0.00    -0.356 N 
HETATM   13  H   UNL     1      -5.843   1.982 -34.479  1.00  0.00     0.162 HD
HETATM   14  O   UNL     1      -5.754   3.671 -31.831  1.00  0.00    -0.273 OA
BRANCH  12  15
HETATM   15  C   UNL     1      -5.656   1.020 -32.612  1.00  0.00     0.161 C 
BRANCH  15  16
HETATM   16  C   UNL     1      -5.774  -0.292 -33.340  1.00  0.00    -0.041 A 
HETATM   17  C   UNL     1      -4.654  -1.114 -33.517  1.00  0.00     0.009 A 
HETATM   18  C   UNL     1      -4.774  -2.358 -34.142  1.00  0.00     0.007 A 
HETATM   19  C   UNL     1      -6.017  -2.802 -34.604  1.00  0.00    -0.062 A 
HETATM   20  C   UNL     1      -6.166  -4.156 -35.232  1.00  0.00     0.048 C 
HETATM   21  C   UNL     1      -7.139  -1.985 -34.424  1.00  0.00     0.007 A 
HETATM   22  C   UNL     1      -7.018  -0.741 -33.801  1.00  0.00     0.009 A 
ENDBRANCH  15  16
ENDBRANCH  12  15
ENDBRANCH  10  11
ENDBRANCH   9  10
ENDBRANCH   1   9
BRANCH   3  23
HETATM   23  N   UNL     1      -1.329   4.223 -30.860  1.00  0.00    -0.285 NA
HETATM   24  H   UNL     1      -1.720   4.441 -29.943  1.00  0.00     0.125 HD
HETATM   25  H   UNL     1      -1.602   3.270 -31.097  1.00  0.00     0.125 HD
ENDBRANCH   3  23
BRANCH   4  26
HETATM   26  N   UNL     1      -1.292   6.936 -30.354  1.00  0.00    -0.314 N 
HETATM   27  C   UNL     1       0.042   7.048 -30.019  1.00  0.00     0.280 C 
HETATM   28  O   UNL     1       0.979   6.709 -30.731  1.00  0.00    -0.265 OA
HETATM   29  H   UNL     1      -1.926   7.492 -29.787  1.00  0.00     0.169 HD
BRANCH  27  30
HETATM   30  C   UNL     1       0.247   7.709 -28.743  1.00  0.00     0.144 A 
HETATM   31  O   UNL     1      -0.796   7.805 -27.858  1.00  0.00    -0.298 OA
HETATM   32  C   UNL     1      -0.345   8.505 -26.782  1.00  0.00     0.122 A 
HETATM   33 BR   UNL     1      -1.395   8.935 -25.302  1.00  0.00    -0.023 Br
HETATM   34  C   UNL     1       0.975   8.851 -26.951  1.00  0.00     0.048 A 
HETATM   35  C   UNL     1       1.359   8.338 -28.214  1.00  0.00     0.046 A 
ENDBRANCH  27  30
ENDBRANCH   4  26
TORSDOF 8
ENDMDL
MODEL 5
REMARK VINA RESULT:      -8.5      3.591      8.975
REMARK  8 active torsions:
REMARK  status: ('A' for Active; 'I' for Inactive)
REMARK    1  A    between atoms: C_5  and  C_6 
REMARK    2  A    between atoms: C_6  and  N_7 
REMARK       I    between atoms: N_7  and  C_8 
REMARK    3  A    between atoms: C_8  and  C_9 
REMARK    4  A    between atoms: C_9  and  S_10 
REMARK    5  A    between atoms: S_10  and  C_11 
REMARK    6  A    between atoms: C_13  and  N_14 
REMARK    7  A    between atoms: C_15  and  N_16 
REMARK       I    between atoms: N_16  and  C_17 
REMARK    8  A    between atoms: C_17  and  C_18 
ROOT
HETATM    1  C   UNL     1      -5.048   3.995 -31.309  1.00  0.00     0.171 C 
HETATM    2  N   UNL     1      -4.041   3.198 -31.228  1.00  0.00    -0.210 NA
HETATM    3  C   UNL     1      -4.228   1.899 -31.624  1.00  0.00     0.136 C 
HETATM    4  C   UNL     1      -5.435   1.409 -31.995  1.00  0.00     0.144 C 
HETATM    5  C   UNL     1      -6.606   2.309 -31.764  1.00  0.00     0.277 C 
HETATM    6  O   UNL     1      -7.736   1.915 -31.506  1.00  0.00    -0.266 OA
HETATM    7  N   UNL     1      -6.294   3.632 -31.691  1.00  0.00    -0.300 N 
HETATM    8  H   UNL     1      -7.056   4.273 -31.533  1.00  0.00     0.171 HD
ENDROOT
BRANCH   1   9
HETATM    9  S   UNL     1      -4.913   5.685 -30.942  1.00  0.00    -0.083 SA
BRANCH   9  10
HETATM   10  C   UNL     1      -4.347   6.311 -32.547  1.00  0.00     0.185 C 
BRANCH  10  11
HETATM   11  C   UNL     1      -2.837   6.364 -32.718  1.00  0.00     0.227 C 
HETATM   12  N   UNL     1      -2.104   5.469 -31.973  1.00  0.00    -0.356 N 
HETATM   13  H   UNL     1      -2.540   5.125 -31.124  1.00  0.00     0.162 HD
HETATM   14  O   UNL     1      -2.321   7.109 -33.551  1.00  0.00    -0.273 OA
BRANCH  12  15
HETATM   15  C   UNL     1      -0.662   5.545 -31.985  1.00  0.00     0.161 C 
BRANCH  15  16
HETATM   16  C   UNL     1      -0.106   6.021 -30.670  1.00  0.00    -0.041 A 
HETATM   17  C   UNL     1      -0.130   7.381 -30.335  1.00  0.00     0.009 A 
HETATM   18  C   UNL     1       0.333   7.817 -29.091  1.00  0.00     0.007 A 
HETATM   19  C   UNL     1       0.831   6.901 -28.159  1.00  0.00    -0.062 A 
HETATM   20  C   UNL     1       1.284   7.352 -26.803  1.00  0.00     0.048 C 
HETATM   21  C   UNL     1       0.851   5.541 -28.489  1.00  0.00     0.007 A 
HETATM   22  C   UNL     1       0.391   5.105 -29.734  1.00  0.00     0.009 A 
ENDBRANCH  15  16
ENDBRANCH  12  15
ENDBRANCH  10  11
ENDBRANCH   9  10
ENDBRANCH   1   9
BRANCH   3  23
HETATM   23  N   UNL     1      -3.095   1.094 -31.679  1.00  0.00    -0.285 NA
HETATM   24  H   UNL     1      -3.363   0.185 -31.301  1.00  0.00     0.125 HD
HETATM   25  H   UNL     1      -2.808   0.959 -32.647  1.00  0.00     0.125 HD
ENDBRANCH   3  23
BRANCH   4  26
HETATM   26  N   UNL     1      -5.539   0.147 -32.544  1.00  0.00    -0.314 N 
HETATM   27  C   UNL     1      -5.990  -0.181 -33.807  1.00  0.00     0.280 C 
HETATM   28  O   UNL     1      -6.394   0.618 -34.642  1.00  0.00    -0.265 OA
HETATM   29  H   UNL     1      -5.000  -0.577 -32.079  1.00  0.00     0.169 HD
BRANCH  27  30
HETATM   30  C   UNL     1      -5.854  -1.597 -34.101  1.00  0.00     0.144 A 
HETATM   31  O   UNL     1      -4.717  -2.259 -33.714  1.00  0.00    -0.298 OA
HETATM   32  C   UNL     1      -4.831  -3.542 -34.155  1.00  0.00     0.122 A 
HETATM   33 BR   UNL     1      -3.527  -4.851 -33.906  1.00  0.00    -0.023 Br
HETATM   34  C   UNL     1      -6.028  -3.721 -34.808  1.00  0.00     0.048 A 
HETATM   35  C   UNL     1      -6.689  -2.469 -34.774  1.00  0.00     0.046 A 
ENDBRANCH  27  30
ENDBRANCH   4  26
TORSDOF 8
ENDMDL
MODEL 6
REMARK VINA RESULT:      -8.4      1.695      2.334
REMARK  8 active torsions:
REMARK  status: ('A' for Active; 'I' for Inactive)
REMARK    1  A    between atoms: C_5  and  C_6 
REMARK    2  A    between atoms: C_6  and  N_7 
REMARK       I    between atoms: N_7  and  C_8 
REMARK    3  A    between atoms: C_8  and  C_9 
REMARK    4  A    between atoms: C_9  and  S_10 
REMARK    5  A    between atoms: S_10  and  C_11 
REMARK    6  A    between atoms: C_13  and  N_14 
REMARK    7  A    between atoms: C_15  and  N_16 
REMARK       I    between atoms: N_16  and  C_17 
REMARK    8  A    between atoms: C_17  and  C_18 
ROOT
HETATM    1  C   UNL     1      -6.997   4.314 -33.292  1.00  0.00     0.171 C 
HETATM    2  N   UNL     1      -6.170   4.738 -34.182  1.00  0.00    -0.210 NA
HETATM    3  C   UNL     1      -4.973   5.245 -33.745  1.00  0.00     0.136 C 
HETATM    4  C   UNL     1      -4.677   5.404 -32.431  1.00  0.00     0.144 C 
HETATM    5  C   UNL     1      -5.804   5.181 -31.475  1.00  0.00     0.277 C 
HETATM    6  O   UNL     1      -5.924   5.765 -30.405  1.00  0.00    -0.266 OA
HETATM    7  N   UNL     1      -6.804   4.392 -31.956  1.00  0.00    -0.300 N 
HETATM    8  H   UNL     1      -7.585   4.219 -31.342  1.00  0.00     0.171 HD
ENDROOT
BRANCH   1   9
HETATM    9  S   UNL     1      -8.495   3.552 -33.722  1.00  0.00    -0.083 SA
BRANCH   9  10
HETATM   10  C   UNL     1      -8.414   2.080 -32.666  1.00  0.00     0.185 C 
BRANCH  10  11
HETATM   11  C   UNL     1      -8.512   0.755 -33.406  1.00  0.00     0.227 C 
HETATM   12  N   UNL     1      -7.440   0.416 -34.200  1.00  0.00    -0.356 N 
HETATM   13  H   UNL     1      -6.869   1.182 -34.538  1.00  0.00     0.162 HD
HETATM   14  O   UNL     1      -9.463  -0.003 -33.220  1.00  0.00    -0.273 OA
BRANCH  12  15
HETATM   15  C   UNL     1      -7.516  -0.764 -35.031  1.00  0.00     0.161 C 
BRANCH  15  16
HETATM   16  C   UNL     1      -6.489  -1.796 -34.648  1.00  0.00    -0.041 A 
HETATM   17  C   UNL     1      -6.679  -3.146 -34.971  1.00  0.00     0.009 A 
HETATM   18  C   UNL     1      -5.701  -4.096 -34.666  1.00  0.00     0.007 A 
HETATM   19  C   UNL     1      -4.515  -3.714 -34.032  1.00  0.00    -0.062 A 
HETATM   20  C   UNL     1      -3.437  -4.717 -33.747  1.00  0.00     0.048 C 
HETATM   21  C   UNL     1      -4.319  -2.365 -33.714  1.00  0.00     0.007 A 
HETATM   22  C   UNL     1      -5.299  -1.416 -34.015  1.00  0.00     0.009 A 
ENDBRANCH  15  16
ENDBRANCH  12  15
ENDBRANCH  10  11
ENDBRANCH   9  10
ENDBRANCH   1   9
BRANCH   3  23
HETATM   23  N   UNL     1      -4.031   5.552 -34.720  1.00  0.00    -0.285 NA
HETATM   24  H   UNL     1      -4.452   5.315 -35.619  1.00  0.00     0.125 HD
HETATM   25  H   UNL     1      -3.838   6.552 -34.719  1.00  0.00     0.125 HD
ENDBRANCH   3  23
BRANCH   4  26
HETATM   26  N   UNL     1      -3.402   5.757 -32.040  1.00  0.00    -0.314 N 
HETATM   27  C   UNL     1      -2.963   7.006 -31.649  1.00  0.00     0.280 C 
HETATM   28  O   UNL     1      -3.654   8.017 -31.608  1.00  0.00    -0.265 OA
HETATM   29  H   UNL     1      -2.799   4.986 -31.771  1.00  0.00     0.169 HD
BRANCH  27  30
HETATM   30  C   UNL     1      -1.587   6.998 -31.186  1.00  0.00     0.144 A 
HETATM   31  O   UNL     1      -1.291   7.484 -29.938  1.00  0.00    -0.298 OA
HETATM   32  C   UNL     1       0.058   7.404 -29.786  1.00  0.00     0.122 A 
HETATM   33 BR   UNL     1       0.972   7.968 -28.262  1.00  0.00    -0.023 Br
HETATM   34  C   UNL     1       0.638   6.862 -30.909  1.00  0.00     0.048 A 
HETATM   35  C   UNL     1      -0.420   6.599 -31.813  1.00  0.00     0.046 A 
ENDBRANCH  27  30
ENDBRANCH   4  26
TORSDOF 8
ENDMDL
MODEL 7
REMARK VINA RESULT:      -7.8      4.539      9.954
REMARK  8 active torsions:
REMARK  status: ('A' for Active; 'I' for Inactive)
REMARK    1  A    between atoms: C_5  and  C_6 
REMARK    2  A    between atoms: C_6  and  N_7 
REMARK       I    between atoms: N_7  and  C_8 
REMARK    3  A    between atoms: C_8  and  C_9 
REMARK    4  A    between atoms: C_9  and  S_10 
REMARK    5  A    between atoms: S_10  and  C_11 
REMARK    6  A    between atoms: C_13  and  N_14 
REMARK    7  A    between atoms: C_15  and  N_16 
REMARK       I    between atoms: N_16  and  C_17 
REMARK    8  A    between atoms: C_17  and  C_18 
ROOT
HETATM    1  C   UNL     1      -6.111   2.230 -32.292  1.00  0.00     0.171 C 
HETATM    2  N   UNL     1      -6.525   1.129 -32.814  1.00  0.00    -0.210 NA
HETATM    3  C   UNL     1      -7.878   0.907 -32.836  1.00  0.00     0.136 C 
HETATM    4  C   UNL     1      -8.770   1.743 -32.250  1.00  0.00     0.144 C 
HETATM    5  C   UNL     1      -8.190   2.827 -31.400  1.00  0.00     0.277 C 
HETATM    6  O   UNL     1      -8.742   3.296 -30.412  1.00  0.00    -0.266 OA
HETATM    7  N   UNL     1      -6.904   3.154 -31.702  1.00  0.00    -0.300 N 
HETATM    8  H   UNL     1      -6.475   3.880 -31.150  1.00  0.00     0.171 HD
ENDROOT
BRANCH   1   9
HETATM    9  S   UNL     1      -4.435   2.676 -32.301  1.00  0.00    -0.083 SA
BRANCH   9  10
HETATM   10  C   UNL     1      -4.515   4.183 -33.306  1.00  0.00     0.185 C 
BRANCH  10  11
HETATM   11  C   UNL     1      -3.216   4.968 -33.389  1.00  0.00     0.227 C 
HETATM   12  N   UNL     1      -3.275   6.292 -33.016  1.00  0.00    -0.356 N 
HETATM   13  H   UNL     1      -4.182   6.740 -33.085  1.00  0.00     0.162 HD
HETATM   14  O   UNL     1      -2.159   4.411 -33.685  1.00  0.00    -0.273 OA
BRANCH  12  15
HETATM   15  C   UNL     1      -2.113   7.132 -33.189  1.00  0.00     0.161 C 
BRANCH  15  16
HETATM   16  C   UNL     1      -1.338   7.301 -31.910  1.00  0.00    -0.041 A 
HETATM   17  C   UNL     1      -1.868   8.044 -30.847  1.00  0.00     0.009 A 
HETATM   18  C   UNL     1      -1.175   8.154 -29.639  1.00  0.00     0.007 A 
HETATM   19  C   UNL     1       0.063   7.524 -29.472  1.00  0.00    -0.062 A 
HETATM   20  C   UNL     1       0.792   7.594 -28.163  1.00  0.00     0.048 C 
HETATM   21  C   UNL     1       0.593   6.777 -30.530  1.00  0.00     0.007 A 
HETATM   22  C   UNL     1      -0.100   6.670 -31.739  1.00  0.00     0.009 A 
ENDBRANCH  15  16
ENDBRANCH  12  15
ENDBRANCH  10  11
ENDBRANCH   9  10
ENDBRANCH   1   9
BRANCH   3  23
HETATM   23  N   UNL     1      -8.317  -0.208 -33.541  1.00  0.00    -0.285 NA
HETATM   24  H   UNL     1      -9.106  -0.592 -33.020  1.00  0.00     0.125 HD
HETATM   25  H   UNL     1      -8.656   0.071 -34.461  1.00  0.00     0.125 HD
ENDBRANCH   3  23
BRANCH   4  26
HETATM   26  N   UNL     1     -10.125   1.567 -32.444  1.00  0.00    -0.314 N 
HETATM   27  C   UNL     1     -10.921   2.179 -33.392  1.00  0.00     0.280 C 
HETATM   28  O   UNL     1     -10.536   3.004 -34.210  1.00  0.00    -0.265 OA
HETATM   29  H   UNL     1     -10.520   0.729 -32.027  1.00  0.00     0.169 HD
BRANCH  27  30
HETATM   30  C   UNL     1     -12.281   1.672 -33.394  1.00  0.00     0.144 A 
HETATM   31  O   UNL     1     -13.286   2.435 -32.855  1.00  0.00    -0.298 OA
HETATM   32  C   UNL     1     -14.432   1.708 -32.942  1.00  0.00     0.122 A 
HETATM   33 BR   UNL     1     -16.090   2.293 -32.319  1.00  0.00    -0.023 Br
HETATM   34  C   UNL     1     -14.188   0.494 -33.541  1.00  0.00     0.048 A 
HETATM   35  C   UNL     1     -12.802   0.469 -33.833  1.00  0.00     0.046 A 
ENDBRANCH  27  30
ENDBRANCH   4  26
TORSDOF 8
ENDMDL
MODEL 8
REMARK VINA RESULT:      -7.7      2.603      3.812
REMARK  8 active torsions:
REMARK  status: ('A' for Active; 'I' for Inactive)
REMARK    1  A    between atoms: C_5  and  C_6 
REMARK    2  A    between atoms: C_6  and  N_7 
REMARK       I    between atoms: N_7  and  C_8 
REMARK    3  A    between atoms: C_8  and  C_9 
REMARK    4  A    between atoms: C_9  and  S_10 
REMARK    5  A    between atoms: S_10  and  C_11 
REMARK    6  A    between atoms: C_13  and  N_14 
REMARK    7  A    between atoms: C_15  and  N_16 
REMARK       I    between atoms: N_16  and  C_17 
REMARK    8  A    between atoms: C_17  and  C_18 
ROOT
HETATM    1  C   UNL     1      -4.096   5.470 -33.151  1.00  0.00     0.171 C 
HETATM    2  N   UNL     1      -4.717   6.388 -32.498  1.00  0.00    -0.210 NA
HETATM    3  C   UNL     1      -4.040   7.010 -31.480  1.00  0.00     0.136 C 
HETATM    4  C   UNL     1      -2.802   6.631 -31.081  1.00  0.00     0.144 C 
HETATM    5  C   UNL     1      -2.281   5.364 -31.678  1.00  0.00     0.277 C 
HETATM    6  O   UNL     1      -1.521   4.594 -31.103  1.00  0.00    -0.266 OA
HETATM    7  N   UNL     1      -2.851   5.024 -32.867  1.00  0.00    -0.300 N 
HETATM    8  H   UNL     1      -2.529   4.173 -33.301  1.00  0.00     0.171 HD
ENDROOT
BRANCH   1   9
HETATM    9  S   UNL     1      -4.803   4.686 -34.527  1.00  0.00    -0.083 SA
BRANCH   9  10
HETATM   10  C   UNL     1      -6.284   3.975 -33.758  1.00  0.00     0.185 C 
BRANCH  10  11
HETATM   11  C   UNL     1      -6.020   2.811 -32.816  1.00  0.00     0.227 C 
HETATM   12  N   UNL     1      -5.541   1.655 -33.389  1.00  0.00    -0.356 N 
HETATM   13  H   UNL     1      -5.752   1.517 -34.371  1.00  0.00     0.162 HD
HETATM   14  O   UNL     1      -6.145   2.943 -31.599  1.00  0.00    -0.273 OA
BRANCH  12  15
HETATM   15  C   UNL     1      -5.389   0.469 -32.578  1.00  0.00     0.161 C 
BRANCH  15  16
HETATM   16  C   UNL     1      -5.594  -0.793 -33.371  1.00  0.00    -0.041 A 
HETATM   17  C   UNL     1      -4.508  -1.614 -33.701  1.00  0.00     0.009 A 
HETATM   18  C   UNL     1      -4.705  -2.815 -34.388  1.00  0.00     0.007 A 
HETATM   19  C   UNL     1      -5.992  -3.216 -34.760  1.00  0.00    -0.062 A 
HETATM   20  C   UNL     1      -6.220  -4.527 -35.452  1.00  0.00     0.048 C 
HETATM   21  C   UNL     1      -7.080  -2.401 -34.426  1.00  0.00     0.007 A 
HETATM   22  C   UNL     1      -6.883  -1.199 -33.742  1.00  0.00     0.009 A 
ENDBRANCH  15  16
ENDBRANCH  12  15
ENDBRANCH  10  11
ENDBRANCH   9  10
ENDBRANCH   1   9
BRANCH   3  23
HETATM   23  N   UNL     1      -4.665   8.103 -30.891  1.00  0.00    -0.285 NA
HETATM   24  H   UNL     1      -4.908   8.745 -31.646  1.00  0.00     0.125 HD
HETATM   25  H   UNL     1      -5.531   7.810 -30.440  1.00  0.00     0.125 HD
ENDBRANCH   3  23
BRANCH   4  26
HETATM   26  N   UNL     1      -2.097   7.392 -30.171  1.00  0.00    -0.314 N 
HETATM   27  C   UNL     1      -2.322   7.493 -28.812  1.00  0.00     0.280 C 
HETATM   28  O   UNL     1      -3.215   6.921 -28.200  1.00  0.00    -0.265 OA
HETATM   29  H   UNL     1      -1.181   7.704 -30.479  1.00  0.00     0.169 HD
BRANCH  27  30
HETATM   30  C   UNL     1      -1.316   8.292 -28.135  1.00  0.00     0.144 A 
HETATM   31  O   UNL     1      -0.278   7.666 -27.493  1.00  0.00    -0.298 OA
HETATM   32  C   UNL     1       0.476   8.637 -26.910  1.00  0.00     0.122 A 
HETATM   33 BR   UNL     1       1.999   8.303 -25.887  1.00  0.00    -0.023 Br
HETATM   34  C   UNL     1      -0.050   9.879 -27.176  1.00  0.00     0.048 A 
HETATM   35  C   UNL     1      -1.204   9.659 -27.966  1.00  0.00     0.046 A 
ENDBRANCH  27  30
ENDBRANCH   4  26
TORSDOF 8
ENDMDL
MODEL 9
REMARK VINA RESULT:      -7.7      1.642      2.216
REMARK  8 active torsions:
REMARK  status: ('A' for Active; 'I' for Inactive)
REMARK    1  A    between atoms: C_5  and  C_6 
REMARK    2  A    between atoms: C_6  and  N_7 
REMARK       I    between atoms: N_7  and  C_8 
REMARK    3  A    between atoms: C_8  and  C_9 
REMARK    4  A    between atoms: C_9  and  S_10 
REMARK    5  A    between atoms: S_10  and  C_11 
REMARK    6  A    between atoms: C_13  and  N_14 
REMARK    7  A    between atoms: C_15  and  N_16 
REMARK       I    between atoms: N_16  and  C_17 
REMARK    8  A    between atoms: C_17  and  C_18 
ROOT
HETATM    1  C   UNL     1      -8.629   3.380 -32.432  1.00  0.00     0.171 C 
HETATM    2  N   UNL     1      -7.964   3.878 -33.416  1.00  0.00    -0.210 NA
HETATM    3  C   UNL     1      -6.687   4.309 -33.164  1.00  0.00     0.136 C 
HETATM    4  C   UNL     1      -6.147   4.323 -31.921  1.00  0.00     0.144 C 
HETATM    5  C   UNL     1      -7.085   4.025 -30.796  1.00  0.00     0.277 C 
HETATM    6  O   UNL     1      -6.980   4.497 -29.670  1.00  0.00    -0.266 OA
HETATM    7  N   UNL     1      -8.189   3.313 -31.155  1.00  0.00    -0.300 N 
HETATM    8  H   UNL     1      -8.849   3.094 -30.425  1.00  0.00     0.171 HD
ENDROOT
BRANCH   1   9
HETATM    9  S   UNL     1     -10.211   2.701 -32.645  1.00  0.00    -0.083 SA
BRANCH   9  10
HETATM   10  C   UNL     1      -9.781   0.948 -32.811  1.00  0.00     0.185 C 
BRANCH  10  11
HETATM   11  C   UNL     1      -8.319   0.619 -32.553  1.00  0.00     0.227 C 
HETATM   12  N   UNL     1      -7.466   0.733 -33.627  1.00  0.00    -0.356 N 
HETATM   13  H   UNL     1      -7.885   0.646 -34.547  1.00  0.00     0.162 HD
HETATM   14  O   UNL     1      -7.921   0.358 -31.418  1.00  0.00    -0.273 OA
BRANCH  12  15
HETATM   15  C   UNL     1      -6.090   0.315 -33.490  1.00  0.00     0.161 C 
BRANCH  15  16
HETATM   16  C   UNL     1      -5.880  -1.107 -33.936  1.00  0.00    -0.041 A 
HETATM   17  C   UNL     1      -4.610  -1.695 -33.875  1.00  0.00     0.009 A 
HETATM   18  C   UNL     1      -4.426  -3.032 -34.234  1.00  0.00     0.007 A 
HETATM   19  C   UNL     1      -5.508  -3.807 -34.664  1.00  0.00    -0.062 A 
HETATM   20  C   UNL     1      -5.330  -5.256 -35.004  1.00  0.00     0.048 C 
HETATM   21  C   UNL     1      -6.779  -3.224 -34.720  1.00  0.00     0.007 A 
HETATM   22  C   UNL     1      -6.963  -1.886 -34.363  1.00  0.00     0.009 A 
ENDBRANCH  15  16
ENDBRANCH  12  15
ENDBRANCH  10  11
ENDBRANCH   9  10
ENDBRANCH   1   9
BRANCH   3  23
HETATM   23  N   UNL     1      -5.930   4.696 -34.264  1.00  0.00    -0.285 NA
HETATM   24  H   UNL     1      -6.520   4.565 -35.086  1.00  0.00     0.125 HD
HETATM   25  H   UNL     1      -5.700   5.686 -34.200  1.00  0.00     0.125 HD
ENDBRANCH   3  23
BRANCH   4  26
HETATM   26  N   UNL     1      -4.808   4.605 -31.744  1.00  0.00    -0.314 N 
HETATM   27  C   UNL     1      -4.246   5.819 -31.401  1.00  0.00     0.280 C 
HETATM   28  O   UNL     1      -4.869   6.858 -31.217  1.00  0.00    -0.265 OA
HETATM   29  H   UNL     1      -4.207   3.798 -31.602  1.00  0.00     0.169 HD
BRANCH  27  30
HETATM   30  C   UNL     1      -2.814   5.733 -31.181  1.00  0.00     0.144 A 
HETATM   31  O   UNL     1      -2.211   6.607 -30.313  1.00  0.00    -0.298 OA
HETATM   32  C   UNL     1      -0.878   6.339 -30.336  1.00  0.00     0.122 A 
HETATM   33 BR   UNL     1       0.393   7.275 -29.343  1.00  0.00    -0.023 Br
HETATM   34  C   UNL     1      -0.610   5.298 -31.194  1.00  0.00     0.048 A 
HETATM   35  C   UNL     1      -1.857   4.905 -31.739  1.00  0.00     0.046 A 
ENDBRANCH  27  30
ENDBRANCH   4  26
TORSDOF 8
ENDMDL
MODEL 10
REMARK VINA RESULT:      -7.7      3.689      9.008
REMARK  8 active torsions:
REMARK  status: ('A' for Active; 'I' for Inactive)
REMARK    1  A    between atoms: C_5  and  C_6 
REMARK    2  A    between atoms: C_6  and  N_7 
REMARK       I    between atoms: N_7  and  C_8 
REMARK    3  A    between atoms: C_8  and  C_9 
REMARK    4  A    between atoms: C_9  and  S_10 
REMARK    5  A    between atoms: S_10  and  C_11 
REMARK    6  A    between atoms: C_13  and  N_14 
REMARK    7  A    between atoms: C_15  and  N_16 
REMARK       I    between atoms: N_16  and  C_17 
REMARK    8  A    between atoms: C_17  and  C_18 
ROOT
HETATM    1  C   UNL     1      -6.129   3.752 -31.011  1.00  0.00     0.171 C 
HETATM    2  N   UNL     1      -6.353   2.707 -30.295  1.00  0.00    -0.210 NA
HETATM    3  C   UNL     1      -6.211   1.484 -30.898  1.00  0.00     0.136 C 
HETATM    4  C   UNL     1      -5.946   1.341 -32.219  1.00  0.00     0.144 C 
HETATM    5  C   UNL     1      -6.009   2.590 -33.038  1.00  0.00     0.277 C 
HETATM    6  O   UNL     1      -6.344   2.623 -34.216  1.00  0.00    -0.266 OA
HETATM    7  N   UNL     1      -5.829   3.738 -32.330  1.00  0.00    -0.300 N 
HETATM    8  H   UNL     1      -5.868   4.604 -32.846  1.00  0.00     0.171 HD
ENDROOT
BRANCH   1   9
HETATM    9  S   UNL     1      -6.169   5.350 -30.338  1.00  0.00    -0.083 SA
BRANCH   9  10
HETATM   10  C   UNL     1      -5.809   6.327 -31.823  1.00  0.00     0.185 C 
BRANCH  10  11
HETATM   11  C   UNL     1      -4.331   6.557 -32.095  1.00  0.00     0.227 C 
HETATM   12  N   UNL     1      -3.801   7.744 -31.642  1.00  0.00    -0.356 N 
HETATM   13  H   UNL     1      -4.454   8.511 -31.519  1.00  0.00     0.162 HD
HETATM   14  O   UNL     1      -3.639   5.679 -32.610  1.00  0.00    -0.273 OA
BRANCH  12  15
HETATM   15  C   UNL     1      -2.439   8.088 -31.975  1.00  0.00     0.161 C 
BRANCH  15  16
HETATM   16  C   UNL     1      -1.516   7.968 -30.792  1.00  0.00    -0.041 A 
HETATM   17  C   UNL     1      -0.392   7.133 -30.845  1.00  0.00     0.009 A 
HETATM   18  C   UNL     1       0.495   7.064 -29.768  1.00  0.00     0.007 A 
HETATM   19  C   UNL     1       0.275   7.827 -28.617  1.00  0.00    -0.062 A 
HETATM   20  C   UNL     1       1.249   7.799 -27.477  1.00  0.00     0.048 C 
HETATM   21  C   UNL     1      -0.843   8.667 -28.564  1.00  0.00     0.007 A 
HETATM   22  C   UNL     1      -1.732   8.734 -29.639  1.00  0.00     0.009 A 
ENDBRANCH  15  16
ENDBRANCH  12  15
ENDBRANCH  10  11
ENDBRANCH   9  10
ENDBRANCH   1   9
BRANCH   3  23
HETATM   23  N   UNL     1      -6.302   0.367 -30.074  1.00  0.00    -0.285 NA
HETATM   24  H   UNL     1      -5.403  -0.112 -30.129  1.00  0.00     0.125 HD
HETATM   25  H   UNL     1      -6.444   0.656 -29.108  1.00  0.00     0.125 HD
ENDBRANCH   3  23
BRANCH   4  26
HETATM   26  N   UNL     1      -5.645   0.100 -32.742  1.00  0.00    -0.314 N 
HETATM   27  C   UNL     1      -4.392  -0.421 -32.995  1.00  0.00     0.280 C 
HETATM   28  O   UNL     1      -3.333   0.165 -32.805  1.00  0.00    -0.265 OA
HETATM   29  H   UNL     1      -6.394  -0.585 -32.697  1.00  0.00     0.169 HD
BRANCH  27  30
HETATM   30  C   UNL     1      -4.436  -1.804 -33.434  1.00  0.00     0.144 A 
HETATM   31  O   UNL     1      -5.453  -2.218 -34.255  1.00  0.00    -0.298 OA
HETATM   32  C   UNL     1      -5.280  -3.551 -34.466  1.00  0.00     0.122 A 
HETATM   33 BR   UNL     1      -6.422  -4.602 -35.501  1.00  0.00    -0.023 Br
HETATM   34  C   UNL     1      -4.161  -4.002 -33.806  1.00  0.00     0.048 A 
HETATM   35  C   UNL     1      -3.615  -2.877 -33.140  1.00  0.00     0.046 A 
ENDBRANCH  27  30
ENDBRANCH   4  26
TORSDOF 8
ENDMDL
