MODEL 1
REMARK VINA RESULT:      -7.1      0.000      0.000
REMARK  5 active torsions:
REMARK  status: ('A' for Active; 'I' for Inactive)
REMARK    1  A    between atoms: C_7  and  O_8 
REMARK    2  A    between atoms: O_8  and  C_9 
REMARK    3  A    between atoms: C_12  and  N_13 
REMARK    4  A    between atoms: N_13  and  C_16 
REMARK    5  A    between atoms: C_16  and  C_17 
ROOT
HETATM    1  C   UNL     1     -14.835   0.976 -33.737  1.00  0.00     0.028 A 
HETATM    2  C   UNL     1     -15.109   2.051 -32.897  1.00  0.00     0.062 A 
HETATM    3  C   UNL     1     -16.408   2.255 -32.340  1.00  0.00     0.101 C 
HETATM    4  N   UNL     1     -17.455   2.439 -31.877  1.00  0.00    -0.191 NA
HETATM    5  C   UNL     1     -14.075   2.935 -32.609  1.00  0.00     0.142 A 
HETATM    6  N   UNL     1     -12.808   2.822 -33.091  1.00  0.00    -0.236 NA
HETATM    7  C   UNL     1     -12.582   1.768 -33.908  1.00  0.00     0.164 A 
HETATM    8  C   UNL     1     -13.549   0.831 -34.250  1.00  0.00     0.059 A 
ENDROOT
BRANCH   7   9
HETATM    9  O   UNL     1     -11.341   1.557 -34.460  1.00  0.00    -0.329 OA
BRANCH   9  10
HETATM   10  C   UNL     1     -10.178   1.582 -33.635  1.00  0.00     0.130 C 
HETATM   11  C   UNL     1      -8.984   2.304 -34.275  1.00  0.00     0.034 C 
HETATM   12  C   UNL     1      -7.801   2.386 -33.312  1.00  0.00     0.035 C 
HETATM   13  C   UNL     1      -7.415   1.030 -32.715  1.00  0.00     0.186 C 
HETATM   14  C   UNL     1      -8.622   0.333 -32.076  1.00  0.00     0.035 C 
HETATM   15  C   UNL     1      -9.821   0.222 -33.018  1.00  0.00     0.034 C 
BRANCH  13  16
HETATM   16  N   UNL     1      -6.841   0.142 -33.765  1.00  0.00    -0.066 N 
HETATM   17  H   UNL     1      -7.511  -0.611 -34.011  1.00  0.00     0.278 HD
HETATM   18  H   UNL     1      -6.697   0.621 -34.665  1.00  0.00     0.278 HD
BRANCH  16  19
HETATM   19  C   UNL     1      -5.587  -0.603 -33.407  1.00  0.00     0.292 C 
BRANCH  19  20
HETATM   20  C   UNL     1      -5.661  -1.991 -33.955  1.00  0.00     0.067 A 
HETATM   21  N   UNL     1      -4.472  -2.721 -34.004  1.00  0.00    -0.256 NA
HETATM   22  C   UNL     1      -4.712  -3.907 -34.529  1.00  0.00     0.166 A 
HETATM   23  S   UNL     1      -6.334  -4.212 -34.993  1.00  0.00    -0.092 SA
HETATM   24  C   UNL     1      -6.771  -2.642 -34.456  1.00  0.00     0.080 A 
ENDBRANCH  19  20
ENDBRANCH  16  19
ENDBRANCH  13  16
ENDBRANCH   9  10
ENDBRANCH   7   9
TORSDOF 5
ENDMDL
MODEL 2
REMARK VINA RESULT:      -7.0      6.829      8.770
REMARK  5 active torsions:
REMARK  status: ('A' for Active; 'I' for Inactive)
REMARK    1  A    between atoms: C_7  and  O_8 
REMARK    2  A    between atoms: O_8  and  C_9 
REMARK    3  A    between atoms: C_12  and  N_13 
REMARK    4  A    between atoms: N_13  and  C_16 
REMARK    5  A    between atoms: C_16  and  C_17 
ROOT
HETATM    1  C   UNL     1      -6.386  -1.589 -34.457  1.00  0.00     0.028 A 
HETATM    2  C   UNL     1      -5.669  -2.781 -34.491  1.00  0.00     0.062 A 
HETATM    3  C   UNL     1      -6.216  -3.968 -35.066  1.00  0.00     0.101 C 
HETATM    4  N   UNL     1      -6.639  -4.944 -35.527  1.00  0.00    -0.191 NA
HETATM    5  C   UNL     1      -4.390  -2.789 -33.945  1.00  0.00     0.142 A 
HETATM    6  N   UNL     1      -3.787  -1.710 -33.378  1.00  0.00    -0.236 NA
HETATM    7  C   UNL     1      -4.518  -0.571 -33.358  1.00  0.00     0.164 A 
HETATM    8  C   UNL     1      -5.800  -0.465 -33.881  1.00  0.00     0.059 A 
ENDROOT
BRANCH   7   9
HETATM    9  O   UNL     1      -4.013   0.580 -32.804  1.00  0.00    -0.329 OA
BRANCH   9  10
HETATM   10  C   UNL     1      -4.892   1.533 -32.210  1.00  0.00     0.130 C 
HETATM   11  C   UNL     1      -4.819   2.925 -32.852  1.00  0.00     0.034 C 
HETATM   12  C   UNL     1      -5.849   3.875 -32.243  1.00  0.00     0.035 C 
HETATM   13  C   UNL     1      -5.787   3.930 -30.714  1.00  0.00     0.186 C 
HETATM   14  C   UNL     1      -5.869   2.528 -30.097  1.00  0.00     0.035 C 
HETATM   15  C   UNL     1      -4.843   1.555 -30.675  1.00  0.00     0.034 C 
BRANCH  13  16
HETATM   16  N   UNL     1      -4.524   4.584 -30.266  1.00  0.00    -0.066 N 
HETATM   17  H   UNL     1      -4.460   4.581 -29.231  1.00  0.00     0.278 HD
HETATM   18  H   UNL     1      -3.680   4.068 -30.549  1.00  0.00     0.278 HD
BRANCH  16  19
HETATM   19  C   UNL     1      -4.351   6.031 -30.628  1.00  0.00     0.292 C 
BRANCH  19  20
HETATM   20  C   UNL     1      -3.125   6.189 -31.468  1.00  0.00     0.067 A 
HETATM   21  N   UNL     1      -2.225   5.122 -31.490  1.00  0.00    -0.256 NA
HETATM   22  C   UNL     1      -1.199   5.435 -32.258  1.00  0.00     0.166 A 
HETATM   23  S   UNL     1      -1.243   6.991 -32.978  1.00  0.00    -0.092 SA
HETATM   24  C   UNL     1      -2.751   7.289 -32.214  1.00  0.00     0.080 A 
ENDBRANCH  19  20
ENDBRANCH  16  19
ENDBRANCH  13  16
ENDBRANCH   9  10
ENDBRANCH   7   9
TORSDOF 5
ENDMDL
MODEL 3
REMARK VINA RESULT:      -6.9      4.134      8.201
REMARK  5 active torsions:
REMARK  status: ('A' for Active; 'I' for Inactive)
REMARK    1  A    between atoms: C_7  and  O_8 
REMARK    2  A    between atoms: O_8  and  C_9 
REMARK    3  A    between atoms: C_12  and  N_13 
REMARK    4  A    between atoms: N_13  and  C_16 
REMARK    5  A    between atoms: C_16  and  C_17 
ROOT
HETATM    1  C   UNL     1      -5.556  -1.720 -34.389  1.00  0.00     0.028 A 
HETATM    2  C   UNL     1      -5.169  -3.051 -34.269  1.00  0.00     0.062 A 
HETATM    3  C   UNL     1      -5.847  -4.095 -34.969  1.00  0.00     0.101 C 
HETATM    4  N   UNL     1      -6.383  -4.958 -35.527  1.00  0.00    -0.191 NA
HETATM    5  C   UNL     1      -4.091  -3.346 -33.440  1.00  0.00     0.142 A 
HETATM    6  N   UNL     1      -3.385  -2.421 -32.736  1.00  0.00    -0.236 NA
HETATM    7  C   UNL     1      -3.794  -1.139 -32.874  1.00  0.00     0.164 A 
HETATM    8  C   UNL     1      -4.856  -0.747 -33.680  1.00  0.00     0.059 A 
ENDROOT
BRANCH   7   9
HETATM    9  O   UNL     1      -3.160  -0.120 -32.205  1.00  0.00    -0.329 OA
BRANCH   9  10
HETATM   10  C   UNL     1      -3.883   0.687 -31.278  1.00  0.00     0.130 C 
HETATM   11  C   UNL     1      -5.212   0.066 -30.827  1.00  0.00     0.034 C 
HETATM   12  C   UNL     1      -5.895   0.924 -29.763  1.00  0.00     0.035 C 
HETATM   13  C   UNL     1      -6.043   2.391 -30.175  1.00  0.00     0.186 C 
HETATM   14  C   UNL     1      -4.701   2.989 -30.615  1.00  0.00     0.035 C 
HETATM   15  C   UNL     1      -3.996   2.162 -31.689  1.00  0.00     0.034 C 
BRANCH  13  16
HETATM   16  N   UNL     1      -7.022   2.523 -31.292  1.00  0.00    -0.066 N 
HETATM   17  H   UNL     1      -6.824   3.374 -31.851  1.00  0.00     0.278 HD
HETATM   18  H   UNL     1      -6.944   1.769 -31.989  1.00  0.00     0.278 HD
BRANCH  16  19
HETATM   19  C   UNL     1      -8.465   2.679 -30.907  1.00  0.00     0.292 C 
BRANCH  19  20
HETATM   20  C   UNL     1      -9.318   1.897 -31.853  1.00  0.00     0.067 A 
HETATM   21  N   UNL     1      -9.119   0.516 -31.898  1.00  0.00    -0.256 NA
HETATM   22  C   UNL     1      -9.933  -0.011 -32.793  1.00  0.00     0.166 A 
HETATM   23  S   UNL     1     -10.956   1.088 -33.621  1.00  0.00    -0.092 SA
HETATM   24  C   UNL     1     -10.272   2.382 -32.725  1.00  0.00     0.080 A 
ENDBRANCH  19  20
ENDBRANCH  16  19
ENDBRANCH  13  16
ENDBRANCH   9  10
ENDBRANCH   7   9
TORSDOF 5
ENDMDL
MODEL 4
REMARK VINA RESULT:      -6.7      4.543      7.678
REMARK  5 active torsions:
REMARK  status: ('A' for Active; 'I' for Inactive)
REMARK    1  A    between atoms: C_7  and  O_8 
REMARK    2  A    between atoms: O_8  and  C_9 
REMARK    3  A    between atoms: C_12  and  N_13 
REMARK    4  A    between atoms: N_13  and  C_16 
REMARK    5  A    between atoms: C_16  and  C_17 
ROOT
HETATM    1  C   UNL     1      -4.534  -1.531 -33.751  1.00  0.00     0.028 A 
HETATM    2  C   UNL     1      -4.835  -2.837 -34.127  1.00  0.00     0.062 A 
HETATM    3  C   UNL     1      -3.966  -3.926 -33.815  1.00  0.00     0.101 C 
HETATM    4  N   UNL     1      -3.275  -4.824 -33.572  1.00  0.00    -0.191 NA
HETATM    5  C   UNL     1      -6.018  -3.059 -34.824  1.00  0.00     0.142 A 
HETATM    6  N   UNL     1      -6.906  -2.087 -35.165  1.00  0.00    -0.236 NA
HETATM    7  C   UNL     1      -6.576  -0.831 -34.787  1.00  0.00     0.164 A 
HETATM    8  C   UNL     1      -5.420  -0.511 -34.086  1.00  0.00     0.059 A 
ENDROOT
BRANCH   7   9
HETATM    9  O   UNL     1      -7.395   0.232 -35.083  1.00  0.00    -0.329 OA
BRANCH   9  10
HETATM   10  C   UNL     1      -8.112   0.895 -34.043  1.00  0.00     0.130 C 
HETATM   11  C   UNL     1      -7.475   2.221 -33.604  1.00  0.00     0.034 C 
HETATM   12  C   UNL     1      -8.335   2.933 -32.561  1.00  0.00     0.035 C 
HETATM   13  C   UNL     1      -8.708   2.038 -31.375  1.00  0.00     0.186 C 
HETATM   14  C   UNL     1      -9.347   0.725 -31.840  1.00  0.00     0.035 C 
HETATM   15  C   UNL     1      -8.506  -0.021 -32.875  1.00  0.00     0.034 C 
BRANCH  13  16
HETATM   16  N   UNL     1      -7.500   1.727 -30.557  1.00  0.00    -0.066 N 
HETATM   17  H   UNL     1      -7.766   1.211 -29.698  1.00  0.00     0.278 HD
HETATM   18  H   UNL     1      -6.853   1.077 -31.023  1.00  0.00     0.278 HD
BRANCH  16  19
HETATM   19  C   UNL     1      -6.718   2.899 -30.038  1.00  0.00     0.292 C 
BRANCH  19  20
HETATM   20  C   UNL     1      -5.355   2.897 -30.650  1.00  0.00     0.067 A 
HETATM   21  N   UNL     1      -4.739   1.657 -30.828  1.00  0.00    -0.256 NA
HETATM   22  C   UNL     1      -3.544   1.838 -31.357  1.00  0.00     0.166 A 
HETATM   23  S   UNL     1      -3.091   3.464 -31.657  1.00  0.00    -0.092 SA
HETATM   24  C   UNL     1      -4.603   3.988 -31.038  1.00  0.00     0.080 A 
ENDBRANCH  19  20
ENDBRANCH  16  19
ENDBRANCH  13  16
ENDBRANCH   9  10
ENDBRANCH   7   9
TORSDOF 5
ENDMDL
MODEL 5
REMARK VINA RESULT:      -6.7      9.672     13.080
REMARK  5 active torsions:
REMARK  status: ('A' for Active; 'I' for Inactive)
REMARK    1  A    between atoms: C_7  and  O_8 
REMARK    2  A    between atoms: O_8  and  C_9 
REMARK    3  A    between atoms: C_12  and  N_13 
REMARK    4  A    between atoms: N_13  and  C_16 
REMARK    5  A    between atoms: C_16  and  C_17 
ROOT
HETATM    1  C   UNL     1       1.615   8.561 -27.877  1.00  0.00     0.028 A 
HETATM    2  C   UNL     1       1.544   8.226 -26.528  1.00  0.00     0.062 A 
HETATM    3  C   UNL     1       2.298   8.930 -25.541  1.00  0.00     0.101 C 
HETATM    4  N   UNL     1       2.901   9.488 -24.722  1.00  0.00    -0.191 NA
HETATM    5  C   UNL     1       0.711   7.176 -26.159  1.00  0.00     0.142 A 
HETATM    6  N   UNL     1      -0.044   6.450 -27.027  1.00  0.00    -0.236 NA
HETATM    7  C   UNL     1       0.055   6.801 -28.329  1.00  0.00     0.164 A 
HETATM    8  C   UNL     1       0.857   7.837 -28.793  1.00  0.00     0.059 A 
ENDROOT
BRANCH   7   9
HETATM    9  O   UNL     1      -0.656   6.133 -29.296  1.00  0.00    -0.329 OA
BRANCH   9  10
HETATM   10  C   UNL     1      -0.804   6.701 -30.596  1.00  0.00     0.130 C 
HETATM   11  C   UNL     1      -1.937   7.732 -30.693  1.00  0.00     0.034 C 
HETATM   12  C   UNL     1      -1.986   8.377 -32.077  1.00  0.00     0.035 C 
HETATM   13  C   UNL     1      -2.022   7.355 -33.218  1.00  0.00     0.186 C 
HETATM   14  C   UNL     1      -0.877   6.342 -33.101  1.00  0.00     0.035 C 
HETATM   15  C   UNL     1      -0.807   5.668 -31.732  1.00  0.00     0.034 C 
BRANCH  13  16
HETATM   16  N   UNL     1      -3.320   6.622 -33.220  1.00  0.00    -0.066 N 
HETATM   17  H   UNL     1      -3.469   6.141 -32.313  1.00  0.00     0.278 HD
HETATM   18  H   UNL     1      -4.137   7.246 -33.284  1.00  0.00     0.278 HD
BRANCH  16  19
HETATM   19  C   UNL     1      -3.471   5.523 -34.232  1.00  0.00     0.292 C 
BRANCH  19  20
HETATM   20  C   UNL     1      -4.571   4.605 -33.808  1.00  0.00     0.067 A 
HETATM   21  N   UNL     1      -5.848   4.866 -34.307  1.00  0.00    -0.256 NA
HETATM   22  C   UNL     1      -6.695   3.980 -33.820  1.00  0.00     0.166 A 
HETATM   23  S   UNL     1      -6.033   2.812 -32.753  1.00  0.00    -0.092 SA
HETATM   24  C   UNL     1      -4.486   3.531 -32.944  1.00  0.00     0.080 A 
ENDBRANCH  19  20
ENDBRANCH  16  19
ENDBRANCH  13  16
ENDBRANCH   9  10
ENDBRANCH   7   9
TORSDOF 5
ENDMDL
MODEL 6
REMARK VINA RESULT:      -6.6      7.502     11.200
REMARK  5 active torsions:
REMARK  status: ('A' for Active; 'I' for Inactive)
REMARK    1  A    between atoms: C_7  and  O_8 
REMARK    2  A    between atoms: O_8  and  C_9 
REMARK    3  A    between atoms: C_12  and  N_13 
REMARK    4  A    between atoms: N_13  and  C_16 
REMARK    5  A    between atoms: C_16  and  C_17 
ROOT
HETATM    1  C   UNL     1       0.111   7.359 -29.744  1.00  0.00     0.028 A 
HETATM    2  C   UNL     1       0.667   6.569 -28.742  1.00  0.00     0.062 A 
HETATM    3  C   UNL     1       1.134   7.132 -27.516  1.00  0.00     0.101 C 
HETATM    4  N   UNL     1       1.520   7.567 -26.514  1.00  0.00    -0.191 NA
HETATM    5  C   UNL     1       0.759   5.199 -28.967  1.00  0.00     0.142 A 
HETATM    6  N   UNL     1       0.341   4.575 -30.100  1.00  0.00    -0.236 NA
HETATM    7  C   UNL     1      -0.189   5.376 -31.053  1.00  0.00     0.164 A 
HETATM    8  C   UNL     1      -0.325   6.752 -30.918  1.00  0.00     0.059 A 
ENDROOT
BRANCH   7   9
HETATM    9  O   UNL     1      -0.639   4.856 -32.242  1.00  0.00    -0.329 OA
BRANCH   9  10
HETATM   10  C   UNL     1      -1.871   5.308 -32.800  1.00  0.00     0.130 C 
HETATM   11  C   UNL     1      -3.091   5.023 -31.914  1.00  0.00     0.034 C 
HETATM   12  C   UNL     1      -4.366   5.614 -32.513  1.00  0.00     0.035 C 
HETATM   13  C   UNL     1      -4.591   5.205 -33.972  1.00  0.00     0.186 C 
HETATM   14  C   UNL     1      -3.362   5.506 -34.837  1.00  0.00     0.035 C 
HETATM   15  C   UNL     1      -2.070   4.918 -34.272  1.00  0.00     0.034 C 
BRANCH  13  16
HETATM   16  N   UNL     1      -4.904   3.750 -34.063  1.00  0.00    -0.066 N 
HETATM   17  H   UNL     1      -5.218   3.504 -35.020  1.00  0.00     0.278 HD
HETATM   18  H   UNL     1      -4.078   3.150 -33.932  1.00  0.00     0.278 HD
BRANCH  16  19
HETATM   19  C   UNL     1      -6.013   3.243 -33.186  1.00  0.00     0.292 C 
BRANCH  19  20
HETATM   20  C   UNL     1      -5.661   1.883 -32.677  1.00  0.00     0.067 A 
HETATM   21  N   UNL     1      -6.598   0.867 -32.869  1.00  0.00    -0.256 NA
HETATM   22  C   UNL     1      -6.139  -0.253 -32.345  1.00  0.00     0.166 A 
HETATM   23  S   UNL     1      -4.598  -0.160 -31.599  1.00  0.00    -0.092 SA
HETATM   24  C   UNL     1      -4.517   1.507 -31.999  1.00  0.00     0.080 A 
ENDBRANCH  19  20
ENDBRANCH  16  19
ENDBRANCH  13  16
ENDBRANCH   9  10
ENDBRANCH   7   9
TORSDOF 5
ENDMDL
MODEL 7
REMARK VINA RESULT:      -6.6      9.353     12.356
REMARK  5 active torsions:
REMARK  status: ('A' for Active; 'I' for Inactive)
REMARK    1  A    between atoms: C_7  and  O_8 
REMARK    2  A    between atoms: O_8  and  C_9 
REMARK    3  A    between atoms: C_12  and  N_13 
REMARK    4  A    between atoms: N_13  and  C_16 
REMARK    5  A    between atoms: C_16  and  C_17 
ROOT
HETATM    1  C   UNL     1      -1.717   4.901 -32.912  1.00  0.00     0.028 A 
HETATM    2  C   UNL     1      -2.298   5.872 -33.722  1.00  0.00     0.062 A 
HETATM    3  C   UNL     1      -3.321   5.547 -34.663  1.00  0.00     0.101 C 
HETATM    4  N   UNL     1      -4.154   5.307 -35.433  1.00  0.00    -0.191 NA
HETATM    5  C   UNL     1      -1.853   7.183 -33.592  1.00  0.00     0.142 A 
HETATM    6  N   UNL     1      -0.885   7.586 -32.725  1.00  0.00    -0.236 NA
HETATM    7  C   UNL     1      -0.341   6.614 -31.958  1.00  0.00     0.164 A 
HETATM    8  C   UNL     1      -0.721   5.279 -32.014  1.00  0.00     0.059 A 
ENDROOT
BRANCH   7   9
HETATM    9  O   UNL     1       0.650   6.903 -31.051  1.00  0.00    -0.329 OA
BRANCH   9  10
HETATM   10  C   UNL     1       0.312   7.269 -29.715  1.00  0.00     0.130 C 
HETATM   11  C   UNL     1       0.337   6.094 -28.729  1.00  0.00     0.034 C 
HETATM   12  C   UNL     1       0.064   6.560 -27.299  1.00  0.00     0.035 C 
HETATM   13  C   UNL     1      -1.206   7.406 -27.173  1.00  0.00     0.186 C 
HETATM   14  C   UNL     1      -1.203   8.577 -28.164  1.00  0.00     0.035 C 
HETATM   15  C   UNL     1      -0.946   8.143 -29.607  1.00  0.00     0.034 C 
BRANCH  13  16
HETATM   16  N   UNL     1      -2.416   6.570 -27.415  1.00  0.00    -0.066 N 
HETATM   17  H   UNL     1      -2.785   6.731 -28.371  1.00  0.00     0.278 HD
HETATM   18  H   UNL     1      -2.216   5.560 -27.415  1.00  0.00     0.278 HD
BRANCH  16  19
HETATM   19  C   UNL     1      -3.601   6.828 -26.530  1.00  0.00     0.292 C 
BRANCH  19  20
HETATM   20  C   UNL     1      -4.842   6.869 -27.361  1.00  0.00     0.067 A 
HETATM   21  N   UNL     1      -5.711   5.781 -27.265  1.00  0.00    -0.256 NA
HETATM   22  C   UNL     1      -6.736   5.971 -28.074  1.00  0.00     0.166 A 
HETATM   23  S   UNL     1      -6.719   7.423 -28.984  1.00  0.00    -0.092 SA
HETATM   24  C   UNL     1      -5.228   7.852 -28.252  1.00  0.00     0.080 A 
ENDBRANCH  19  20
ENDBRANCH  16  19
ENDBRANCH  13  16
ENDBRANCH   9  10
ENDBRANCH   7   9
TORSDOF 5
ENDMDL
MODEL 8
REMARK VINA RESULT:      -6.4      4.680      8.519
REMARK  5 active torsions:
REMARK  status: ('A' for Active; 'I' for Inactive)
REMARK    1  A    between atoms: C_7  and  O_8 
REMARK    2  A    between atoms: O_8  and  C_9 
REMARK    3  A    between atoms: C_12  and  N_13 
REMARK    4  A    between atoms: N_13  and  C_16 
REMARK    5  A    between atoms: C_16  and  C_17 
ROOT
HETATM    1  C   UNL     1      -4.647  -2.154 -33.854  1.00  0.00     0.028 A 
HETATM    2  C   UNL     1      -5.671  -2.825 -34.515  1.00  0.00     0.062 A 
HETATM    3  C   UNL     1      -5.589  -4.221 -34.803  1.00  0.00     0.101 C 
HETATM    4  N   UNL     1      -5.543  -5.354 -35.046  1.00  0.00    -0.191 NA
HETATM    5  C   UNL     1      -6.792  -2.094 -34.895  1.00  0.00     0.142 A 
HETATM    6  N   UNL     1      -6.959  -0.765 -34.664  1.00  0.00    -0.236 NA
HETATM    7  C   UNL     1      -5.941  -0.146 -34.024  1.00  0.00     0.164 A 
HETATM    8  C   UNL     1      -4.784  -0.792 -33.603  1.00  0.00     0.059 A 
ENDROOT
BRANCH   7   9
HETATM    9  O   UNL     1      -5.996   1.198 -33.743  1.00  0.00    -0.329 OA
BRANCH   9  10
HETATM   10  C   UNL     1      -5.563   1.682 -32.474  1.00  0.00     0.130 C 
HETATM   11  C   UNL     1      -6.638   1.596 -31.381  1.00  0.00     0.034 C 
HETATM   12  C   UNL     1      -6.090   2.035 -30.024  1.00  0.00     0.035 C 
HETATM   13  C   UNL     1      -5.404   3.403 -30.066  1.00  0.00     0.186 C 
HETATM   14  C   UNL     1      -4.330   3.461 -31.160  1.00  0.00     0.035 C 
HETATM   15  C   UNL     1      -4.849   3.040 -32.534  1.00  0.00     0.034 C 
BRANCH  13  16
HETATM   16  N   UNL     1      -6.404   4.481 -30.310  1.00  0.00    -0.066 N 
HETATM   17  H   UNL     1      -5.943   5.410 -30.317  1.00  0.00     0.278 HD
HETATM   18  H   UNL     1      -6.832   4.432 -31.245  1.00  0.00     0.278 HD
BRANCH  16  19
HETATM   19  C   UNL     1      -7.493   4.634 -29.288  1.00  0.00     0.292 C 
BRANCH  19  20
HETATM   20  C   UNL     1      -8.806   4.798 -29.982  1.00  0.00     0.067 A 
HETATM   21  N   UNL     1      -9.514   3.635 -30.292  1.00  0.00    -0.256 NA
HETATM   22  C   UNL     1     -10.630   3.960 -30.916  1.00  0.00     0.166 A 
HETATM   23  S   UNL     1     -10.892   5.635 -31.172  1.00  0.00    -0.092 SA
HETATM   24  C   UNL     1      -9.402   5.975 -30.391  1.00  0.00     0.080 A 
ENDBRANCH  19  20
ENDBRANCH  16  19
ENDBRANCH  13  16
ENDBRANCH   9  10
ENDBRANCH   7   9
TORSDOF 5
ENDMDL
MODEL 9
REMARK VINA RESULT:      -6.4      3.439      8.977
REMARK  5 active torsions:
REMARK  status: ('A' for Active; 'I' for Inactive)
REMARK    1  A    between atoms: C_7  and  O_8 
REMARK    2  A    between atoms: O_8  and  C_9 
REMARK    3  A    between atoms: C_12  and  N_13 
REMARK    4  A    between atoms: N_13  and  C_16 
REMARK    5  A    between atoms: C_16  and  C_17 
ROOT
HETATM    1  C   UNL     1      -6.375  -0.717 -32.842  1.00  0.00     0.028 A 
HETATM    2  C   UNL     1      -6.068  -1.322 -34.057  1.00  0.00     0.062 A 
HETATM    3  C   UNL     1      -5.032  -2.299 -34.166  1.00  0.00     0.101 C 
HETATM    4  N   UNL     1      -4.197  -3.095 -34.278  1.00  0.00    -0.191 NA
HETATM    5  C   UNL     1      -6.802  -0.948 -35.177  1.00  0.00     0.142 A 
HETATM    6  N   UNL     1      -7.804  -0.029 -35.170  1.00  0.00    -0.236 NA
HETATM    7  C   UNL     1      -8.071   0.541 -33.972  1.00  0.00     0.164 A 
HETATM    8  C   UNL     1      -7.394   0.230 -32.799  1.00  0.00     0.059 A 
ENDROOT
BRANCH   7   9
HETATM    9  O   UNL     1      -9.058   1.488 -33.846  1.00  0.00    -0.329 OA
BRANCH   9  10
HETATM   10  C   UNL     1     -10.410   1.159 -34.159  1.00  0.00     0.130 C 
HETATM   11  C   UNL     1     -11.270   2.375 -34.528  1.00  0.00     0.034 C 
HETATM   12  C   UNL     1     -12.678   1.955 -34.949  1.00  0.00     0.035 C 
HETATM   13  C   UNL     1     -13.362   1.037 -33.932  1.00  0.00     0.186 C 
HETATM   14  C   UNL     1     -12.485  -0.172 -33.586  1.00  0.00     0.035 C 
HETATM   15  C   UNL     1     -11.073   0.214 -33.147  1.00  0.00     0.034 C 
BRANCH  13  16
HETATM   16  N   UNL     1     -13.672   1.786 -32.680  1.00  0.00    -0.066 N 
HETATM   17  H   UNL     1     -13.395   1.233 -31.847  1.00  0.00     0.278 HD
HETATM   18  H   UNL     1     -13.117   2.647 -32.577  1.00  0.00     0.278 HD
BRANCH  16  19
HETATM   19  C   UNL     1     -15.117   2.108 -32.428  1.00  0.00     0.292 C 
BRANCH  19  20
HETATM   20  C   UNL     1     -15.273   3.584 -32.253  1.00  0.00     0.067 A 
HETATM   21  N   UNL     1     -14.165   4.381 -32.545  1.00  0.00    -0.256 NA
HETATM   22  C   UNL     1     -14.468   5.645 -32.319  1.00  0.00     0.166 A 
HETATM   23  S   UNL     1     -16.056   5.949 -31.746  1.00  0.00    -0.092 SA
HETATM   24  C   UNL     1     -16.385   4.266 -31.800  1.00  0.00     0.080 A 
ENDBRANCH  19  20
ENDBRANCH  16  19
ENDBRANCH  13  16
ENDBRANCH   9  10
ENDBRANCH   7   9
TORSDOF 5
ENDMDL
MODEL 10
REMARK VINA RESULT:      -6.3      3.824      4.914
REMARK  5 active torsions:
REMARK  status: ('A' for Active; 'I' for Inactive)
REMARK    1  A    between atoms: C_7  and  O_8 
REMARK    2  A    between atoms: O_8  and  C_9 
REMARK    3  A    between atoms: C_12  and  N_13 
REMARK    4  A    between atoms: N_13  and  C_16 
REMARK    5  A    between atoms: C_16  and  C_17 
ROOT
HETATM    1  C   UNL     1     -11.953   0.526 -33.665  1.00  0.00     0.028 A 
HETATM    2  C   UNL     1     -12.875   1.285 -34.380  1.00  0.00     0.062 A 
HETATM    3  C   UNL     1     -14.254   0.920 -34.447  1.00  0.00     0.101 C 
HETATM    4  N   UNL     1     -15.377   0.642 -34.515  1.00  0.00    -0.191 NA
HETATM    5  C   UNL     1     -12.416   2.422 -35.036  1.00  0.00     0.142 A 
HETATM    6  N   UNL     1     -11.124   2.847 -35.028  1.00  0.00    -0.236 NA
HETATM    7  C   UNL     1     -10.257   2.081 -34.328  1.00  0.00     0.164 A 
HETATM    8  C   UNL     1     -10.621   0.932 -33.638  1.00  0.00     0.059 A 
ENDROOT
BRANCH   7   9
HETATM    9  O   UNL     1      -8.925   2.410 -34.255  1.00  0.00    -0.329 OA
BRANCH   9  10
HETATM   10  C   UNL     1      -8.206   2.221 -33.038  1.00  0.00     0.130 C 
HETATM   11  C   UNL     1      -8.311   3.407 -32.069  1.00  0.00     0.034 C 
HETATM   12  C   UNL     1      -7.607   3.111 -30.747  1.00  0.00     0.035 C 
HETATM   13  C   UNL     1      -6.165   2.626 -30.927  1.00  0.00     0.186 C 
HETATM   14  C   UNL     1      -6.089   1.437 -31.893  1.00  0.00     0.035 C 
HETATM   15  C   UNL     1      -6.773   1.706 -33.233  1.00  0.00     0.034 C 
BRANCH  13  16
HETATM   16  N   UNL     1      -5.305   3.729 -31.445  1.00  0.00    -0.066 N 
HETATM   17  H   UNL     1      -5.660   4.069 -32.358  1.00  0.00     0.278 HD
HETATM   18  H   UNL     1      -5.336   4.575 -30.859  1.00  0.00     0.278 HD
BRANCH  16  19
HETATM   19  C   UNL     1      -3.870   3.388 -31.727  1.00  0.00     0.292 C 
BRANCH  19  20
HETATM   20  C   UNL     1      -3.401   4.163 -32.915  1.00  0.00     0.067 A 
HETATM   21  N   UNL     1      -4.366   4.550 -33.846  1.00  0.00    -0.256 NA
HETATM   22  C   UNL     1      -3.780   5.202 -34.833  1.00  0.00     0.166 A 
HETATM   23  S   UNL     1      -2.079   5.379 -34.715  1.00  0.00    -0.092 SA
HETATM   24  C   UNL     1      -2.105   4.523 -33.228  1.00  0.00     0.080 A 
ENDBRANCH  19  20
ENDBRANCH  16  19
ENDBRANCH  13  16
ENDBRANCH   9  10
ENDBRANCH   7   9
TORSDOF 5
ENDMDL
