MODEL 1
REMARK VINA RESULT:      -7.5      0.000      0.000
REMARK  8 active torsions:
REMARK  status: ('A' for Active; 'I' for Inactive)
REMARK    1  A    between atoms: N_4  and  C_5 
REMARK    2  A    between atoms: C_5  and  C_6 
REMARK    3  A    between atoms: C_6  and  C_7 
REMARK       I    between atoms: C_7  and  N_8 
REMARK    4  A    between atoms: N_8  and  N_9 
REMARK    5  A    between atoms: N_9  and  C_10 
REMARK    6  A    between atoms: C_10  and  N_11 
REMARK    7  A    between atoms: N_11  and  C_12 
REMARK    8  A    between atoms: C_13  and  O_14 
ROOT
HETATM    1  C   UNL     1      -6.040   1.972 -31.396  1.00  0.00     0.237 C 
HETATM    2  N   UNL     1      -5.670   0.894 -32.174  1.00  0.00    -0.268 N 
HETATM    3  O   UNL     1      -7.206   2.201 -31.085  1.00  0.00    -0.272 OA
HETATM    4  H   UNL     1      -4.702   0.581 -32.245  1.00  0.00     0.190 HD
ENDROOT
BRANCH   2   5
HETATM    5  N   UNL     1      -6.658  -0.062 -32.474  1.00  0.00    -0.274 N 
HETATM    6  H   UNL     1      -6.585  -0.911 -31.912  1.00  0.00     0.189 HD
BRANCH   5   7
HETATM    7  C   UNL     1      -7.168  -0.171 -33.772  1.00  0.00     0.191 C 
HETATM    8  S   UNL     1      -8.650   0.483 -34.205  1.00  0.00    -0.039 SA
BRANCH   7   9
HETATM    9  N   UNL     1      -6.309  -0.930 -34.547  1.00  0.00    -0.330 N 
HETATM   10  H   UNL     1      -5.734  -0.394 -35.191  1.00  0.00     0.168 HD
BRANCH   9  11
HETATM   11  C   UNL     1      -5.922  -2.293 -34.515  1.00  0.00     0.068 A 
HETATM   12  C   UNL     1      -4.645  -2.566 -33.970  1.00  0.00     0.095 A 
HETATM   13  C   UNL     1      -4.171  -3.881 -33.923  1.00  0.00     0.039 A 
HETATM   14  C   UNL     1      -4.953  -4.923 -34.421  1.00  0.00     0.003 A 
HETATM   15  C   UNL     1      -6.200  -4.655 -34.977  1.00  0.00     0.002 A 
HETATM   16  C   UNL     1      -6.680  -3.344 -35.031  1.00  0.00     0.032 A 
BRANCH  12  17
HETATM   17  O   UNL     1      -3.950  -1.464 -33.520  1.00  0.00    -0.354 OA
HETATM   18  C   UNL     1      -3.252  -1.601 -32.287  1.00  0.00     0.210 C 
ENDBRANCH  12  17
ENDBRANCH   9  11
ENDBRANCH   7   9
ENDBRANCH   5   7
ENDBRANCH   2   5
BRANCH   1  19
HETATM   19  C   UNL     1      -4.871   2.810 -30.946  1.00  0.00     0.126 C 
BRANCH  19  20
HETATM   20  C   UNL     1      -3.645   2.515 -31.799  1.00  0.00     0.160 C 
BRANCH  20  21
HETATM   21  N   UNL     1      -2.869   3.718 -32.052  1.00  0.00    -0.272 N 
HETATM   22  N   UNL     1      -1.752   3.919 -31.324  1.00  0.00    -0.176 NA
HETATM   23  C   UNL     1      -1.265   5.081 -31.777  1.00  0.00     0.070 A 
HETATM   24  C   UNL     1      -0.014   5.636 -31.208  1.00  0.00     0.074 C 
HETATM   25  C   UNL     1      -2.085   5.607 -32.793  1.00  0.00     0.060 A 
HETATM   26  C   UNL     1      -3.125   4.720 -32.956  1.00  0.00     0.046 A 
HETATM   27 BR   UNL     1      -1.775   7.207 -33.716  1.00  0.00    -0.047 Br
HETATM   28  C   UNL     1      -4.294   4.730 -33.868  1.00  0.00     0.071 C 
ENDBRANCH  20  21
ENDBRANCH  19  20
ENDBRANCH   1  19
TORSDOF 8
ENDMDL
MODEL 2
REMARK VINA RESULT:      -7.3      3.598      7.677
REMARK  8 active torsions:
REMARK  status: ('A' for Active; 'I' for Inactive)
REMARK    1  A    between atoms: N_4  and  C_5 
REMARK    2  A    between atoms: C_5  and  C_6 
REMARK    3  A    between atoms: C_6  and  C_7 
REMARK       I    between atoms: C_7  and  N_8 
REMARK    4  A    between atoms: N_8  and  N_9 
REMARK    5  A    between atoms: N_9  and  C_10 
REMARK    6  A    between atoms: C_10  and  N_11 
REMARK    7  A    between atoms: N_11  and  C_12 
REMARK    8  A    between atoms: C_13  and  O_14 
ROOT
HETATM    1  C   UNL     1      -4.289   1.426 -31.250  1.00  0.00     0.237 C 
HETATM    2  N   UNL     1      -5.244   2.292 -30.755  1.00  0.00    -0.268 N 
HETATM    3  O   UNL     1      -3.084   1.662 -31.196  1.00  0.00    -0.272 OA
HETATM    4  H   UNL     1      -6.209   2.004 -30.599  1.00  0.00     0.190 HD
ENDROOT
BRANCH   2   5
HETATM    5  N   UNL     1      -4.797   3.401 -30.014  1.00  0.00    -0.274 N 
HETATM    6  H   UNL     1      -4.767   3.232 -29.008  1.00  0.00     0.189 HD
BRANCH   5   7
HETATM    7  C   UNL     1      -5.057   4.702 -30.457  1.00  0.00     0.191 C 
HETATM    8  S   UNL     1      -6.574   5.403 -30.318  1.00  0.00    -0.039 SA
BRANCH   7   9
HETATM    9  N   UNL     1      -3.923   5.226 -31.052  1.00  0.00    -0.330 N 
HETATM   10  H   UNL     1      -3.241   5.606 -30.402  1.00  0.00     0.168 HD
BRANCH   9  11
HETATM   11  C   UNL     1      -3.417   5.190 -32.375  1.00  0.00     0.068 A 
HETATM   12  C   UNL     1      -2.050   4.849 -32.511  1.00  0.00     0.095 A 
HETATM   13  C   UNL     1      -1.461   4.814 -33.778  1.00  0.00     0.039 A 
HETATM   14  C   UNL     1      -2.216   5.123 -34.909  1.00  0.00     0.003 A 
HETATM   15  C   UNL     1      -3.555   5.479 -34.777  1.00  0.00     0.002 A 
HETATM   16  C   UNL     1      -4.152   5.519 -33.514  1.00  0.00     0.032 A 
BRANCH  12  17
HETATM   17  O   UNL     1      -1.393   4.575 -31.331  1.00  0.00    -0.354 OA
HETATM   18  C   UNL     1      -0.259   5.378 -31.022  1.00  0.00     0.210 C 
ENDBRANCH  12  17
ENDBRANCH   9  11
ENDBRANCH   7   9
ENDBRANCH   5   7
ENDBRANCH   2   5
BRANCH   1  19
HETATM   19  C   UNL     1      -4.873   0.163 -31.826  1.00  0.00     0.126 C 
BRANCH  19  20
HETATM   20  C   UNL     1      -4.297  -0.108 -33.209  1.00  0.00     0.160 C 
BRANCH  20  21
HETATM   21  N   UNL     1      -4.584  -1.462 -33.652  1.00  0.00    -0.272 N 
HETATM   22  N   UNL     1      -3.706  -2.434 -33.332  1.00  0.00    -0.176 NA
HETATM   23  C   UNL     1      -4.232  -3.545 -33.864  1.00  0.00     0.070 A 
HETATM   24  C   UNL     1      -3.538  -4.846 -33.710  1.00  0.00     0.074 C 
HETATM   25  C   UNL     1      -5.445  -3.261 -34.520  1.00  0.00     0.060 A 
HETATM   26  C   UNL     1      -5.657  -1.908 -34.383  1.00  0.00     0.046 A 
HETATM   27 BR   UNL     1      -6.525  -4.518 -35.392  1.00  0.00    -0.047 Br
HETATM   28  C   UNL     1      -6.755  -1.030 -34.856  1.00  0.00     0.071 C 
ENDBRANCH  20  21
ENDBRANCH  19  20
ENDBRANCH   1  19
TORSDOF 8
ENDMDL
MODEL 3
REMARK VINA RESULT:      -7.1      5.202      8.365
REMARK  8 active torsions:
REMARK  status: ('A' for Active; 'I' for Inactive)
REMARK    1  A    between atoms: N_4  and  C_5 
REMARK    2  A    between atoms: C_5  and  C_6 
REMARK    3  A    between atoms: C_6  and  C_7 
REMARK       I    between atoms: C_7  and  N_8 
REMARK    4  A    between atoms: N_8  and  N_9 
REMARK    5  A    between atoms: N_9  and  C_10 
REMARK    6  A    between atoms: C_10  and  N_11 
REMARK    7  A    between atoms: N_11  and  C_12 
REMARK    8  A    between atoms: C_13  and  O_14 
ROOT
HETATM    1  C   UNL     1      -8.393   0.641 -33.293  1.00  0.00     0.237 C 
HETATM    2  N   UNL     1      -8.413   1.722 -34.151  1.00  0.00    -0.268 N 
HETATM    3  O   UNL     1      -9.409   0.038 -32.958  1.00  0.00    -0.272 OA
HETATM    4  H   UNL     1      -7.568   2.077 -34.598  1.00  0.00     0.190 HD
ENDROOT
BRANCH   2   5
HETATM    5  N   UNL     1      -9.630   2.026 -34.788  1.00  0.00    -0.274 N 
HETATM    6  H   UNL     1      -9.623   1.834 -35.791  1.00  0.00     0.189 HD
BRANCH   5   7
HETATM    7  C   UNL     1     -10.432   3.073 -34.322  1.00  0.00     0.191 C 
HETATM    8  S   UNL     1     -10.219   4.655 -34.835  1.00  0.00    -0.039 SA
BRANCH   7   9
HETATM    9  N   UNL     1     -11.318   2.592 -33.374  1.00  0.00    -0.330 N 
HETATM   10  H   UNL     1     -11.017   2.717 -32.411  1.00  0.00     0.168 HD
BRANCH   9  11
HETATM   11  C   UNL     1     -12.651   2.117 -33.444  1.00  0.00     0.068 A 
HETATM   12  C   UNL     1     -13.613   2.845 -32.704  1.00  0.00     0.095 A 
HETATM   13  C   UNL     1     -14.948   2.432 -32.696  1.00  0.00     0.039 A 
HETATM   14  C   UNL     1     -15.333   1.297 -33.409  1.00  0.00     0.003 A 
HETATM   15  C   UNL     1     -14.386   0.566 -34.121  1.00  0.00     0.002 A 
HETATM   16  C   UNL     1     -13.048   0.971 -34.133  1.00  0.00     0.032 A 
BRANCH  12  17
HETATM   17  O   UNL     1     -13.125   3.941 -32.025  1.00  0.00    -0.354 OA
HETATM   18  C   UNL     1     -13.356   3.985 -30.621  1.00  0.00     0.210 C 
ENDBRANCH  12  17
ENDBRANCH   9  11
ENDBRANCH   7   9
ENDBRANCH   5   7
ENDBRANCH   2   5
BRANCH   1  19
HETATM   19  C   UNL     1      -7.005   0.265 -32.843  1.00  0.00     0.126 C 
BRANCH  19  20
HETATM   20  C   UNL     1      -6.098   0.042 -34.044  1.00  0.00     0.160 C 
BRANCH  20  21
HETATM   21  N   UNL     1      -5.705  -1.352 -34.166  1.00  0.00    -0.272 N 
HETATM   22  N   UNL     1      -6.521  -2.185 -34.843  1.00  0.00    -0.176 NA
HETATM   23  C   UNL     1      -5.904  -3.372 -34.788  1.00  0.00     0.070 A 
HETATM   24  C   UNL     1      -6.509  -4.558 -35.440  1.00  0.00     0.074 C 
HETATM   25  C   UNL     1      -4.697  -3.277 -34.069  1.00  0.00     0.060 A 
HETATM   26  C   UNL     1      -4.583  -1.967 -33.665  1.00  0.00     0.046 A 
HETATM   27 BR   UNL     1      -3.508  -4.690 -33.756  1.00  0.00    -0.047 Br
HETATM   28  C   UNL     1      -3.538  -1.264 -32.883  1.00  0.00     0.071 C 
ENDBRANCH  20  21
ENDBRANCH  19  20
ENDBRANCH   1  19
TORSDOF 8
ENDMDL
MODEL 4
REMARK VINA RESULT:      -7.1      2.061      3.014
REMARK  8 active torsions:
REMARK  status: ('A' for Active; 'I' for Inactive)
REMARK    1  A    between atoms: N_4  and  C_5 
REMARK    2  A    between atoms: C_5  and  C_6 
REMARK    3  A    between atoms: C_6  and  C_7 
REMARK       I    between atoms: C_7  and  N_8 
REMARK    4  A    between atoms: N_8  and  N_9 
REMARK    5  A    between atoms: N_9  and  C_10 
REMARK    6  A    between atoms: C_10  and  N_11 
REMARK    7  A    between atoms: N_11  and  C_12 
REMARK    8  A    between atoms: C_13  and  O_14 
ROOT
HETATM    1  C   UNL     1      -3.653   3.902 -32.483  1.00  0.00     0.237 C 
HETATM    2  N   UNL     1      -4.015   2.576 -32.351  1.00  0.00    -0.268 N 
HETATM    3  O   UNL     1      -4.335   4.826 -32.046  1.00  0.00    -0.272 OA
HETATM    4  H   UNL     1      -3.356   1.815 -32.510  1.00  0.00     0.190 HD
ENDROOT
BRANCH   2   5
HETATM    5  N   UNL     1      -5.122   2.282 -31.535  1.00  0.00    -0.274 N 
HETATM    6  H   UNL     1      -4.866   1.900 -30.624  1.00  0.00     0.189 HD
BRANCH   5   7
HETATM    7  C   UNL     1      -6.334   1.875 -32.104  1.00  0.00     0.191 C 
HETATM    8  S   UNL     1      -7.439   2.973 -32.726  1.00  0.00    -0.039 SA
BRANCH   7   9
HETATM    9  N   UNL     1      -6.462   0.502 -31.992  1.00  0.00    -0.330 N 
HETATM   10  H   UNL     1      -6.965   0.189 -31.166  1.00  0.00     0.168 HD
BRANCH   9  11
HETATM   11  C   UNL     1      -6.196  -0.572 -32.877  1.00  0.00     0.068 A 
HETATM   12  C   UNL     1      -4.893  -1.121 -32.818  1.00  0.00     0.095 A 
HETATM   13  C   UNL     1      -4.536  -2.168 -33.673  1.00  0.00     0.039 A 
HETATM   14  C   UNL     1      -5.460  -2.666 -34.592  1.00  0.00     0.003 A 
HETATM   15  C   UNL     1      -6.736  -2.114 -34.667  1.00  0.00     0.002 A 
HETATM   16  C   UNL     1      -7.100  -1.066 -33.818  1.00  0.00     0.032 A 
BRANCH  12  17
HETATM   17  O   UNL     1      -4.055  -0.548 -31.886  1.00  0.00    -0.354 OA
HETATM   18  C   UNL     1      -2.701  -0.985 -31.879  1.00  0.00     0.210 C 
ENDBRANCH  12  17
ENDBRANCH   9  11
ENDBRANCH   7   9
ENDBRANCH   5   7
ENDBRANCH   2   5
BRANCH   1  19
HETATM   19  C   UNL     1      -2.333   4.091 -33.184  1.00  0.00     0.126 C 
BRANCH  19  20
HETATM   20  C   UNL     1      -1.898   5.548 -33.118  1.00  0.00     0.160 C 
BRANCH  20  21
HETATM   21  N   UNL     1      -1.125   5.821 -31.918  1.00  0.00    -0.272 N 
HETATM   22  N   UNL     1      -0.362   4.830 -31.414  1.00  0.00    -0.176 NA
HETATM   23  C   UNL     1       0.217   5.372 -30.335  1.00  0.00     0.070 A 
HETATM   24  C   UNL     1       1.151   4.570 -29.509  1.00  0.00     0.074 C 
HETATM   25  C   UNL     1      -0.190   6.709 -30.166  1.00  0.00     0.060 A 
HETATM   26  C   UNL     1      -1.065   6.985 -31.192  1.00  0.00     0.046 A 
HETATM   27 BR   UNL     1       0.382   7.851 -28.796  1.00  0.00    -0.047 Br
HETATM   28  C   UNL     1      -1.816   8.215 -31.542  1.00  0.00     0.071 C 
ENDBRANCH  20  21
ENDBRANCH  19  20
ENDBRANCH   1  19
TORSDOF 8
ENDMDL
MODEL 5
REMARK VINA RESULT:      -7.1      3.249      7.671
REMARK  8 active torsions:
REMARK  status: ('A' for Active; 'I' for Inactive)
REMARK    1  A    between atoms: N_4  and  C_5 
REMARK    2  A    between atoms: C_5  and  C_6 
REMARK    3  A    between atoms: C_6  and  C_7 
REMARK       I    between atoms: C_7  and  N_8 
REMARK    4  A    between atoms: N_8  and  N_9 
REMARK    5  A    between atoms: N_9  and  C_10 
REMARK    6  A    between atoms: C_10  and  N_11 
REMARK    7  A    between atoms: N_11  and  C_12 
REMARK    8  A    between atoms: C_13  and  O_14 
ROOT
HETATM    1  C   UNL     1      -6.007   0.964 -31.180  1.00  0.00     0.237 C 
HETATM    2  N   UNL     1      -6.497   2.243 -31.008  1.00  0.00    -0.268 N 
HETATM    3  O   UNL     1      -5.083   0.509 -30.510  1.00  0.00    -0.272 OA
HETATM    4  H   UNL     1      -7.391   2.539 -31.398  1.00  0.00     0.190 HD
ENDROOT
BRANCH   2   5
HETATM    5  N   UNL     1      -6.023   2.980 -29.907  1.00  0.00    -0.274 N 
HETATM    6  H   UNL     1      -6.690   3.036 -29.137  1.00  0.00     0.189 HD
BRANCH   5   7
HETATM    7  C   UNL     1      -5.143   4.052 -30.097  1.00  0.00     0.191 C 
HETATM    8  S   UNL     1      -5.552   5.625 -29.683  1.00  0.00    -0.039 SA
BRANCH   7   9
HETATM    9  N   UNL     1      -3.989   3.602 -30.715  1.00  0.00    -0.330 N 
HETATM   10  H   UNL     1      -3.799   2.611 -30.585  1.00  0.00     0.168 HD
BRANCH   9  11
HETATM   11  C   UNL     1      -3.096   4.186 -31.646  1.00  0.00     0.068 A 
HETATM   12  C   UNL     1      -3.491   4.138 -33.004  1.00  0.00     0.095 A 
HETATM   13  C   UNL     1      -2.659   4.669 -33.994  1.00  0.00     0.039 A 
HETATM   14  C   UNL     1      -1.433   5.237 -33.645  1.00  0.00     0.003 A 
HETATM   15  C   UNL     1      -1.032   5.267 -32.313  1.00  0.00     0.002 A 
HETATM   16  C   UNL     1      -1.857   4.736 -31.317  1.00  0.00     0.032 A 
BRANCH  12  17
HETATM   17  O   UNL     1      -4.712   3.543 -33.240  1.00  0.00    -0.354 OA
HETATM   18  C   UNL     1      -5.688   4.322 -33.922  1.00  0.00     0.210 C 
ENDBRANCH  12  17
ENDBRANCH   9  11
ENDBRANCH   7   9
ENDBRANCH   5   7
ENDBRANCH   2   5
BRANCH   1  19
HETATM   19  C   UNL     1      -6.739   0.185 -32.241  1.00  0.00     0.126 C 
BRANCH  19  20
HETATM   20  C   UNL     1      -5.888   0.067 -33.497  1.00  0.00     0.160 C 
BRANCH  20  21
HETATM   21  N   UNL     1      -5.559  -1.318 -33.792  1.00  0.00    -0.272 N 
HETATM   22  N   UNL     1      -6.427  -2.033 -34.536  1.00  0.00    -0.176 NA
HETATM   23  C   UNL     1      -5.860  -3.242 -34.637  1.00  0.00     0.070 A 
HETATM   24  C   UNL     1      -6.533  -4.318 -35.404  1.00  0.00     0.074 C 
HETATM   25  C   UNL     1      -4.633  -3.280 -33.949  1.00  0.00     0.060 A 
HETATM   26  C   UNL     1      -4.453  -2.031 -33.400  1.00  0.00     0.046 A 
HETATM   27 BR   UNL     1      -3.498  -4.766 -33.838  1.00  0.00    -0.047 Br
HETATM   28  C   UNL     1      -3.358  -1.467 -32.573  1.00  0.00     0.071 C 
ENDBRANCH  20  21
ENDBRANCH  19  20
ENDBRANCH   1  19
TORSDOF 8
ENDMDL
MODEL 6
REMARK VINA RESULT:      -7.1      4.357      7.181
REMARK  8 active torsions:
REMARK  status: ('A' for Active; 'I' for Inactive)
REMARK    1  A    between atoms: N_4  and  C_5 
REMARK    2  A    between atoms: C_5  and  C_6 
REMARK    3  A    between atoms: C_6  and  C_7 
REMARK       I    between atoms: C_7  and  N_8 
REMARK    4  A    between atoms: N_8  and  N_9 
REMARK    5  A    between atoms: N_9  and  C_10 
REMARK    6  A    between atoms: C_10  and  N_11 
REMARK    7  A    between atoms: N_11  and  C_12 
REMARK    8  A    between atoms: C_13  and  O_14 
ROOT
HETATM    1  C   UNL     1      -5.670   0.624 -30.782  1.00  0.00     0.237 C 
HETATM    2  N   UNL     1      -6.747   1.040 -31.538  1.00  0.00    -0.268 N 
HETATM    3  O   UNL     1      -5.680   0.618 -29.553  1.00  0.00    -0.272 OA
HETATM    4  H   UNL     1      -6.823   0.838 -32.534  1.00  0.00     0.190 HD
ENDROOT
BRANCH   2   5
HETATM    5  N   UNL     1      -7.953   1.305 -30.863  1.00  0.00    -0.274 N 
HETATM    6  H   UNL     1      -8.260   0.538 -30.263  1.00  0.00     0.189 HD
BRANCH   5   7
HETATM    7  C   UNL     1      -8.931   2.116 -31.449  1.00  0.00     0.191 C 
HETATM    8  S   UNL     1      -9.648   3.386 -30.621  1.00  0.00    -0.039 SA
BRANCH   7   9
HETATM    9  N   UNL     1      -9.217   1.653 -32.721  1.00  0.00    -0.330 N 
HETATM   10  H   UNL     1      -8.554   0.974 -33.083  1.00  0.00     0.168 HD
BRANCH   9  11
HETATM   11  C   UNL     1     -10.343   1.786 -33.571  1.00  0.00     0.068 A 
HETATM   12  C   UNL     1     -10.352   2.917 -34.421  1.00  0.00     0.095 A 
HETATM   13  C   UNL     1     -11.435   3.141 -35.275  1.00  0.00     0.039 A 
HETATM   14  C   UNL     1     -12.513   2.256 -35.284  1.00  0.00     0.003 A 
HETATM   15  C   UNL     1     -12.517   1.154 -34.434  1.00  0.00     0.002 A 
HETATM   16  C   UNL     1     -11.439   0.924 -33.575  1.00  0.00     0.032 A 
BRANCH  12  17
HETATM   17  O   UNL     1      -9.246   3.735 -34.324  1.00  0.00    -0.354 OA
HETATM   18  C   UNL     1      -9.486   5.122 -34.116  1.00  0.00     0.210 C 
ENDBRANCH  12  17
ENDBRANCH   9  11
ENDBRANCH   7   9
ENDBRANCH   5   7
ENDBRANCH   2   5
BRANCH   1  19
HETATM   19  C   UNL     1      -4.507   0.151 -31.615  1.00  0.00     0.126 C 
BRANCH  19  20
HETATM   20  C   UNL     1      -4.886   0.114 -33.088  1.00  0.00     0.160 C 
BRANCH  20  21
HETATM   21  N   UNL     1      -4.978  -1.250 -33.582  1.00  0.00    -0.272 N 
HETATM   22  N   UNL     1      -4.005  -2.118 -33.235  1.00  0.00    -0.176 NA
HETATM   23  C   UNL     1      -4.359  -3.266 -33.826  1.00  0.00     0.070 A 
HETATM   24  C   UNL     1      -3.517  -4.476 -33.664  1.00  0.00     0.074 C 
HETATM   25  C   UNL     1      -5.558  -3.111 -34.546  1.00  0.00     0.060 A 
HETATM   26  C   UNL     1      -5.944  -1.800 -34.387  1.00  0.00     0.046 A 
HETATM   27 BR   UNL     1      -6.423  -4.462 -35.514  1.00  0.00    -0.047 Br
HETATM   28  C   UNL     1      -7.114  -1.048 -34.903  1.00  0.00     0.071 C 
ENDBRANCH  20  21
ENDBRANCH  19  20
ENDBRANCH   1  19
TORSDOF 8
ENDMDL
MODEL 7
REMARK VINA RESULT:      -7.1      3.459      7.058
REMARK  8 active torsions:
REMARK  status: ('A' for Active; 'I' for Inactive)
REMARK    1  A    between atoms: N_4  and  C_5 
REMARK    2  A    between atoms: C_5  and  C_6 
REMARK    3  A    between atoms: C_6  and  C_7 
REMARK       I    between atoms: C_7  and  N_8 
REMARK    4  A    between atoms: N_8  and  N_9 
REMARK    5  A    between atoms: N_9  and  C_10 
REMARK    6  A    between atoms: C_10  and  N_11 
REMARK    7  A    between atoms: N_11  and  C_12 
REMARK    8  A    between atoms: C_13  and  O_14 
ROOT
HETATM    1  C   UNL     1      -7.260   2.458 -30.411  1.00  0.00     0.237 C 
HETATM    2  N   UNL     1      -5.889   2.508 -30.252  1.00  0.00    -0.268 N 
HETATM    3  O   UNL     1      -8.027   3.222 -29.830  1.00  0.00    -0.272 OA
HETATM    4  H   UNL     1      -5.250   2.035 -30.890  1.00  0.00     0.190 HD
ENDROOT
BRANCH   2   5
HETATM    5  N   UNL     1      -5.358   3.590 -29.525  1.00  0.00    -0.274 N 
HETATM    6  H   UNL     1      -5.897   3.824 -28.691  1.00  0.00     0.189 HD
BRANCH   5   7
HETATM    7  C   UNL     1      -4.680   4.621 -30.184  1.00  0.00     0.191 C 
HETATM    8  S   UNL     1      -5.019   6.238 -29.892  1.00  0.00    -0.039 SA
BRANCH   7   9
HETATM    9  N   UNL     1      -3.797   4.084 -31.103  1.00  0.00    -0.330 N 
HETATM   10  H   UNL     1      -3.471   3.148 -30.880  1.00  0.00     0.168 HD
BRANCH   9  11
HETATM   11  C   UNL     1      -3.377   4.487 -32.395  1.00  0.00     0.068 A 
HETATM   12  C   UNL     1      -1.984   4.663 -32.572  1.00  0.00     0.095 A 
HETATM   13  C   UNL     1      -1.483   5.084 -33.807  1.00  0.00     0.039 A 
HETATM   14  C   UNL     1      -2.356   5.341 -34.864  1.00  0.00     0.003 A 
HETATM   15  C   UNL     1      -3.728   5.189 -34.688  1.00  0.00     0.002 A 
HETATM   16  C   UNL     1      -4.237   4.771 -33.455  1.00  0.00     0.032 A 
BRANCH  12  17
HETATM   17  O   UNL     1      -1.212   4.396 -31.461  1.00  0.00    -0.354 OA
HETATM   18  C   UNL     1      -0.396   5.455 -30.973  1.00  0.00     0.210 C 
ENDBRANCH  12  17
ENDBRANCH   9  11
ENDBRANCH   7   9
ENDBRANCH   5   7
ENDBRANCH   2   5
BRANCH   1  19
HETATM   19  C   UNL     1      -7.706   1.399 -31.386  1.00  0.00     0.126 C 
BRANCH  19  20
HETATM   20  C   UNL     1      -6.943   1.527 -32.697  1.00  0.00     0.160 C 
BRANCH  20  21
HETATM   21  N   UNL     1      -6.217   0.308 -33.013  1.00  0.00    -0.272 N 
HETATM   22  N   UNL     1      -5.196  -0.050 -32.207  1.00  0.00    -0.176 NA
HETATM   23  C   UNL     1      -4.736  -1.188 -32.741  1.00  0.00     0.070 A 
HETATM   24  C   UNL     1      -3.595  -1.897 -32.114  1.00  0.00     0.074 C 
HETATM   25  C   UNL     1      -5.473  -1.539 -33.888  1.00  0.00     0.060 A 
HETATM   26  C   UNL     1      -6.423  -0.558 -34.058  1.00  0.00     0.046 A 
HETATM   27 BR   UNL     1      -5.181  -3.060 -34.942  1.00  0.00    -0.047 Br
HETATM   28  C   UNL     1      -7.482  -0.379 -35.081  1.00  0.00     0.071 C 
ENDBRANCH  20  21
ENDBRANCH  19  20
ENDBRANCH   1  19
TORSDOF 8
ENDMDL
MODEL 8
REMARK VINA RESULT:      -7.0      3.340      7.493
REMARK  8 active torsions:
REMARK  status: ('A' for Active; 'I' for Inactive)
REMARK    1  A    between atoms: N_4  and  C_5 
REMARK    2  A    between atoms: C_5  and  C_6 
REMARK    3  A    between atoms: C_6  and  C_7 
REMARK       I    between atoms: C_7  and  N_8 
REMARK    4  A    between atoms: N_8  and  N_9 
REMARK    5  A    between atoms: N_9  and  C_10 
REMARK    6  A    between atoms: C_10  and  N_11 
REMARK    7  A    between atoms: N_11  and  C_12 
REMARK    8  A    between atoms: C_13  and  O_14 
ROOT
HETATM    1  C   UNL     1      -7.250   1.661 -32.394  1.00  0.00     0.237 C 
HETATM    2  N   UNL     1      -6.892   2.449 -33.470  1.00  0.00    -0.268 N 
HETATM    3  O   UNL     1      -7.855   2.099 -31.419  1.00  0.00    -0.272 OA
HETATM    4  H   UNL     1      -6.596   2.051 -34.360  1.00  0.00     0.190 HD
ENDROOT
BRANCH   2   5
HETATM    5  N   UNL     1      -7.393   3.763 -33.510  1.00  0.00    -0.274 N 
HETATM    6  H   UNL     1      -8.254   3.853 -34.050  1.00  0.00     0.189 HD
BRANCH   5   7
HETATM    7  C   UNL     1      -6.521   4.856 -33.470  1.00  0.00     0.191 C 
HETATM    8  S   UNL     1      -6.922   6.288 -32.695  1.00  0.00    -0.039 SA
BRANCH   7   9
HETATM    9  N   UNL     1      -5.383   4.569 -34.204  1.00  0.00    -0.330 N 
HETATM   10  H   UNL     1      -5.561   4.230 -35.146  1.00  0.00     0.168 HD
BRANCH   9  11
HETATM   11  C   UNL     1      -4.004   4.813 -33.990  1.00  0.00     0.068 A 
HETATM   12  C   UNL     1      -3.434   4.208 -32.845  1.00  0.00     0.095 A 
HETATM   13  C   UNL     1      -2.085   4.416 -32.543  1.00  0.00     0.039 A 
HETATM   14  C   UNL     1      -1.302   5.227 -33.363  1.00  0.00     0.003 A 
HETATM   15  C   UNL     1      -1.865   5.841 -34.479  1.00  0.00     0.002 A 
HETATM   16  C   UNL     1      -3.213   5.640 -34.787  1.00  0.00     0.032 A 
BRANCH  12  17
HETATM   17  O   UNL     1      -4.297   3.438 -32.095  1.00  0.00    -0.354 OA
HETATM   18  C   UNL     1      -3.722   2.394 -31.319  1.00  0.00     0.210 C 
ENDBRANCH  12  17
ENDBRANCH   9  11
ENDBRANCH   7   9
ENDBRANCH   5   7
ENDBRANCH   2   5
BRANCH   1  19
HETATM   19  C   UNL     1      -6.854   0.216 -32.558  1.00  0.00     0.126 C 
BRANCH  19  20
HETATM   20  C   UNL     1      -6.042   0.027 -33.831  1.00  0.00     0.160 C 
BRANCH  20  21
HETATM   21  N   UNL     1      -5.661  -1.363 -34.020  1.00  0.00    -0.272 N 
HETATM   22  N   UNL     1      -6.459  -2.143 -34.778  1.00  0.00    -0.176 NA
HETATM   23  C   UNL     1      -5.859  -3.340 -34.769  1.00  0.00     0.070 A 
HETATM   24  C   UNL     1      -6.452  -4.476 -35.514  1.00  0.00     0.074 C 
HETATM   25  C   UNL     1      -4.681  -3.304 -33.998  1.00  0.00     0.060 A 
HETATM   26  C   UNL     1      -4.569  -2.022 -33.513  1.00  0.00     0.046 A 
HETATM   27 BR   UNL     1      -3.523  -4.750 -33.723  1.00  0.00    -0.047 Br
HETATM   28  C   UNL     1      -3.547  -1.382 -32.649  1.00  0.00     0.071 C 
ENDBRANCH  20  21
ENDBRANCH  19  20
ENDBRANCH   1  19
TORSDOF 8
ENDMDL
MODEL 9
REMARK VINA RESULT:      -6.8      2.272      2.920
REMARK  8 active torsions:
REMARK  status: ('A' for Active; 'I' for Inactive)
REMARK    1  A    between atoms: N_4  and  C_5 
REMARK    2  A    between atoms: C_5  and  C_6 
REMARK    3  A    between atoms: C_6  and  C_7 
REMARK       I    between atoms: C_7  and  N_8 
REMARK    4  A    between atoms: N_8  and  N_9 
REMARK    5  A    between atoms: N_9  and  C_10 
REMARK    6  A    between atoms: C_10  and  N_11 
REMARK    7  A    between atoms: N_11  and  C_12 
REMARK    8  A    between atoms: C_13  and  O_14 
ROOT
HETATM    1  C   UNL     1      -3.271   3.072 -32.144  1.00  0.00     0.237 C 
HETATM    2  N   UNL     1      -4.599   2.923 -32.486  1.00  0.00    -0.268 N 
HETATM    3  O   UNL     1      -2.755   2.477 -31.200  1.00  0.00    -0.272 OA
HETATM    4  H   UNL     1      -4.967   3.233 -33.385  1.00  0.00     0.190 HD
ENDROOT
BRANCH   2   5
HETATM    5  N   UNL     1      -5.334   1.922 -31.825  1.00  0.00    -0.274 N 
HETATM    6  H   UNL     1      -4.774   1.367 -31.177  1.00  0.00     0.189 HD
BRANCH   5   7
HETATM    7  C   UNL     1      -6.418   1.302 -32.457  1.00  0.00     0.191 C 
HETATM    8  S   UNL     1      -7.968   1.352 -31.820  1.00  0.00    -0.039 SA
BRANCH   7   9
HETATM    9  N   UNL     1      -5.976   0.631 -33.583  1.00  0.00    -0.330 N 
HETATM   10  H   UNL     1      -5.517   1.219 -34.274  1.00  0.00     0.168 HD
BRANCH   9  11
HETATM   11  C   UNL     1      -5.864  -0.742 -33.913  1.00  0.00     0.068 A 
HETATM   12  C   UNL     1      -4.589  -1.327 -33.726  1.00  0.00     0.095 A 
HETATM   13  C   UNL     1      -4.382  -2.671 -34.049  1.00  0.00     0.039 A 
HETATM   14  C   UNL     1      -5.428  -3.436 -34.565  1.00  0.00     0.003 A 
HETATM   15  C   UNL     1      -6.678  -2.858 -34.769  1.00  0.00     0.002 A 
HETATM   16  C   UNL     1      -6.894  -1.515 -34.451  1.00  0.00     0.032 A 
BRANCH  12  17
HETATM   17  O   UNL     1      -3.623  -0.481 -33.225  1.00  0.00    -0.354 OA
HETATM   18  C   UNL     1      -2.898  -0.932 -32.086  1.00  0.00     0.210 C 
ENDBRANCH  12  17
ENDBRANCH   9  11
ENDBRANCH   7   9
ENDBRANCH   5   7
ENDBRANCH   2   5
BRANCH   1  19
HETATM   19  C   UNL     1      -2.522   4.004 -33.060  1.00  0.00     0.126 C 
BRANCH  19  20
HETATM   20  C   UNL     1      -3.447   5.092 -33.585  1.00  0.00     0.160 C 
BRANCH  20  21
HETATM   21  N   UNL     1      -3.557   6.198 -32.649  1.00  0.00    -0.272 N 
HETATM   22  N   UNL     1      -4.632   6.236 -31.834  1.00  0.00    -0.176 NA
HETATM   23  C   UNL     1      -4.455   7.344 -31.103  1.00  0.00     0.070 A 
HETATM   24  C   UNL     1      -5.450   7.723 -30.072  1.00  0.00     0.074 C 
HETATM   25  C   UNL     1      -3.264   8.000 -31.467  1.00  0.00     0.060 A 
HETATM   26  C   UNL     1      -2.696   7.254 -32.474  1.00  0.00     0.046 A 
HETATM   27 BR   UNL     1      -2.618   9.580 -30.695  1.00  0.00    -0.047 Br
HETATM   28  C   UNL     1      -1.447   7.437 -33.252  1.00  0.00     0.071 C 
ENDBRANCH  20  21
ENDBRANCH  19  20
ENDBRANCH   1  19
TORSDOF 8
ENDMDL
MODEL 10
REMARK VINA RESULT:      -6.8      2.138      2.655
REMARK  8 active torsions:
REMARK  status: ('A' for Active; 'I' for Inactive)
REMARK    1  A    between atoms: N_4  and  C_5 
REMARK    2  A    between atoms: C_5  and  C_6 
REMARK    3  A    between atoms: C_6  and  C_7 
REMARK       I    between atoms: C_7  and  N_8 
REMARK    4  A    between atoms: N_8  and  N_9 
REMARK    5  A    between atoms: N_9  and  C_10 
REMARK    6  A    between atoms: C_10  and  N_11 
REMARK    7  A    between atoms: N_11  and  C_12 
REMARK    8  A    between atoms: C_13  and  O_14 
ROOT
HETATM    1  C   UNL     1      -6.790   4.165 -33.394  1.00  0.00     0.237 C 
HETATM    2  N   UNL     1      -6.415   2.837 -33.377  1.00  0.00    -0.268 N 
HETATM    3  O   UNL     1      -7.527   4.638 -34.256  1.00  0.00    -0.272 OA
HETATM    4  H   UNL     1      -5.996   2.402 -32.556  1.00  0.00     0.190 HD
ENDROOT
BRANCH   2   5
HETATM    5  N   UNL     1      -7.044   1.971 -34.290  1.00  0.00    -0.274 N 
HETATM    6  H   UNL     1      -7.130   2.362 -35.229  1.00  0.00     0.189 HD
BRANCH   5   7
HETATM    7  C   UNL     1      -8.027   1.076 -33.855  1.00  0.00     0.191 C 
HETATM    8  S   UNL     1      -9.664   1.384 -34.055  1.00  0.00    -0.039 SA
BRANCH   7   9
HETATM    9  N   UNL     1      -7.430   0.005 -33.213  1.00  0.00    -0.330 N 
HETATM   10  H   UNL     1      -7.771  -0.166 -32.270  1.00  0.00     0.168 HD
BRANCH   9  11
HETATM   11  C   UNL     1      -6.563  -1.026 -33.648  1.00  0.00     0.068 A 
HETATM   12  C   UNL     1      -5.188  -0.847 -33.364  1.00  0.00     0.095 A 
HETATM   13  C   UNL     1      -4.257  -1.803 -33.779  1.00  0.00     0.039 A 
HETATM   14  C   UNL     1      -4.680  -2.931 -34.483  1.00  0.00     0.003 A 
HETATM   15  C   UNL     1      -6.029  -3.100 -34.783  1.00  0.00     0.002 A 
HETATM   16  C   UNL     1      -6.966  -2.147 -34.373  1.00  0.00     0.032 A 
BRANCH  12  17
HETATM   17  O   UNL     1      -4.876   0.307 -32.677  1.00  0.00    -0.354 OA
HETATM   18  C   UNL     1      -3.503   0.526 -32.375  1.00  0.00     0.210 C 
ENDBRANCH  12  17
ENDBRANCH   9  11
ENDBRANCH   7   9
ENDBRANCH   5   7
ENDBRANCH   2   5
BRANCH   1  19
HETATM   19  C   UNL     1      -6.232   4.956 -32.240  1.00  0.00     0.126 C 
BRANCH  19  20
HETATM   20  C   UNL     1      -5.689   6.293 -32.722  1.00  0.00     0.160 C 
BRANCH  20  21
HETATM   21  N   UNL     1      -4.238   6.281 -32.808  1.00  0.00    -0.272 N 
HETATM   22  N   UNL     1      -3.673   5.855 -33.956  1.00  0.00    -0.176 NA
HETATM   23  C   UNL     1      -2.356   5.960 -33.736  1.00  0.00     0.070 A 
HETATM   24  C   UNL     1      -1.392   5.580 -34.796  1.00  0.00     0.074 C 
HETATM   25  C   UNL     1      -2.101   6.451 -32.442  1.00  0.00     0.060 A 
HETATM   26  C   UNL     1      -3.326   6.648 -31.848  1.00  0.00     0.046 A 
HETATM   27 BR   UNL     1      -0.402   6.765 -31.717  1.00  0.00    -0.047 Br
HETATM   28  C   UNL     1      -3.701   7.146 -30.502  1.00  0.00     0.071 C 
ENDBRANCH  20  21
ENDBRANCH  19  20
ENDBRANCH   1  19
TORSDOF 8
ENDMDL
