MODEL 1
REMARK VINA RESULT:      -7.7      0.000      0.000
REMARK  6 active torsions:
REMARK  status: ('A' for Active; 'I' for Inactive)
REMARK    1  A    between atoms: C_4  and  C_5 
REMARK    2  A    between atoms: C_5  and  C_6 
REMARK    3  A    between atoms: C_6  and  C_7 
REMARK    4  A    between atoms: C_7  and  C_8 
REMARK       I    between atoms: C_8  and  N_9 
REMARK    5  A    between atoms: N_9  and  C_10 
REMARK    6  A    between atoms: C_12  and  C_13 
ROOT
HETATM    1  C   UNL     1      -4.927   2.250 -31.344  1.00  0.00     0.222 C 
HETATM    2  N   UNL     1      -4.704   1.640 -32.542  1.00  0.00    -0.327 N 
HETATM    3  O   UNL     1      -4.003   2.923 -30.878  1.00  0.00    -0.273 OA
HETATM    4  H   UNL     1      -3.775   1.881 -32.871  1.00  0.00     0.169 HD
ENDROOT
BRANCH   2   5
HETATM    5  C   UNL     1      -5.442   0.786 -33.384  1.00  0.00     0.035 A 
HETATM    6  C   UNL     1      -5.260  -0.591 -33.523  1.00  0.00     0.042 A 
HETATM    7  C   UNL     1      -6.059  -1.351 -34.401  1.00  0.00    -0.021 A 
HETATM    8  C   UNL     1      -7.046  -0.706 -35.153  1.00  0.00     0.012 A 
HETATM    9  C   UNL     1      -7.235   0.668 -35.030  1.00  0.00     0.003 A 
HETATM   10  C   UNL     1      -6.439   1.404 -34.153  1.00  0.00     0.029 A 
BRANCH   7  11
HETATM   11  C   UNL     1      -5.860  -2.784 -34.544  1.00  0.00     0.010 A 
HETATM   12  C   UNL     1      -6.762  -3.810 -34.917  1.00  0.00     0.152 A 
HETATM   13  N   UNL     1      -6.199  -5.021 -34.916  1.00  0.00    -0.187 NA
HETATM   14  N   UNL     1      -4.935  -4.779 -34.539  1.00  0.00    -0.289 N 
HETATM   15  H   UNL     1      -4.297  -5.565 -34.460  1.00  0.00     0.188 HD
HETATM   16  C   UNL     1      -4.681  -3.458 -34.302  1.00  0.00     0.123 A 
ENDBRANCH   7  11
ENDBRANCH   2   5
BRANCH   1  17
HETATM   17  C   UNL     1      -6.249   2.118 -30.618  1.00  0.00     0.103 C 
BRANCH  17  18
HETATM   18  C   UNL     1      -7.293   3.151 -31.048  1.00  0.00     0.014 C 
BRANCH  18  19
HETATM   19  C   UNL     1      -8.713   2.775 -30.610  1.00  0.00     0.046 C 
BRANCH  19  20
HETATM   20  C   UNL     1      -9.432   2.020 -31.690  1.00  0.00    -0.017 A 
HETATM   21  S   UNL     1     -10.468   2.839 -32.779  1.00  0.00    -0.100 SA
HETATM   22  C   UNL     1     -10.852   1.394 -33.611  1.00  0.00    -0.021 A 
HETATM   23  C   UNL     1     -11.785   1.427 -34.772  1.00  0.00     0.056 C 
HETATM   24  C   UNL     1     -10.197   0.308 -33.069  1.00  0.00     0.015 A 
HETATM   25  C   UNL     1      -9.380   0.668 -31.960  1.00  0.00     0.015 A 
ENDBRANCH  19  20
ENDBRANCH  18  19
ENDBRANCH  17  18
ENDBRANCH   1  17
TORSDOF 6
ENDMDL
MODEL 2
REMARK VINA RESULT:      -7.4      3.400      5.785
REMARK  6 active torsions:
REMARK  status: ('A' for Active; 'I' for Inactive)
REMARK    1  A    between atoms: C_4  and  C_5 
REMARK    2  A    between atoms: C_5  and  C_6 
REMARK    3  A    between atoms: C_6  and  C_7 
REMARK    4  A    between atoms: C_7  and  C_8 
REMARK       I    between atoms: C_8  and  N_9 
REMARK    5  A    between atoms: N_9  and  C_10 
REMARK    6  A    between atoms: C_12  and  C_13 
ROOT
HETATM    1  C   UNL     1      -4.790   2.217 -31.284  1.00  0.00     0.222 C 
HETATM    2  N   UNL     1      -5.809   1.395 -31.661  1.00  0.00    -0.327 N 
HETATM    3  O   UNL     1      -4.878   2.743 -30.171  1.00  0.00    -0.273 OA
HETATM    4  H   UNL     1      -6.486   1.335 -30.908  1.00  0.00     0.169 HD
ENDROOT
BRANCH   2   5
HETATM    5  C   UNL     1      -6.118   0.646 -32.813  1.00  0.00     0.035 A 
HETATM    6  C   UNL     1      -5.815  -0.700 -33.025  1.00  0.00     0.042 A 
HETATM    7  C   UNL     1      -6.172  -1.352 -34.223  1.00  0.00    -0.021 A 
HETATM    8  C   UNL     1      -6.833  -0.628 -35.221  1.00  0.00     0.012 A 
HETATM    9  C   UNL     1      -7.136   0.717 -35.027  1.00  0.00     0.003 A 
HETATM   10  C   UNL     1      -6.780   1.345 -33.833  1.00  0.00     0.029 A 
BRANCH   7  11
HETATM   11  C   UNL     1      -5.848  -2.753 -34.439  1.00  0.00     0.010 A 
HETATM   12  C   UNL     1      -6.648  -3.826 -34.902  1.00  0.00     0.152 A 
HETATM   13  N   UNL     1      -5.986  -4.984 -34.948  1.00  0.00    -0.187 NA
HETATM   14  N   UNL     1      -4.759  -4.662 -34.511  1.00  0.00    -0.289 N 
HETATM   15  H   UNL     1      -4.061  -5.397 -34.452  1.00  0.00     0.188 HD
HETATM   16  C   UNL     1      -4.625  -3.341 -34.191  1.00  0.00     0.123 A 
ENDBRANCH   7  11
ENDBRANCH   2   5
BRANCH   1  17
HETATM   17  C   UNL     1      -3.599   2.471 -32.183  1.00  0.00     0.103 C 
BRANCH  17  18
HETATM   18  C   UNL     1      -3.658   3.812 -32.918  1.00  0.00     0.014 C 
BRANCH  18  19
HETATM   19  C   UNL     1      -2.268   4.359 -33.262  1.00  0.00     0.046 C 
BRANCH  19  20
HETATM   20  C   UNL     1      -1.688   5.129 -32.111  1.00  0.00    -0.017 A 
HETATM   21  S   UNL     1      -2.702   6.039 -31.075  1.00  0.00    -0.100 SA
HETATM   22  C   UNL     1      -1.381   6.557 -30.120  1.00  0.00    -0.021 A 
HETATM   23  C   UNL     1      -1.612   7.450 -28.949  1.00  0.00     0.056 C 
HETATM   24  C   UNL     1      -0.188   6.040 -30.581  1.00  0.00     0.015 A 
HETATM   25  C   UNL     1      -0.365   5.219 -31.730  1.00  0.00     0.015 A 
ENDBRANCH  19  20
ENDBRANCH  18  19
ENDBRANCH  17  18
ENDBRANCH   1  17
TORSDOF 6
ENDMDL
MODEL 3
REMARK VINA RESULT:      -7.4      3.762      6.757
REMARK  6 active torsions:
REMARK  status: ('A' for Active; 'I' for Inactive)
REMARK    1  A    between atoms: C_4  and  C_5 
REMARK    2  A    between atoms: C_5  and  C_6 
REMARK    3  A    between atoms: C_6  and  C_7 
REMARK    4  A    between atoms: C_7  and  C_8 
REMARK       I    between atoms: C_8  and  N_9 
REMARK    5  A    between atoms: N_9  and  C_10 
REMARK    6  A    between atoms: C_12  and  C_13 
ROOT
HETATM    1  C   UNL     1      -7.082   0.897 -31.590  1.00  0.00     0.222 C 
HETATM    2  N   UNL     1      -8.260   1.582 -31.556  1.00  0.00    -0.327 N 
HETATM    3  O   UNL     1      -6.478   0.770 -30.521  1.00  0.00    -0.273 OA
HETATM    4  H   UNL     1      -8.458   1.858 -30.600  1.00  0.00     0.169 HD
ENDROOT
BRANCH   2   5
HETATM    5  C   UNL     1      -9.218   1.974 -32.511  1.00  0.00     0.035 A 
HETATM    6  C   UNL     1     -10.448   1.356 -32.744  1.00  0.00     0.042 A 
HETATM    7  C   UNL     1     -11.333   1.834 -33.731  1.00  0.00    -0.021 A 
HETATM    8  C   UNL     1     -10.962   2.944 -34.497  1.00  0.00     0.012 A 
HETATM    9  C   UNL     1      -9.736   3.568 -34.280  1.00  0.00     0.003 A 
HETATM   10  C   UNL     1      -8.874   3.084 -33.296  1.00  0.00     0.029 A 
BRANCH   7  11
HETATM   11  C   UNL     1     -12.610   1.182 -33.972  1.00  0.00     0.010 A 
HETATM   12  C   UNL     1     -13.788   1.658 -34.597  1.00  0.00     0.152 A 
HETATM   13  N   UNL     1     -14.770   0.753 -34.610  1.00  0.00    -0.187 NA
HETATM   14  N   UNL     1     -14.229  -0.306 -33.991  1.00  0.00    -0.289 N 
HETATM   15  H   UNL     1     -14.799  -1.138 -33.873  1.00  0.00     0.188 HD
HETATM   16  C   UNL     1     -12.940  -0.101 -33.587  1.00  0.00     0.123 A 
ENDBRANCH   7  11
ENDBRANCH   2   5
BRANCH   1  17
HETATM   17  C   UNL     1      -6.539   0.313 -32.876  1.00  0.00     0.103 C 
BRANCH  17  18
HETATM   18  C   UNL     1      -7.468  -0.716 -33.525  1.00  0.00     0.014 C 
BRANCH  18  19
HETATM   19  C   UNL     1      -6.937  -1.229 -34.868  1.00  0.00     0.046 C 
BRANCH  19  20
HETATM   20  C   UNL     1      -6.205  -2.529 -34.701  1.00  0.00    -0.017 A 
HETATM   21  S   UNL     1      -4.602  -2.553 -34.103  1.00  0.00    -0.100 SA
HETATM   22  C   UNL     1      -4.512  -4.258 -34.209  1.00  0.00    -0.021 A 
HETATM   23  C   UNL     1      -3.268  -4.966 -33.796  1.00  0.00     0.056 C 
HETATM   24  C   UNL     1      -5.686  -4.799 -34.689  1.00  0.00     0.015 A 
HETATM   25  C   UNL     1      -6.662  -3.802 -34.975  1.00  0.00     0.015 A 
ENDBRANCH  19  20
ENDBRANCH  18  19
ENDBRANCH  17  18
ENDBRANCH   1  17
TORSDOF 6
ENDMDL
MODEL 4
REMARK VINA RESULT:      -7.2      2.008      3.011
REMARK  6 active torsions:
REMARK  status: ('A' for Active; 'I' for Inactive)
REMARK    1  A    between atoms: C_4  and  C_5 
REMARK    2  A    between atoms: C_5  and  C_6 
REMARK    3  A    between atoms: C_6  and  C_7 
REMARK    4  A    between atoms: C_7  and  C_8 
REMARK       I    between atoms: C_8  and  N_9 
REMARK    5  A    between atoms: N_9  and  C_10 
REMARK    6  A    between atoms: C_12  and  C_13 
ROOT
HETATM    1  C   UNL     1      -7.678   2.300 -33.275  1.00  0.00     0.222 C 
HETATM    2  N   UNL     1      -6.547   1.767 -33.817  1.00  0.00    -0.327 N 
HETATM    3  O   UNL     1      -8.026   3.411 -33.687  1.00  0.00    -0.273 OA
HETATM    4  H   UNL     1      -6.184   2.399 -34.522  1.00  0.00     0.169 HD
ENDROOT
BRANCH   2   5
HETATM    5  C   UNL     1      -5.804   0.586 -33.622  1.00  0.00     0.035 A 
HETATM    6  C   UNL     1      -6.124  -0.679 -34.117  1.00  0.00     0.042 A 
HETATM    7  C   UNL     1      -5.304  -1.796 -33.857  1.00  0.00    -0.021 A 
HETATM    8  C   UNL     1      -4.155  -1.630 -33.079  1.00  0.00     0.012 A 
HETATM    9  C   UNL     1      -3.825  -0.376 -32.573  1.00  0.00     0.003 A 
HETATM   10  C   UNL     1      -4.645   0.720 -32.843  1.00  0.00     0.029 A 
BRANCH   7  11
HETATM   11  C   UNL     1      -5.647  -3.112 -34.373  1.00  0.00     0.010 A 
HETATM   12  C   UNL     1      -4.865  -4.284 -34.509  1.00  0.00     0.152 A 
HETATM   13  N   UNL     1      -5.543  -5.300 -35.049  1.00  0.00    -0.187 NA
HETATM   14  N   UNL     1      -6.762  -4.784 -35.265  1.00  0.00    -0.289 N 
HETATM   15  H   UNL     1      -7.469  -5.381 -35.684  1.00  0.00     0.188 HD
HETATM   16  C   UNL     1      -6.877  -3.479 -34.881  1.00  0.00     0.123 A 
ENDBRANCH   7  11
ENDBRANCH   2   5
BRANCH   1  17
HETATM   17  C   UNL     1      -8.479   1.565 -32.223  1.00  0.00     0.103 C 
BRANCH  17  18
HETATM   18  C   UNL     1      -9.411   0.494 -32.795  1.00  0.00     0.014 C 
BRANCH  18  19
HETATM   19  C   UNL     1     -10.184   0.980 -34.027  1.00  0.00     0.046 C 
BRANCH  19  20
HETATM   20  C   UNL     1     -11.518   1.549 -33.639  1.00  0.00    -0.017 A 
HETATM   21  S   UNL     1     -12.933   0.590 -33.734  1.00  0.00    -0.100 SA
HETATM   22  C   UNL     1     -13.922   1.867 -33.170  1.00  0.00    -0.021 A 
HETATM   23  C   UNL     1     -15.389   1.658 -33.009  1.00  0.00     0.056 C 
HETATM   24  C   UNL     1     -13.185   3.003 -32.910  1.00  0.00     0.015 A 
HETATM   25  C   UNL     1     -11.799   2.820 -33.183  1.00  0.00     0.015 A 
ENDBRANCH  19  20
ENDBRANCH  18  19
ENDBRANCH  17  18
ENDBRANCH   1  17
TORSDOF 6
ENDMDL
MODEL 5
REMARK VINA RESULT:      -7.1      2.317      3.041
REMARK  6 active torsions:
REMARK  status: ('A' for Active; 'I' for Inactive)
REMARK    1  A    between atoms: C_4  and  C_5 
REMARK    2  A    between atoms: C_5  and  C_6 
REMARK    3  A    between atoms: C_6  and  C_7 
REMARK    4  A    between atoms: C_7  and  C_8 
REMARK       I    between atoms: C_8  and  N_9 
REMARK    5  A    between atoms: N_9  and  C_10 
REMARK    6  A    between atoms: C_12  and  C_13 
ROOT
HETATM    1  C   UNL     1      -7.233   3.636 -33.792  1.00  0.00     0.222 C 
HETATM    2  N   UNL     1      -6.500   2.671 -34.416  1.00  0.00    -0.327 N 
HETATM    3  O   UNL     1      -7.002   4.807 -34.109  1.00  0.00    -0.273 OA
HETATM    4  H   UNL     1      -5.877   3.107 -35.088  1.00  0.00     0.169 HD
ENDROOT
BRANCH   2   5
HETATM    5  C   UNL     1      -6.418   1.268 -34.336  1.00  0.00     0.035 A 
HETATM    6  C   UNL     1      -5.439   0.538 -33.660  1.00  0.00     0.042 A 
HETATM    7  C   UNL     1      -5.454  -0.872 -33.647  1.00  0.00    -0.021 A 
HETATM    8  C   UNL     1      -6.465  -1.548 -34.337  1.00  0.00     0.012 A 
HETATM    9  C   UNL     1      -7.445  -0.834 -35.022  1.00  0.00     0.003 A 
HETATM   10  C   UNL     1      -7.418   0.561 -35.020  1.00  0.00     0.029 A 
BRANCH   7  11
HETATM   11  C   UNL     1      -4.428  -1.626 -32.944  1.00  0.00     0.010 A 
HETATM   12  C   UNL     1      -4.026  -2.978 -33.067  1.00  0.00     0.152 A 
HETATM   13  N   UNL     1      -3.046  -3.306 -32.221  1.00  0.00    -0.187 NA
HETATM   14  N   UNL     1      -2.817  -2.169 -31.549  1.00  0.00    -0.289 N 
HETATM   15  H   UNL     1      -2.100  -2.170 -30.830  1.00  0.00     0.188 HD
HETATM   16  C   UNL     1      -3.618  -1.134 -31.941  1.00  0.00     0.123 A 
ENDBRANCH   7  11
ENDBRANCH   2   5
BRANCH   1  17
HETATM   17  C   UNL     1      -8.289   3.292 -32.764  1.00  0.00     0.103 C 
BRANCH  17  18
HETATM   18  C   UNL     1      -9.701   3.726 -33.164  1.00  0.00     0.014 C 
BRANCH  18  19
HETATM   19  C   UNL     1     -10.164   3.090 -34.481  1.00  0.00     0.046 C 
BRANCH  19  20
HETATM   20  C   UNL     1     -11.283   2.116 -34.249  1.00  0.00    -0.017 A 
HETATM   21  S   UNL     1     -12.871   2.477 -34.772  1.00  0.00    -0.100 SA
HETATM   22  C   UNL     1     -13.480   0.992 -34.180  1.00  0.00    -0.021 A 
HETATM   23  C   UNL     1     -14.924   0.660 -34.340  1.00  0.00     0.056 C 
HETATM   24  C   UNL     1     -12.487   0.233 -33.597  1.00  0.00     0.015 A 
HETATM   25  C   UNL     1     -11.220   0.882 -33.635  1.00  0.00     0.015 A 
ENDBRANCH  19  20
ENDBRANCH  18  19
ENDBRANCH  17  18
ENDBRANCH   1  17
TORSDOF 6
ENDMDL
MODEL 6
REMARK VINA RESULT:      -7.1      3.453      6.731
REMARK  6 active torsions:
REMARK  status: ('A' for Active; 'I' for Inactive)
REMARK    1  A    between atoms: C_4  and  C_5 
REMARK    2  A    between atoms: C_5  and  C_6 
REMARK    3  A    between atoms: C_6  and  C_7 
REMARK    4  A    between atoms: C_7  and  C_8 
REMARK       I    between atoms: C_8  and  N_9 
REMARK    5  A    between atoms: N_9  and  C_10 
REMARK    6  A    between atoms: C_12  and  C_13 
ROOT
HETATM    1  C   UNL     1      -9.048   0.764 -33.094  1.00  0.00     0.222 C 
HETATM    2  N   UNL     1      -8.260   0.860 -31.986  1.00  0.00    -0.327 N 
HETATM    3  O   UNL     1     -10.256   0.587 -32.908  1.00  0.00    -0.273 OA
HETATM    4  H   UNL     1      -8.840   0.793 -31.157  1.00  0.00     0.169 HD
ENDROOT
BRANCH   2   5
HETATM    5  C   UNL     1      -6.881   1.023 -31.749  1.00  0.00     0.035 A 
HETATM    6  C   UNL     1      -6.116   2.141 -32.081  1.00  0.00     0.042 A 
HETATM    7  C   UNL     1      -4.736   2.196 -31.797  1.00  0.00    -0.021 A 
HETATM    8  C   UNL     1      -4.125   1.100 -31.180  1.00  0.00     0.012 A 
HETATM    9  C   UNL     1      -4.874  -0.026 -30.848  1.00  0.00     0.003 A 
HETATM   10  C   UNL     1      -6.239  -0.061 -31.132  1.00  0.00     0.029 A 
BRANCH   7  11
HETATM   11  C   UNL     1      -3.944   3.364 -32.149  1.00  0.00     0.010 A 
HETATM   12  C   UNL     1      -2.689   3.809 -31.669  1.00  0.00     0.152 A 
HETATM   13  N   UNL     1      -2.293   4.952 -32.235  1.00  0.00    -0.187 NA
HETATM   14  N   UNL     1      -3.294   5.248 -33.077  1.00  0.00    -0.289 N 
HETATM   15  H   UNL     1      -3.222   6.097 -33.631  1.00  0.00     0.188 HD
HETATM   16  C   UNL     1      -4.307   4.332 -33.063  1.00  0.00     0.123 A 
ENDBRANCH   7  11
ENDBRANCH   2   5
BRANCH   1  17
HETATM   17  C   UNL     1      -8.474   0.876 -34.490  1.00  0.00     0.103 C 
BRANCH  17  18
HETATM   18  C   UNL     1      -7.859  -0.427 -35.008  1.00  0.00     0.014 C 
BRANCH  18  19
HETATM   19  C   UNL     1      -6.352  -0.517 -34.741  1.00  0.00     0.046 C 
BRANCH  19  20
HETATM   20  C   UNL     1      -5.907  -1.945 -34.618  1.00  0.00    -0.017 A 
HETATM   21  S   UNL     1      -4.365  -2.322 -33.981  1.00  0.00    -0.100 SA
HETATM   22  C   UNL     1      -4.620  -4.004 -34.167  1.00  0.00    -0.021 A 
HETATM   23  C   UNL     1      -3.562  -4.969 -33.756  1.00  0.00     0.056 C 
HETATM   24  C   UNL     1      -5.863  -4.271 -34.702  1.00  0.00     0.015 A 
HETATM   25  C   UNL     1      -6.604  -3.085 -34.964  1.00  0.00     0.015 A 
ENDBRANCH  19  20
ENDBRANCH  18  19
ENDBRANCH  17  18
ENDBRANCH   1  17
TORSDOF 6
ENDMDL
MODEL 7
REMARK VINA RESULT:      -7.1      2.918      5.990
REMARK  6 active torsions:
REMARK  status: ('A' for Active; 'I' for Inactive)
REMARK    1  A    between atoms: C_4  and  C_5 
REMARK    2  A    between atoms: C_5  and  C_6 
REMARK    3  A    between atoms: C_6  and  C_7 
REMARK    4  A    between atoms: C_7  and  C_8 
REMARK       I    between atoms: C_8  and  N_9 
REMARK    5  A    between atoms: N_9  and  C_10 
REMARK    6  A    between atoms: C_12  and  C_13 
ROOT
HETATM    1  C   UNL     1      -3.576  -1.377 -32.162  1.00  0.00     0.222 C 
HETATM    2  N   UNL     1      -3.519  -0.300 -31.328  1.00  0.00    -0.327 N 
HETATM    3  O   UNL     1      -3.133  -2.444 -31.728  1.00  0.00    -0.273 OA
HETATM    4  H   UNL     1      -3.126  -0.587 -30.438  1.00  0.00     0.169 HD
ENDROOT
BRANCH   2   5
HETATM    5  C   UNL     1      -3.868   1.061 -31.425  1.00  0.00     0.035 A 
HETATM    6  C   UNL     1      -3.404   1.963 -32.384  1.00  0.00     0.042 A 
HETATM    7  C   UNL     1      -3.820   3.309 -32.386  1.00  0.00    -0.021 A 
HETATM    8  C   UNL     1      -4.707   3.749 -31.398  1.00  0.00     0.012 A 
HETATM    9  C   UNL     1      -5.174   2.863 -30.431  1.00  0.00     0.003 A 
HETATM   10  C   UNL     1      -4.755   1.532 -30.446  1.00  0.00     0.029 A 
BRANCH   7  11
HETATM   11  C   UNL     1      -3.329   4.244 -33.386  1.00  0.00     0.010 A 
HETATM   12  C   UNL     1      -2.009   4.643 -33.710  1.00  0.00     0.152 A 
HETATM   13  N   UNL     1      -1.968   5.548 -34.691  1.00  0.00    -0.187 NA
HETATM   14  N   UNL     1      -3.259   5.737 -34.999  1.00  0.00    -0.289 N 
HETATM   15  H   UNL     1      -3.487   6.401 -35.733  1.00  0.00     0.188 HD
HETATM   16  C   UNL     1      -4.114   4.983 -34.247  1.00  0.00     0.123 A 
ENDBRANCH   7  11
ENDBRANCH   2   5
BRANCH   1  17
HETATM   17  C   UNL     1      -4.161  -1.275 -33.553  1.00  0.00     0.103 C 
BRANCH  17  18
HETATM   18  C   UNL     1      -5.675  -1.501 -33.602  1.00  0.00     0.014 C 
BRANCH  18  19
HETATM   19  C   UNL     1      -6.385  -0.546 -34.569  1.00  0.00     0.046 C 
BRANCH  19  20
HETATM   20  C   UNL     1      -6.989   0.617 -33.836  1.00  0.00    -0.017 A 
HETATM   21  S   UNL     1      -7.881   0.368 -32.397  1.00  0.00    -0.100 SA
HETATM   22  C   UNL     1      -8.191   2.040 -32.215  1.00  0.00    -0.021 A 
HETATM   23  C   UNL     1      -8.985   2.530 -31.053  1.00  0.00     0.056 C 
HETATM   24  C   UNL     1      -7.619   2.775 -33.233  1.00  0.00     0.015 A 
HETATM   25  C   UNL     1      -6.928   1.954 -34.168  1.00  0.00     0.015 A 
ENDBRANCH  19  20
ENDBRANCH  18  19
ENDBRANCH  17  18
ENDBRANCH   1  17
TORSDOF 6
ENDMDL
MODEL 8
REMARK VINA RESULT:      -7.1      1.925      2.971
REMARK  6 active torsions:
REMARK  status: ('A' for Active; 'I' for Inactive)
REMARK    1  A    between atoms: C_4  and  C_5 
REMARK    2  A    between atoms: C_5  and  C_6 
REMARK    3  A    between atoms: C_6  and  C_7 
REMARK    4  A    between atoms: C_7  and  C_8 
REMARK       I    between atoms: C_8  and  N_9 
REMARK    5  A    between atoms: N_9  and  C_10 
REMARK    6  A    between atoms: C_12  and  C_13 
ROOT
HETATM    1  C   UNL     1      -2.906   3.585 -31.881  1.00  0.00     0.222 C 
HETATM    2  N   UNL     1      -3.207   2.455 -31.181  1.00  0.00    -0.327 N 
HETATM    3  O   UNL     1      -1.937   4.244 -31.491  1.00  0.00    -0.273 OA
HETATM    4  H   UNL     1      -2.527   2.332 -30.437  1.00  0.00     0.169 HD
ENDROOT
BRANCH   2   5
HETATM    5  C   UNL     1      -4.207   1.467 -31.256  1.00  0.00     0.035 A 
HETATM    6  C   UNL     1      -4.365   0.532 -32.281  1.00  0.00     0.042 A 
HETATM    7  C   UNL     1      -5.408  -0.415 -32.254  1.00  0.00    -0.021 A 
HETATM    8  C   UNL     1      -6.307  -0.407 -31.184  1.00  0.00     0.012 A 
HETATM    9  C   UNL     1      -6.168   0.524 -30.157  1.00  0.00     0.003 A 
HETATM   10  C   UNL     1      -5.126   1.451 -30.197  1.00  0.00     0.029 A 
BRANCH   7  11
HETATM   11  C   UNL     1      -5.568  -1.383 -33.328  1.00  0.00     0.010 A 
HETATM   12  C   UNL     1      -6.729  -1.827 -34.007  1.00  0.00     0.152 A 
HETATM   13  N   UNL     1      -6.465  -2.752 -34.934  1.00  0.00    -0.187 NA
HETATM   14  N   UNL     1      -5.135  -2.908 -34.851  1.00  0.00    -0.289 N 
HETATM   15  H   UNL     1      -4.690  -3.580 -35.470  1.00  0.00     0.188 HD
HETATM   16  C   UNL     1      -4.551  -2.116 -33.905  1.00  0.00     0.123 A 
ENDBRANCH   7  11
ENDBRANCH   2   5
BRANCH   1  17
HETATM   17  C   UNL     1      -3.716   4.014 -33.085  1.00  0.00     0.103 C 
BRANCH  17  18
HETATM   18  C   UNL     1      -5.140   4.459 -32.743  1.00  0.00     0.014 C 
BRANCH  18  19
HETATM   19  C   UNL     1      -6.164   4.028 -33.798  1.00  0.00     0.046 C 
BRANCH  19  20
HETATM   20  C   UNL     1      -7.248   3.186 -33.190  1.00  0.00    -0.017 A 
HETATM   21  S   UNL     1      -7.834   1.801 -34.007  1.00  0.00    -0.100 SA
HETATM   22  C   UNL     1      -8.946   1.446 -32.756  1.00  0.00    -0.021 A 
HETATM   23  C   UNL     1      -9.834   0.254 -32.864  1.00  0.00     0.056 C 
HETATM   24  C   UNL     1      -8.867   2.365 -31.732  1.00  0.00     0.015 A 
HETATM   25  C   UNL     1      -7.890   3.370 -31.983  1.00  0.00     0.015 A 
ENDBRANCH  19  20
ENDBRANCH  18  19
ENDBRANCH  17  18
ENDBRANCH   1  17
TORSDOF 6
ENDMDL
MODEL 9
REMARK VINA RESULT:      -7.1     14.365     16.409
REMARK  6 active torsions:
REMARK  status: ('A' for Active; 'I' for Inactive)
REMARK    1  A    between atoms: C_4  and  C_5 
REMARK    2  A    between atoms: C_5  and  C_6 
REMARK    3  A    between atoms: C_6  and  C_7 
REMARK    4  A    between atoms: C_7  and  C_8 
REMARK       I    between atoms: C_8  and  N_9 
REMARK    5  A    between atoms: N_9  and  C_10 
REMARK    6  A    between atoms: C_12  and  C_13 
ROOT
HETATM    1  C   UNL     1      -4.863 -13.828 -36.313  1.00  0.00     0.222 C 
HETATM    2  N   UNL     1      -5.286 -12.765 -37.053  1.00  0.00    -0.327 N 
HETATM    3  O   UNL     1      -4.290 -13.577 -35.248  1.00  0.00    -0.273 OA
HETATM    4  H   UNL     1      -5.067 -11.906 -36.559  1.00  0.00     0.169 HD
ENDROOT
BRANCH   2   5
HETATM    5  C   UNL     1      -5.928 -12.602 -38.296  1.00  0.00     0.035 A 
HETATM    6  C   UNL     1      -7.292 -12.760 -38.544  1.00  0.00     0.042 A 
HETATM    7  C   UNL     1      -7.828 -12.573 -39.834  1.00  0.00    -0.021 A 
HETATM    8  C   UNL     1      -6.971 -12.232 -40.885  1.00  0.00     0.012 A 
HETATM    9  C   UNL     1      -5.606 -12.078 -40.654  1.00  0.00     0.003 A 
HETATM   10  C   UNL     1      -5.093 -12.262 -39.371  1.00  0.00     0.029 A 
BRANCH   7  11
HETATM   11  C   UNL     1      -9.251 -12.744 -40.086  1.00  0.00     0.010 A 
HETATM   12  C   UNL     1     -10.055 -13.909 -40.094  1.00  0.00     0.152 A 
HETATM   13  N   UNL     1     -11.332 -13.655 -40.390  1.00  0.00    -0.187 NA
HETATM   14  N   UNL     1     -11.353 -12.328 -40.577  1.00  0.00    -0.289 N 
HETATM   15  H   UNL     1     -12.236 -11.890 -40.822  1.00  0.00     0.188 HD
HETATM   16  C   UNL     1     -10.134 -11.734 -40.410  1.00  0.00     0.123 A 
ENDBRANCH   7  11
ENDBRANCH   2   5
BRANCH   1  17
HETATM   17  C   UNL     1      -5.090 -15.254 -36.767  1.00  0.00     0.103 C 
BRANCH  17  18
HETATM   18  C   UNL     1      -3.863 -15.893 -37.423  1.00  0.00     0.014 C 
BRANCH  18  19
HETATM   19  C   UNL     1      -3.727 -15.525 -38.905  1.00  0.00     0.046 C 
BRANCH  19  20
HETATM   20  C   UNL     1      -2.339 -15.046 -39.220  1.00  0.00    -0.017 A 
HETATM   21  S   UNL     1      -1.027 -15.457 -38.201  1.00  0.00    -0.100 SA
HETATM   22  C   UNL     1       0.089 -14.600 -39.174  1.00  0.00    -0.021 A 
HETATM   23  C   UNL     1       1.532 -14.567 -38.802  1.00  0.00     0.056 C 
HETATM   24  C   UNL     1      -0.529 -14.015 -40.259  1.00  0.00     0.015 A 
HETATM   25  C   UNL     1      -1.929 -14.270 -40.284  1.00  0.00     0.015 A 
ENDBRANCH  19  20
ENDBRANCH  18  19
ENDBRANCH  17  18
ENDBRANCH   1  17
TORSDOF 6
ENDMDL
MODEL 10
REMARK VINA RESULT:      -7.0      3.394      6.643
REMARK  6 active torsions:
REMARK  status: ('A' for Active; 'I' for Inactive)
REMARK    1  A    between atoms: C_4  and  C_5 
REMARK    2  A    between atoms: C_5  and  C_6 
REMARK    3  A    between atoms: C_6  and  C_7 
REMARK    4  A    between atoms: C_7  and  C_8 
REMARK       I    between atoms: C_8  and  N_9 
REMARK    5  A    between atoms: N_9  and  C_10 
REMARK    6  A    between atoms: C_12  and  C_13 
ROOT
HETATM    1  C   UNL     1      -9.670   0.427 -32.702  1.00  0.00     0.222 C 
HETATM    2  N   UNL     1      -9.236   0.935 -31.514  1.00  0.00    -0.327 N 
HETATM    3  O   UNL     1     -10.354  -0.600 -32.654  1.00  0.00    -0.273 OA
HETATM    4  H   UNL     1      -9.593   0.364 -30.755  1.00  0.00     0.169 HD
ENDROOT
BRANCH   2   5
HETATM    5  C   UNL     1      -8.436   2.027 -31.125  1.00  0.00     0.035 A 
HETATM    6  C   UNL     1      -7.054   2.136 -31.292  1.00  0.00     0.042 A 
HETATM    7  C   UNL     1      -6.352   3.279 -30.862  1.00  0.00    -0.021 A 
HETATM    8  C   UNL     1      -7.055   4.318 -30.245  1.00  0.00     0.012 A 
HETATM    9  C   UNL     1      -8.433   4.222 -30.065  1.00  0.00     0.003 A 
HETATM   10  C   UNL     1      -9.114   3.085 -30.501  1.00  0.00     0.029 A 
BRANCH   7  11
HETATM   11  C   UNL     1      -4.911   3.383 -31.036  1.00  0.00     0.010 A 
HETATM   12  C   UNL     1      -3.927   2.381 -31.213  1.00  0.00     0.152 A 
HETATM   13  N   UNL     1      -2.693   2.880 -31.321  1.00  0.00    -0.187 NA
HETATM   14  N   UNL     1      -2.879   4.203 -31.211  1.00  0.00    -0.289 N 
HETATM   15  H   UNL     1      -2.066   4.809 -31.259  1.00  0.00     0.188 HD
HETATM   16  C   UNL     1      -4.187   4.557 -31.036  1.00  0.00     0.123 A 
ENDBRANCH   7  11
ENDBRANCH   2   5
BRANCH   1  17
HETATM   17  C   UNL     1      -9.338   1.091 -34.020  1.00  0.00     0.103 C 
BRANCH  17  18
HETATM   18  C   UNL     1      -7.901   0.846 -34.488  1.00  0.00     0.014 C 
BRANCH  18  19
HETATM   19  C   UNL     1      -7.703  -0.553 -35.082  1.00  0.00     0.046 C 
BRANCH  19  20
HETATM   20  C   UNL     1      -6.448  -1.191 -34.560  1.00  0.00    -0.017 A 
HETATM   21  S   UNL     1      -6.132  -2.848 -34.849  1.00  0.00    -0.100 SA
HETATM   22  C   UNL     1      -4.647  -2.785 -34.002  1.00  0.00    -0.021 A 
HETATM   23  C   UNL     1      -3.806  -4.009 -33.881  1.00  0.00     0.056 C 
HETATM   24  C   UNL     1      -4.396  -1.521 -33.512  1.00  0.00     0.015 A 
HETATM   25  C   UNL     1      -5.435  -0.602 -33.832  1.00  0.00     0.015 A 
ENDBRANCH  19  20
ENDBRANCH  18  19
ENDBRANCH  17  18
ENDBRANCH   1  17
TORSDOF 6
ENDMDL
