MODEL 1
REMARK VINA RESULT:      -8.9      0.000      0.000
REMARK  5 active torsions:
REMARK  status: ('A' for Active; 'I' for Inactive)
REMARK    1  A    between atoms: C_2  and  C_3 
REMARK       I    between atoms: C_3  and  N_4 
REMARK    2  A    between atoms: N_4  and  N_5 
REMARK       I    between atoms: N_5  and  C_6 
REMARK       I    between atoms: C_6  and  N_7 
REMARK    3  A    between atoms: N_7  and  C_8 
REMARK    4  A    between atoms: C_18  and  N_19 
REMARK       I    between atoms: N_19  and  C_20 
REMARK       I    between atoms: C_20  and  N_21 
REMARK    5  A    between atoms: N_21  and  C_22 
ROOT
HETATM    1  C   UNL     1      -6.579   2.372 -32.976  1.00  0.00     0.019 A 
HETATM    2  C   UNL     1      -6.680   1.046 -32.542  1.00  0.00     0.033 A 
HETATM    3  C   UNL     1      -5.712   0.537 -31.670  1.00  0.00     0.019 A 
HETATM    4  C   UNL     1      -4.664   1.358 -31.226  1.00  0.00     0.030 A 
HETATM    5  C   UNL     1      -4.581   2.691 -31.636  1.00  0.00     0.036 A 
HETATM    6  C   UNL     1      -5.538   3.186 -32.527  1.00  0.00     0.030 A 
ENDROOT
BRANCH   2   7
HETATM    7  C   UNL     1      -7.866   0.261 -32.982  1.00  0.00     0.270 C 
HETATM    8  N   UNL     1      -9.084   0.564 -32.395  1.00  0.00    -0.262 N 
HETATM    9  H   UNL     1      -9.100   0.974 -31.465  1.00  0.00     0.190 HD
HETATM   10  O   UNL     1      -7.736  -0.637 -33.811  1.00  0.00    -0.266 OA
BRANCH   8  11
HETATM   11  N   UNL     1     -10.125  -0.337 -32.683  1.00  0.00    -0.249 N 
HETATM   12  C   UNL     1     -11.386   0.048 -33.059  1.00  0.00     0.335 C 
HETATM   13  N   UNL     1     -11.480   1.371 -33.388  1.00  0.00    -0.337 N 
HETATM   14  O   UNL     1     -12.304  -0.759 -33.068  1.00  0.00    -0.246 OA
HETATM   15  H   UNL     1     -10.601   1.725 -33.737  1.00  0.00     0.164 HD
HETATM   16  H   UNL     1      -9.972  -1.313 -32.435  1.00  0.00     0.192 HD
BRANCH  13  17
HETATM   17  C   UNL     1     -12.677   2.064 -33.866  1.00  0.00     0.086 C 
HETATM   18  C   UNL     1     -12.964   3.377 -33.125  1.00  0.00     0.025 C 
HETATM   19  C   UNL     1     -12.355   4.618 -33.765  1.00  0.00     0.002 C 
HETATM   20  C   UNL     1     -12.679   4.705 -35.251  1.00  0.00     0.000 C 
HETATM   21  C   UNL     1     -12.229   3.461 -36.005  1.00  0.00     0.002 C 
HETATM   22  C   UNL     1     -12.782   2.175 -35.395  1.00  0.00     0.025 C 
ENDBRANCH  13  17
ENDBRANCH   8  11
ENDBRANCH   2   7
BRANCH   5  23
HETATM   23  N   UNL     1      -3.633   3.610 -31.146  1.00  0.00    -0.309 N 
HETATM   24  C   UNL     1      -2.508   4.088 -31.786  1.00  0.00     0.321 C 
HETATM   25  N   UNL     1      -1.659   4.684 -30.873  1.00  0.00    -0.338 N 
HETATM   26  O   UNL     1      -2.251   3.971 -32.974  1.00  0.00    -0.247 OA
HETATM   27  H   UNL     1      -2.111   5.072 -30.061  1.00  0.00     0.164 HD
HETATM   28  H   UNL     1      -3.778   3.934 -30.204  1.00  0.00     0.170 HD
BRANCH  25  29
HETATM   29  C   UNL     1      -0.374   5.293 -31.223  1.00  0.00     0.086 C 
HETATM   30  C   UNL     1      -0.570   6.811 -31.396  1.00  0.00     0.025 C 
HETATM   31  C   UNL     1      -0.857   7.511 -30.065  1.00  0.00     0.002 C 
HETATM   32  C   UNL     1       0.222   7.220 -29.025  1.00  0.00     0.000 C 
HETATM   33  C   UNL     1       0.464   5.722 -28.856  1.00  0.00     0.002 C 
HETATM   34  C   UNL     1       0.744   5.047 -30.196  1.00  0.00     0.025 C 
ENDBRANCH  25  29
ENDBRANCH   5  23
TORSDOF 5
ENDMDL
MODEL 2
REMARK VINA RESULT:      -8.6      4.703      6.967
REMARK  5 active torsions:
REMARK  status: ('A' for Active; 'I' for Inactive)
REMARK    1  A    between atoms: C_2  and  C_3 
REMARK       I    between atoms: C_3  and  N_4 
REMARK    2  A    between atoms: N_4  and  N_5 
REMARK       I    between atoms: N_5  and  C_6 
REMARK       I    between atoms: C_6  and  N_7 
REMARK    3  A    between atoms: N_7  and  C_8 
REMARK    4  A    between atoms: C_18  and  N_19 
REMARK       I    between atoms: N_19  and  C_20 
REMARK       I    between atoms: C_20  and  N_21 
REMARK    5  A    between atoms: N_21  and  C_22 
ROOT
HETATM    1  C   UNL     1      -8.866   1.530 -31.303  1.00  0.00     0.019 A 
HETATM    2  C   UNL     1      -8.396   2.597 -30.531  1.00  0.00     0.033 A 
HETATM    3  C   UNL     1      -7.073   2.581 -30.078  1.00  0.00     0.019 A 
HETATM    4  C   UNL     1      -6.227   1.512 -30.413  1.00  0.00     0.030 A 
HETATM    5  C   UNL     1      -6.688   0.462 -31.210  1.00  0.00     0.036 A 
HETATM    6  C   UNL     1      -8.020   0.472 -31.640  1.00  0.00     0.030 A 
ENDROOT
BRANCH   2   7
HETATM    7  C   UNL     1      -9.320   3.738 -30.289  1.00  0.00     0.270 C 
HETATM    8  N   UNL     1     -10.660   3.443 -30.091  1.00  0.00    -0.262 N 
HETATM    9  H   UNL     1     -11.046   2.591 -30.490  1.00  0.00     0.190 HD
HETATM   10  O   UNL     1      -8.892   4.890 -30.301  1.00  0.00    -0.266 OA
BRANCH   8  11
HETATM   11  N   UNL     1     -11.520   4.555 -30.078  1.00  0.00    -0.249 N 
HETATM   12  C   UNL     1     -12.491   4.781 -31.019  1.00  0.00     0.335 C 
HETATM   13  N   UNL     1     -12.734   3.703 -31.825  1.00  0.00    -0.337 N 
HETATM   14  O   UNL     1     -13.044   5.868 -31.092  1.00  0.00    -0.246 OA
HETATM   15  H   UNL     1     -12.531   2.836 -31.348  1.00  0.00     0.164 HD
HETATM   16  H   UNL     1     -11.291   5.308 -29.430  1.00  0.00     0.192 HD
BRANCH  13  17
HETATM   17  C   UNL     1     -13.736   3.623 -32.888  1.00  0.00     0.086 C 
HETATM   18  C   UNL     1     -13.276   2.811 -34.106  1.00  0.00     0.025 C 
HETATM   19  C   UNL     1     -13.640   1.332 -34.063  1.00  0.00     0.002 C 
HETATM   20  C   UNL     1     -15.114   1.121 -33.745  1.00  0.00     0.000 C 
HETATM   21  C   UNL     1     -15.516   1.791 -32.438  1.00  0.00     0.002 C 
HETATM   22  C   UNL     1     -15.152   3.273 -32.404  1.00  0.00     0.025 C 
ENDBRANCH  13  17
ENDBRANCH   8  11
ENDBRANCH   2   7
BRANCH   5  23
HETATM   23  N   UNL     1      -5.874  -0.582 -31.688  1.00  0.00    -0.309 N 
HETATM   24  C   UNL     1      -5.380  -0.755 -32.965  1.00  0.00     0.321 C 
HETATM   25  N   UNL     1      -4.929  -2.050 -33.129  1.00  0.00    -0.338 N 
HETATM   26  O   UNL     1      -5.378   0.082 -33.855  1.00  0.00    -0.247 OA
HETATM   27  H   UNL     1      -4.612  -2.501 -32.286  1.00  0.00     0.164 HD
HETATM   28  H   UNL     1      -5.649  -1.306 -31.025  1.00  0.00     0.170 HD
BRANCH  25  29
HETATM   29  C   UNL     1      -4.345  -2.565 -34.370  1.00  0.00     0.086 C 
HETATM   30  C   UNL     1      -3.562  -3.854 -34.058  1.00  0.00     0.025 C 
HETATM   31  C   UNL     1      -4.490  -5.014 -33.683  1.00  0.00     0.002 C 
HETATM   32  C   UNL     1      -5.545  -5.268 -34.756  1.00  0.00     0.000 C 
HETATM   33  C   UNL     1      -6.315  -3.999 -35.113  1.00  0.00     0.002 C 
HETATM   34  C   UNL     1      -5.370  -2.857 -35.479  1.00  0.00     0.025 C 
ENDBRANCH  25  29
ENDBRANCH   5  23
TORSDOF 5
ENDMDL
MODEL 3
REMARK VINA RESULT:      -8.5      6.846     15.196
REMARK  5 active torsions:
REMARK  status: ('A' for Active; 'I' for Inactive)
REMARK    1  A    between atoms: C_2  and  C_3 
REMARK       I    between atoms: C_3  and  N_4 
REMARK    2  A    between atoms: N_4  and  N_5 
REMARK       I    between atoms: N_5  and  C_6 
REMARK       I    between atoms: C_6  and  N_7 
REMARK    3  A    between atoms: N_7  and  C_8 
REMARK    4  A    between atoms: C_18  and  N_19 
REMARK       I    between atoms: N_19  and  C_20 
REMARK       I    between atoms: C_20  and  N_21 
REMARK    5  A    between atoms: N_21  and  C_22 
ROOT
HETATM    1  C   UNL     1       0.433   7.128 -26.191  1.00  0.00     0.019 A 
HETATM    2  C   UNL     1       1.315   8.152 -26.551  1.00  0.00     0.033 A 
HETATM    3  C   UNL     1       1.475   8.471 -27.903  1.00  0.00     0.019 A 
HETATM    4  C   UNL     1       0.743   7.780 -28.881  1.00  0.00     0.030 A 
HETATM    5  C   UNL     1      -0.160   6.778 -28.518  1.00  0.00     0.036 A 
HETATM    6  C   UNL     1      -0.297   6.448 -27.166  1.00  0.00     0.030 A 
ENDROOT
BRANCH   2   7
HETATM    7  C   UNL     1       1.991   8.902 -25.457  1.00  0.00     0.270 C 
HETATM    8  N   UNL     1       2.648   8.162 -24.487  1.00  0.00    -0.262 N 
HETATM    9  H   UNL     1       2.345   7.210 -24.298  1.00  0.00     0.190 HD
HETATM   10  O   UNL     1       1.926  10.130 -25.421  1.00  0.00    -0.266 OA
BRANCH   8  11
HETATM   11  N   UNL     1       3.085   8.896 -23.371  1.00  0.00    -0.249 N 
HETATM   12  C   UNL     1       4.178   8.559 -22.615  1.00  0.00     0.335 C 
HETATM   13  N   UNL     1       4.966   7.600 -23.188  1.00  0.00    -0.337 N 
HETATM   14  O   UNL     1       4.371   9.090 -21.532  1.00  0.00    -0.246 OA
HETATM   15  H   UNL     1       4.902   7.628 -24.196  1.00  0.00     0.164 HD
HETATM   16  H   UNL     1       2.456   9.614 -23.016  1.00  0.00     0.192 HD
BRANCH  13  17
HETATM   17  C   UNL     1       6.216   7.067 -22.647  1.00  0.00     0.086 C 
HETATM   18  C   UNL     1       7.413   8.012 -22.819  1.00  0.00     0.025 C 
HETATM   19  C   UNL     1       7.657   8.954 -21.647  1.00  0.00     0.002 C 
HETATM   20  C   UNL     1       7.690   8.209 -20.319  1.00  0.00     0.000 C 
HETATM   21  C   UNL     1       6.415   7.410 -20.084  1.00  0.00     0.002 C 
HETATM   22  C   UNL     1       6.095   6.464 -21.238  1.00  0.00     0.025 C 
ENDBRANCH  13  17
ENDBRANCH   8  11
ENDBRANCH   2   7
BRANCH   5  23
HETATM   23  N   UNL     1      -1.016   6.122 -29.423  1.00  0.00    -0.309 N 
HETATM   24  C   UNL     1      -0.666   5.358 -30.518  1.00  0.00     0.321 C 
HETATM   25  N   UNL     1      -1.760   5.182 -31.343  1.00  0.00    -0.338 N 
HETATM   26  O   UNL     1       0.451   4.932 -30.771  1.00  0.00    -0.247 OA
HETATM   27  H   UNL     1      -2.653   5.210 -30.879  1.00  0.00     0.164 HD
HETATM   28  H   UNL     1      -2.003   6.249 -29.270  1.00  0.00     0.170 HD
BRANCH  25  29
HETATM   29  C   UNL     1      -1.729   4.420 -32.594  1.00  0.00     0.086 C 
HETATM   30  C   UNL     1      -3.010   3.571 -32.694  1.00  0.00     0.025 C 
HETATM   31  C   UNL     1      -4.256   4.432 -32.922  1.00  0.00     0.002 C 
HETATM   32  C   UNL     1      -4.108   5.334 -34.144  1.00  0.00     0.000 C 
HETATM   33  C   UNL     1      -2.828   6.164 -34.091  1.00  0.00     0.002 C 
HETATM   34  C   UNL     1      -1.602   5.285 -33.860  1.00  0.00     0.025 C 
ENDBRANCH  25  29
ENDBRANCH   5  23
TORSDOF 5
ENDMDL
MODEL 4
REMARK VINA RESULT:      -8.4      4.550     11.094
REMARK  5 active torsions:
REMARK  status: ('A' for Active; 'I' for Inactive)
REMARK    1  A    between atoms: C_2  and  C_3 
REMARK       I    between atoms: C_3  and  N_4 
REMARK    2  A    between atoms: N_4  and  N_5 
REMARK       I    between atoms: N_5  and  C_6 
REMARK       I    between atoms: C_6  and  N_7 
REMARK    3  A    between atoms: N_7  and  C_8 
REMARK    4  A    between atoms: C_18  and  N_19 
REMARK       I    between atoms: N_19  and  C_20 
REMARK       I    between atoms: C_20  and  N_21 
REMARK    5  A    between atoms: N_21  and  C_22 
ROOT
HETATM    1  C   UNL     1      -2.420   5.913 -32.425  1.00  0.00     0.019 A 
HETATM    2  C   UNL     1      -3.277   6.991 -32.177  1.00  0.00     0.033 A 
HETATM    3  C   UNL     1      -4.654   6.821 -32.349  1.00  0.00     0.019 A 
HETATM    4  C   UNL     1      -5.166   5.576 -32.748  1.00  0.00     0.030 A 
HETATM    5  C   UNL     1      -4.312   4.493 -32.966  1.00  0.00     0.036 A 
HETATM    6  C   UNL     1      -2.933   4.676 -32.816  1.00  0.00     0.030 A 
ENDROOT
BRANCH   2   7
HETATM    7  C   UNL     1      -2.674   8.254 -31.670  1.00  0.00     0.270 C 
HETATM    8  N   UNL     1      -3.112   8.722 -30.442  1.00  0.00    -0.262 N 
HETATM    9  H   UNL     1      -4.043   8.473 -30.118  1.00  0.00     0.190 HD
HETATM   10  O   UNL     1      -1.844   8.855 -32.350  1.00  0.00    -0.266 OA
BRANCH   8  11
HETATM   11  N   UNL     1      -2.675  10.015 -30.106  1.00  0.00    -0.249 N 
HETATM   12  C   UNL     1      -2.010  10.319 -28.946  1.00  0.00     0.335 C 
HETATM   13  N   UNL     1      -1.572   9.221 -28.261  1.00  0.00    -0.337 N 
HETATM   14  O   UNL     1      -1.864  11.483 -28.601  1.00  0.00    -0.246 OA
HETATM   15  H   UNL     1      -1.394   8.446 -28.885  1.00  0.00     0.164 HD
HETATM   16  H   UNL     1      -3.021  10.783 -30.679  1.00  0.00     0.192 HD
BRANCH  13  17
HETATM   17  C   UNL     1      -0.799   9.224 -27.018  1.00  0.00     0.086 C 
HETATM   18  C   UNL     1      -0.885   7.905 -26.238  1.00  0.00     0.025 C 
HETATM   19  C   UNL     1       0.210   6.897 -26.565  1.00  0.00     0.002 C 
HETATM   20  C   UNL     1       1.596   7.525 -26.497  1.00  0.00     0.000 C 
HETATM   21  C   UNL     1       1.717   8.736 -27.413  1.00  0.00     0.002 C 
HETATM   22  C   UNL     1       0.628   9.775 -27.157  1.00  0.00     0.025 C 
ENDBRANCH  13  17
ENDBRANCH   8  11
ENDBRANCH   2   7
BRANCH   5  23
HETATM   23  N   UNL     1      -4.752   3.186 -33.252  1.00  0.00    -0.309 N 
HETATM   24  C   UNL     1      -5.157   2.215 -32.359  1.00  0.00     0.321 C 
HETATM   25  N   UNL     1      -5.177   0.980 -32.977  1.00  0.00    -0.338 N 
HETATM   26  O   UNL     1      -5.415   2.386 -31.177  1.00  0.00    -0.247 OA
HETATM   27  H   UNL     1      -5.342   1.003 -33.970  1.00  0.00     0.164 HD
HETATM   28  H   UNL     1      -4.744   2.919 -34.222  1.00  0.00     0.170 HD
BRANCH  25  29
HETATM   29  C   UNL     1      -5.559  -0.267 -32.309  1.00  0.00     0.086 C 
HETATM   30  C   UNL     1      -6.914  -0.738 -32.868  1.00  0.00     0.025 C 
HETATM   31  C   UNL     1      -6.804  -1.221 -34.317  1.00  0.00     0.002 C 
HETATM   32  C   UNL     1      -5.745  -2.309 -34.474  1.00  0.00     0.000 C 
HETATM   33  C   UNL     1      -4.397  -1.884 -33.898  1.00  0.00     0.002 C 
HETATM   34  C   UNL     1      -4.534  -1.404 -32.455  1.00  0.00     0.025 C 
ENDBRANCH  25  29
ENDBRANCH   5  23
TORSDOF 5
ENDMDL
MODEL 5
REMARK VINA RESULT:      -8.4      4.349     10.266
REMARK  5 active torsions:
REMARK  status: ('A' for Active; 'I' for Inactive)
REMARK    1  A    between atoms: C_2  and  C_3 
REMARK       I    between atoms: C_3  and  N_4 
REMARK    2  A    between atoms: N_4  and  N_5 
REMARK       I    between atoms: N_5  and  C_6 
REMARK       I    between atoms: C_6  and  N_7 
REMARK    3  A    between atoms: N_7  and  C_8 
REMARK    4  A    between atoms: C_18  and  N_19 
REMARK       I    between atoms: N_19  and  C_20 
REMARK       I    between atoms: C_20  and  N_21 
REMARK    5  A    between atoms: N_21  and  C_22 
ROOT
HETATM    1  C   UNL     1      -4.940   3.302 -30.375  1.00  0.00     0.019 A 
HETATM    2  C   UNL     1      -6.168   3.723 -29.855  1.00  0.00     0.033 A 
HETATM    3  C   UNL     1      -7.307   2.942 -30.076  1.00  0.00     0.019 A 
HETATM    4  C   UNL     1      -7.209   1.742 -30.798  1.00  0.00     0.030 A 
HETATM    5  C   UNL     1      -5.977   1.308 -31.292  1.00  0.00     0.036 A 
HETATM    6  C   UNL     1      -4.846   2.105 -31.088  1.00  0.00     0.030 A 
ENDROOT
BRANCH   2   7
HETATM    7  C   UNL     1      -6.183   4.957 -29.024  1.00  0.00     0.270 C 
HETATM    8  N   UNL     1      -5.202   5.084 -28.052  1.00  0.00    -0.262 N 
HETATM    9  H   UNL     1      -4.783   4.246 -27.657  1.00  0.00     0.190 HD
HETATM   10  O   UNL     1      -7.060   5.802 -29.192  1.00  0.00    -0.266 OA
BRANCH   8  11
HETATM   11  N   UNL     1      -5.381   6.155 -27.160  1.00  0.00    -0.249 N 
HETATM   12  C   UNL     1      -4.350   6.863 -26.599  1.00  0.00     0.335 C 
HETATM   13  N   UNL     1      -3.136   6.616 -27.178  1.00  0.00    -0.337 N 
HETATM   14  O   UNL     1      -4.554   7.619 -25.661  1.00  0.00    -0.246 OA
HETATM   15  H   UNL     1      -3.241   6.347 -28.146  1.00  0.00     0.164 HD
HETATM   16  H   UNL     1      -6.320   6.296 -26.790  1.00  0.00     0.192 HD
BRANCH  13  17
HETATM   17  C   UNL     1      -1.863   7.246 -26.829  1.00  0.00     0.086 C 
HETATM   18  C   UNL     1      -0.689   6.261 -26.757  1.00  0.00     0.025 C 
HETATM   19  C   UNL     1       0.090   6.100 -28.056  1.00  0.00     0.002 C 
HETATM   20  C   UNL     1       0.494   7.445 -28.645  1.00  0.00     0.000 C 
HETATM   21  C   UNL     1      -0.709   8.351 -28.872  1.00  0.00     0.002 C 
HETATM   22  C   UNL     1      -1.553   8.531 -27.612  1.00  0.00     0.025 C 
ENDBRANCH  13  17
ENDBRANCH   8  11
ENDBRANCH   2   7
BRANCH   5  23
HETATM   23  N   UNL     1      -5.773   0.064 -31.920  1.00  0.00    -0.309 N 
HETATM   24  C   UNL     1      -5.710  -0.200 -33.273  1.00  0.00     0.321 C 
HETATM   25  N   UNL     1      -5.850  -1.556 -33.499  1.00  0.00    -0.338 N 
HETATM   26  O   UNL     1      -5.601   0.628 -34.165  1.00  0.00    -0.247 OA
HETATM   27  H   UNL     1      -5.538  -2.148 -32.746  1.00  0.00     0.164 HD
HETATM   28  H   UNL     1      -5.691  -0.732 -31.310  1.00  0.00     0.170 HD
BRANCH  25  29
HETATM   29  C   UNL     1      -5.831  -2.173 -34.828  1.00  0.00     0.086 C 
HETATM   30  C   UNL     1      -4.418  -2.717 -35.107  1.00  0.00     0.025 C 
HETATM   31  C   UNL     1      -4.083  -3.928 -34.232  1.00  0.00     0.002 C 
HETATM   32  C   UNL     1      -5.126  -5.034 -34.369  1.00  0.00     0.000 C 
HETATM   33  C   UNL     1      -6.542  -4.518 -34.132  1.00  0.00     0.002 C 
HETATM   34  C   UNL     1      -6.851  -3.310 -35.012  1.00  0.00     0.025 C 
ENDBRANCH  25  29
ENDBRANCH   5  23
TORSDOF 5
ENDMDL
MODEL 6
REMARK VINA RESULT:      -8.3      3.783     11.212
REMARK  5 active torsions:
REMARK  status: ('A' for Active; 'I' for Inactive)
REMARK    1  A    between atoms: C_2  and  C_3 
REMARK       I    between atoms: C_3  and  N_4 
REMARK    2  A    between atoms: N_4  and  N_5 
REMARK       I    between atoms: N_5  and  C_6 
REMARK       I    between atoms: C_6  and  N_7 
REMARK    3  A    between atoms: N_7  and  C_8 
REMARK    4  A    between atoms: C_18  and  N_19 
REMARK       I    between atoms: N_19  and  C_20 
REMARK       I    between atoms: C_20  and  N_21 
REMARK    5  A    between atoms: N_21  and  C_22 
ROOT
HETATM    1  C   UNL     1      -6.638   4.448 -29.073  1.00  0.00     0.019 A 
HETATM    2  C   UNL     1      -6.904   5.730 -28.579  1.00  0.00     0.033 A 
HETATM    3  C   UNL     1      -8.119   6.345 -28.897  1.00  0.00     0.019 A 
HETATM    4  C   UNL     1      -9.064   5.672 -29.687  1.00  0.00     0.030 A 
HETATM    5  C   UNL     1      -8.810   4.380 -30.154  1.00  0.00     0.036 A 
HETATM    6  C   UNL     1      -7.583   3.780 -29.853  1.00  0.00     0.030 A 
ENDROOT
BRANCH   2   7
HETATM    7  C   UNL     1      -5.896   6.347 -27.675  1.00  0.00     0.270 C 
HETATM    8  N   UNL     1      -4.709   5.659 -27.478  1.00  0.00    -0.262 N 
HETATM    9  H   UNL     1      -4.696   4.649 -27.590  1.00  0.00     0.190 HD
HETATM   10  O   UNL     1      -6.144   7.412 -27.112  1.00  0.00    -0.266 OA
BRANCH   8  11
HETATM   11  N   UNL     1      -3.885   6.171 -26.461  1.00  0.00    -0.249 N 
HETATM   12  C   UNL     1      -2.595   6.591 -26.662  1.00  0.00     0.335 C 
HETATM   13  N   UNL     1      -2.259   6.720 -27.981  1.00  0.00    -0.337 N 
HETATM   14  O   UNL     1      -1.856   6.803 -25.712  1.00  0.00    -0.246 OA
HETATM   15  H   UNL     1      -3.070   6.933 -28.546  1.00  0.00     0.164 HD
HETATM   16  H   UNL     1      -4.213   6.064 -25.503  1.00  0.00     0.192 HD
BRANCH  13  17
HETATM   17  C   UNL     1      -0.978   7.187 -28.509  1.00  0.00     0.086 C 
HETATM   18  C   UNL     1       0.112   6.106 -28.522  1.00  0.00     0.025 C 
HETATM   19  C   UNL     1       0.208   5.312 -29.819  1.00  0.00     0.002 C 
HETATM   20  C   UNL     1       0.277   6.223 -31.037  1.00  0.00     0.000 C 
HETATM   21  C   UNL     1      -0.908   7.176 -31.102  1.00  0.00     0.002 C 
HETATM   22  C   UNL     1      -1.081   7.985 -29.818  1.00  0.00     0.025 C 
ENDBRANCH  13  17
ENDBRANCH   8  11
ENDBRANCH   2   7
BRANCH   5  23
HETATM   23  N   UNL     1      -9.749   3.594 -30.849  1.00  0.00    -0.309 N 
HETATM   24  C   UNL     1     -10.045   3.623 -32.196  1.00  0.00     0.321 C 
HETATM   25  N   UNL     1     -11.240   2.972 -32.435  1.00  0.00    -0.338 N 
HETATM   26  O   UNL     1      -9.391   4.179 -33.066  1.00  0.00    -0.247 OA
HETATM   27  H   UNL     1     -11.468   2.246 -31.774  1.00  0.00     0.164 HD
HETATM   28  H   UNL     1     -10.290   2.955 -30.291  1.00  0.00     0.170 HD
BRANCH  25  29
HETATM   29  C   UNL     1     -11.843   2.822 -33.761  1.00  0.00     0.086 C 
HETATM   30  C   UNL     1     -11.419   1.466 -34.354  1.00  0.00     0.025 C 
HETATM   31  C   UNL     1     -12.066   0.288 -33.618  1.00  0.00     0.002 C 
HETATM   32  C   UNL     1     -13.586   0.409 -33.577  1.00  0.00     0.000 C 
HETATM   33  C   UNL     1     -14.038   1.758 -33.026  1.00  0.00     0.002 C 
HETATM   34  C   UNL     1     -13.378   2.916 -33.772  1.00  0.00     0.025 C 
ENDBRANCH  25  29
ENDBRANCH   5  23
TORSDOF 5
ENDMDL
MODEL 7
REMARK VINA RESULT:      -8.2      6.510     14.981
REMARK  5 active torsions:
REMARK  status: ('A' for Active; 'I' for Inactive)
REMARK    1  A    between atoms: C_2  and  C_3 
REMARK       I    between atoms: C_3  and  N_4 
REMARK    2  A    between atoms: N_4  and  N_5 
REMARK       I    between atoms: N_5  and  C_6 
REMARK       I    between atoms: C_6  and  N_7 
REMARK    3  A    between atoms: N_7  and  C_8 
REMARK    4  A    between atoms: C_18  and  N_19 
REMARK       I    between atoms: N_19  and  C_20 
REMARK       I    between atoms: C_20  and  N_21 
REMARK    5  A    between atoms: N_21  and  C_22 
ROOT
HETATM    1  C   UNL     1       0.650   7.097 -26.312  1.00  0.00     0.019 A 
HETATM    2  C   UNL     1       1.356   8.226 -26.742  1.00  0.00     0.033 A 
HETATM    3  C   UNL     1       1.492   8.465 -28.113  1.00  0.00     0.019 A 
HETATM    4  C   UNL     1       0.909   7.588 -29.042  1.00  0.00     0.030 A 
HETATM    5  C   UNL     1       0.178   6.478 -28.611  1.00  0.00     0.036 A 
HETATM    6  C   UNL     1       0.067   6.232 -27.239  1.00  0.00     0.030 A 
ENDROOT
BRANCH   2   7
HETATM    7  C   UNL     1       1.870   9.160 -25.703  1.00  0.00     0.270 C 
HETATM    8  N   UNL     1       2.706   8.634 -24.730  1.00  0.00    -0.262 N 
HETATM    9  H   UNL     1       2.635   7.648 -24.494  1.00  0.00     0.190 HD
HETATM   10  O   UNL     1       1.526  10.340 -25.711  1.00  0.00    -0.266 OA
BRANCH   8  11
HETATM   11  N   UNL     1       2.992   9.498 -23.660  1.00  0.00    -0.249 N 
HETATM   12  C   UNL     1       3.847   9.187 -22.633  1.00  0.00     0.335 C 
HETATM   13  N   UNL     1       4.603   8.073 -22.869  1.00  0.00    -0.337 N 
HETATM   14  O   UNL     1       3.876   9.871 -21.621  1.00  0.00    -0.246 OA
HETATM   15  H   UNL     1       4.756   7.937 -23.858  1.00  0.00     0.164 HD
HETATM   16  H   UNL     1       2.404  10.325 -23.564  1.00  0.00     0.192 HD
BRANCH  13  17
HETATM   17  C   UNL     1       5.628   7.517 -21.986  1.00  0.00     0.086 C 
HETATM   18  C   UNL     1       5.684   5.984 -21.996  1.00  0.00     0.025 C 
HETATM   19  C   UNL     1       6.655   5.386 -23.007  1.00  0.00     0.002 C 
HETATM   20  C   UNL     1       8.037   6.018 -22.905  1.00  0.00     0.000 C 
HETATM   21  C   UNL     1       7.985   7.530 -23.070  1.00  0.00     0.002 C 
HETATM   22  C   UNL     1       7.004   8.192 -22.105  1.00  0.00     0.025 C 
ENDBRANCH  13  17
ENDBRANCH   8  11
ENDBRANCH   2   7
BRANCH   5  23
HETATM   23  N   UNL     1      -0.534   5.621 -29.471  1.00  0.00    -0.309 N 
HETATM   24  C   UNL     1      -1.485   5.963 -30.411  1.00  0.00     0.321 C 
HETATM   25  N   UNL     1      -2.195   4.843 -30.798  1.00  0.00    -0.338 N 
HETATM   26  O   UNL     1      -1.721   7.090 -30.819  1.00  0.00    -0.247 OA
HETATM   27  H   UNL     1      -1.691   3.974 -30.727  1.00  0.00     0.164 HD
HETATM   28  H   UNL     1      -0.348   4.637 -29.369  1.00  0.00     0.170 HD
BRANCH  25  29
HETATM   29  C   UNL     1      -3.280   4.858 -31.781  1.00  0.00     0.086 C 
HETATM   30  C   UNL     1      -3.101   3.668 -32.743  1.00  0.00     0.025 C 
HETATM   31  C   UNL     1      -3.367   2.326 -32.054  1.00  0.00     0.002 C 
HETATM   32  C   UNL     1      -4.744   2.288 -31.396  1.00  0.00     0.000 C 
HETATM   33  C   UNL     1      -4.965   3.475 -30.463  1.00  0.00     0.002 C 
HETATM   34  C   UNL     1      -4.690   4.800 -31.170  1.00  0.00     0.025 C 
ENDBRANCH  25  29
ENDBRANCH   5  23
TORSDOF 5
ENDMDL
MODEL 8
REMARK VINA RESULT:      -8.1      1.910     10.903
REMARK  5 active torsions:
REMARK  status: ('A' for Active; 'I' for Inactive)
REMARK    1  A    between atoms: C_2  and  C_3 
REMARK       I    between atoms: C_3  and  N_4 
REMARK    2  A    between atoms: N_4  and  N_5 
REMARK       I    between atoms: N_5  and  C_6 
REMARK       I    between atoms: C_6  and  N_7 
REMARK    3  A    between atoms: N_7  and  C_8 
REMARK    4  A    between atoms: C_18  and  N_19 
REMARK       I    between atoms: N_19  and  C_20 
REMARK       I    between atoms: C_20  and  N_21 
REMARK    5  A    between atoms: N_21  and  C_22 
ROOT
HETATM    1  C   UNL     1      -6.073   3.390 -31.090  1.00  0.00     0.019 A 
HETATM    2  C   UNL     1      -5.233   2.283 -31.247  1.00  0.00     0.033 A 
HETATM    3  C   UNL     1      -5.795   1.031 -31.513  1.00  0.00     0.019 A 
HETATM    4  C   UNL     1      -7.187   0.896 -31.640  1.00  0.00     0.030 A 
HETATM    5  C   UNL     1      -8.023   2.008 -31.513  1.00  0.00     0.036 A 
HETATM    6  C   UNL     1      -7.456   3.253 -31.222  1.00  0.00     0.030 A 
ENDROOT
BRANCH   2   7
HETATM    7  C   UNL     1      -3.763   2.515 -31.189  1.00  0.00     0.270 C 
HETATM    8  N   UNL     1      -3.327   3.829 -31.124  1.00  0.00    -0.262 N 
HETATM    9  H   UNL     1      -3.913   4.567 -31.506  1.00  0.00     0.190 HD
HETATM   10  O   UNL     1      -2.988   1.562 -31.230  1.00  0.00    -0.266 OA
BRANCH   8  11
HETATM   11  N   UNL     1      -1.942   4.005 -31.284  1.00  0.00    -0.249 N 
HETATM   12  C   UNL     1      -1.256   5.109 -30.846  1.00  0.00     0.335 C 
HETATM   13  N   UNL     1      -1.982   5.907 -30.007  1.00  0.00    -0.337 N 
HETATM   14  O   UNL     1      -0.110   5.315 -31.216  1.00  0.00    -0.246 OA
HETATM   15  H   UNL     1      -2.673   5.372 -29.500  1.00  0.00     0.164 HD
HETATM   16  H   UNL     1      -1.462   3.354 -31.905  1.00  0.00     0.192 HD
BRANCH  13  17
HETATM   17  C   UNL     1      -1.513   7.125 -29.346  1.00  0.00     0.086 C 
HETATM   18  C   UNL     1      -2.180   7.385 -27.989  1.00  0.00     0.025 C 
HETATM   19  C   UNL     1      -1.438   6.807 -26.790  1.00  0.00     0.002 C 
HETATM   20  C   UNL     1       0.035   7.193 -26.798  1.00  0.00     0.000 C 
HETATM   21  C   UNL     1       0.728   6.772 -28.087  1.00  0.00     0.002 C 
HETATM   22  C   UNL     1       0.015   7.295 -29.332  1.00  0.00     0.025 C 
ENDBRANCH  13  17
ENDBRANCH   8  11
ENDBRANCH   2   7
BRANCH   5  23
HETATM   23  N   UNL     1      -9.412   1.980 -31.742  1.00  0.00    -0.309 N 
HETATM   24  C   UNL     1     -10.089   2.348 -32.887  1.00  0.00     0.321 C 
HETATM   25  N   UNL     1     -11.433   2.512 -32.612  1.00  0.00    -0.338 N 
HETATM   26  O   UNL     1      -9.591   2.555 -33.983  1.00  0.00    -0.247 OA
HETATM   27  H   UNL     1     -11.783   1.957 -31.848  1.00  0.00     0.164 HD
HETATM   28  H   UNL     1      -9.982   1.683 -30.968  1.00  0.00     0.170 HD
BRANCH  25  29
HETATM   29  C   UNL     1     -12.433   2.903 -33.609  1.00  0.00     0.086 C 
HETATM   30  C   UNL     1     -12.854   1.657 -34.410  1.00  0.00     0.025 C 
HETATM   31  C   UNL     1     -13.672   0.676 -33.564  1.00  0.00     0.002 C 
HETATM   32  C   UNL     1     -14.886   1.348 -32.930  1.00  0.00     0.000 C 
HETATM   33  C   UNL     1     -14.505   2.608 -32.157  1.00  0.00     0.002 C 
HETATM   34  C   UNL     1     -13.689   3.567 -33.019  1.00  0.00     0.025 C 
ENDBRANCH  25  29
ENDBRANCH   5  23
TORSDOF 5
ENDMDL
MODEL 9
REMARK VINA RESULT:      -7.7      5.144      9.030
REMARK  5 active torsions:
REMARK  status: ('A' for Active; 'I' for Inactive)
REMARK    1  A    between atoms: C_2  and  C_3 
REMARK       I    between atoms: C_3  and  N_4 
REMARK    2  A    between atoms: N_4  and  N_5 
REMARK       I    between atoms: N_5  and  C_6 
REMARK       I    between atoms: C_6  and  N_7 
REMARK    3  A    between atoms: N_7  and  C_8 
REMARK    4  A    between atoms: C_18  and  N_19 
REMARK       I    between atoms: N_19  and  C_20 
REMARK       I    between atoms: C_20  and  N_21 
REMARK    5  A    between atoms: N_21  and  C_22 
ROOT
HETATM    1  C   UNL     1       0.149   7.483 -29.479  1.00  0.00     0.019 A 
HETATM    2  C   UNL     1      -1.211   7.259 -29.239  1.00  0.00     0.033 A 
HETATM    3  C   UNL     1      -1.647   7.047 -27.927  1.00  0.00     0.019 A 
HETATM    4  C   UNL     1      -0.729   7.080 -26.866  1.00  0.00     0.030 A 
HETATM    5  C   UNL     1       0.624   7.334 -27.103  1.00  0.00     0.036 A 
HETATM    6  C   UNL     1       1.058   7.520 -28.420  1.00  0.00     0.030 A 
ENDROOT
BRANCH   2   7
HETATM    7  C   UNL     1      -2.140   7.327 -30.400  1.00  0.00     0.270 C 
HETATM    8  N   UNL     1      -1.997   6.367 -31.389  1.00  0.00    -0.262 N 
HETATM    9  H   UNL     1      -1.092   5.926 -31.527  1.00  0.00     0.190 HD
HETATM   10  O   UNL     1      -2.973   8.229 -30.469  1.00  0.00    -0.266 OA
BRANCH   8  11
HETATM   11  N   UNL     1      -2.748   6.596 -32.555  1.00  0.00    -0.249 N 
HETATM   12  C   UNL     1      -3.746   5.766 -32.996  1.00  0.00     0.335 C 
HETATM   13  N   UNL     1      -4.133   4.835 -32.073  1.00  0.00    -0.337 N 
HETATM   14  O   UNL     1      -4.200   5.886 -34.125  1.00  0.00    -0.246 OA
HETATM   15  H   UNL     1      -3.984   5.170 -31.131  1.00  0.00     0.164 HD
HETATM   16  H   UNL     1      -2.415   7.326 -33.183  1.00  0.00     0.192 HD
BRANCH  13  17
HETATM   17  C   UNL     1      -5.197   3.844 -32.233  1.00  0.00     0.086 C 
HETATM   18  C   UNL     1      -4.682   2.403 -32.353  1.00  0.00     0.025 C 
HETATM   19  C   UNL     1      -4.586   1.647 -31.033  1.00  0.00     0.002 C 
HETATM   20  C   UNL     1      -5.879   1.738 -30.234  1.00  0.00     0.000 C 
HETATM   21  C   UNL     1      -6.287   3.182 -29.974  1.00  0.00     0.002 C 
HETATM   22  C   UNL     1      -6.372   4.007 -31.256  1.00  0.00     0.025 C 
ENDBRANCH  13  17
ENDBRANCH   8  11
ENDBRANCH   2   7
BRANCH   5  23
HETATM   23  N   UNL     1       1.585   7.500 -26.088  1.00  0.00    -0.309 N 
HETATM   24  C   UNL     1       1.819   8.621 -25.319  1.00  0.00     0.321 C 
HETATM   25  N   UNL     1       3.047   8.520 -24.692  1.00  0.00    -0.338 N 
HETATM   26  O   UNL     1       1.090   9.597 -25.228  1.00  0.00    -0.247 OA
HETATM   27  H   UNL     1       3.355   7.579 -24.509  1.00  0.00     0.164 HD
HETATM   28  H   UNL     1       2.195   6.716 -25.923  1.00  0.00     0.170 HD
BRANCH  25  29
HETATM   29  C   UNL     1       3.601   9.543 -23.802  1.00  0.00     0.086 C 
HETATM   30  C   UNL     1       2.972   9.385 -22.405  1.00  0.00     0.025 C 
HETATM   31  C   UNL     1       3.450   8.112 -21.699  1.00  0.00     0.002 C 
HETATM   32  C   UNL     1       4.972   8.044 -21.619  1.00  0.00     0.000 C 
HETATM   33  C   UNL     1       5.626   8.232 -22.984  1.00  0.00     0.002 C 
HETATM   34  C   UNL     1       5.132   9.505 -23.669  1.00  0.00     0.025 C 
ENDBRANCH  25  29
ENDBRANCH   5  23
TORSDOF 5
ENDMDL
MODEL 10
REMARK VINA RESULT:      -7.6      6.599     10.720
REMARK  5 active torsions:
REMARK  status: ('A' for Active; 'I' for Inactive)
REMARK    1  A    between atoms: C_2  and  C_3 
REMARK       I    between atoms: C_3  and  N_4 
REMARK    2  A    between atoms: N_4  and  N_5 
REMARK       I    between atoms: N_5  and  C_6 
REMARK       I    between atoms: C_6  and  N_7 
REMARK    3  A    between atoms: N_7  and  C_8 
REMARK    4  A    between atoms: C_18  and  N_19 
REMARK       I    between atoms: N_19  and  C_20 
REMARK       I    between atoms: C_20  and  N_21 
REMARK    5  A    between atoms: N_21  and  C_22 
ROOT
HETATM    1  C   UNL     1       0.292   7.531 -27.592  1.00  0.00     0.019 A 
HETATM    2  C   UNL     1      -0.794   8.396 -27.419  1.00  0.00     0.033 A 
HETATM    3  C   UNL     1      -0.654   9.511 -26.587  1.00  0.00     0.019 A 
HETATM    4  C   UNL     1       0.571   9.764 -25.949  1.00  0.00     0.030 A 
HETATM    5  C   UNL     1       1.664   8.916 -26.146  1.00  0.00     0.036 A 
HETATM    6  C   UNL     1       1.510   7.789 -26.960  1.00  0.00     0.030 A 
ENDROOT
BRANCH   2   7
HETATM    7  C   UNL     1      -2.033   8.116 -28.196  1.00  0.00     0.270 C 
HETATM    8  N   UNL     1      -2.387   6.788 -28.376  1.00  0.00    -0.262 N 
HETATM    9  H   UNL     1      -1.664   6.074 -28.355  1.00  0.00     0.190 HD
HETATM   10  O   UNL     1      -2.681   9.044 -28.675  1.00  0.00    -0.266 OA
BRANCH   8  11
HETATM   11  N   UNL     1      -3.435   6.569 -29.286  1.00  0.00    -0.249 N 
HETATM   12  C   UNL     1      -3.251   6.148 -30.578  1.00  0.00     0.335 C 
HETATM   13  N   UNL     1      -1.984   5.702 -30.833  1.00  0.00    -0.337 N 
HETATM   14  O   UNL     1      -4.167   6.200 -31.385  1.00  0.00    -0.246 OA
HETATM   15  H   UNL     1      -1.550   5.333 -29.998  1.00  0.00     0.164 HD
HETATM   16  H   UNL     1      -4.359   6.904 -29.015  1.00  0.00     0.192 HD
BRANCH  13  17
HETATM   17  C   UNL     1      -1.495   5.153 -32.098  1.00  0.00     0.086 C 
HETATM   18  C   UNL     1      -2.391   4.050 -32.676  1.00  0.00     0.025 C 
HETATM   19  C   UNL     1      -3.460   4.538 -33.646  1.00  0.00     0.002 C 
HETATM   20  C   UNL     1      -2.876   5.439 -34.726  1.00  0.00     0.000 C 
HETATM   21  C   UNL     1      -2.133   6.629 -34.133  1.00  0.00     0.002 C 
HETATM   22  C   UNL     1      -1.064   6.210 -33.127  1.00  0.00     0.025 C 
ENDBRANCH  13  17
ENDBRANCH   8  11
ENDBRANCH   2   7
BRANCH   5  23
HETATM   23  N   UNL     1       2.954   9.163 -25.640  1.00  0.00    -0.309 N 
HETATM   24  C   UNL     1       3.347   9.232 -24.319  1.00  0.00     0.321 C 
HETATM   25  N   UNL     1       4.589   9.829 -24.222  1.00  0.00    -0.338 N 
HETATM   26  O   UNL     1       2.690   8.873 -23.353  1.00  0.00    -0.247 OA
HETATM   27  H   UNL     1       5.180   9.715 -25.030  1.00  0.00     0.164 HD
HETATM   28  H   UNL     1       3.671   9.339 -26.324  1.00  0.00     0.170 HD
BRANCH  25  29
HETATM   29  C   UNL     1       5.295  10.058 -22.959  1.00  0.00     0.086 C 
HETATM   30  C   UNL     1       5.662   8.697 -22.338  1.00  0.00     0.025 C 
HETATM   31  C   UNL     1       6.749   7.973 -23.137  1.00  0.00     0.002 C 
HETATM   32  C   UNL     1       7.993   8.838 -23.319  1.00  0.00     0.000 C 
HETATM   33  C   UNL     1       7.656  10.208 -23.902  1.00  0.00     0.002 C 
HETATM   34  C   UNL     1       6.569  10.909 -23.090  1.00  0.00     0.025 C 
ENDBRANCH  25  29
ENDBRANCH   5  23
TORSDOF 5
ENDMDL
