MODEL 1
REMARK VINA RESULT:      -9.2      0.000      0.000
REMARK  6 active torsions:
REMARK  status: ('A' for Active; 'I' for Inactive)
REMARK    1  A    between atoms: O_2  and  C_3 
REMARK    2  A    between atoms: C_5  and  N_6 
REMARK    3  A    between atoms: C_7  and  C_9 
REMARK    4  A    between atoms: C_7  and  O_8 
REMARK       I    between atoms: C_9  and  N_10 
REMARK    5  A    between atoms: N_10  and  C_11 
REMARK    6  A    between atoms: C_11  and  C_12 
ROOT
HETATM    1  N   UNL     1      -7.790   2.314 -31.173  1.00  0.00    -0.254 N 
HETATM    2  C   UNL     1      -8.839   1.644 -31.968  1.00  0.00     0.256 C 
HETATM    3  C   UNL     1     -10.072   2.493 -32.234  1.00  0.00     0.034 A 
HETATM    4  C   UNL     1     -10.264   3.648 -31.495  1.00  0.00     0.048 A 
HETATM    5  N   UNL     1      -9.308   4.012 -30.566  1.00  0.00    -0.308 N 
HETATM    6  C   UNL     1      -8.114   3.392 -30.359  1.00  0.00     0.330 C 
HETATM    7  O   UNL     1      -7.405   3.872 -29.473  1.00  0.00    -0.246 OA
HETATM    8  C   UNL     1     -11.071   2.120 -33.154  1.00  0.00     0.015 A 
HETATM    9  C   UNL     1     -12.209   2.911 -33.334  1.00  0.00     0.001 A 
HETATM   10  C   UNL     1     -12.376   4.070 -32.583  1.00  0.00     0.002 A 
HETATM   11  C   UNL     1     -11.404   4.438 -31.655  1.00  0.00     0.030 A 
HETATM   12  H   UNL     1      -9.462   4.811 -29.966  1.00  0.00     0.170 HD
ENDROOT
BRANCH   2  13
HETATM   13  C   UNL     1      -8.260   1.182 -33.375  1.00  0.00     0.279 C 
HETATM   14  N   UNL     1      -8.034  -0.169 -33.536  1.00  0.00    -0.352 N 
HETATM   15  H   UNL     1      -8.436  -0.805 -32.858  1.00  0.00     0.162 HD
HETATM   16  O   UNL     1      -7.940   2.021 -34.225  1.00  0.00    -0.268 OA
BRANCH  14  17
HETATM   17  C   UNL     1      -7.574  -0.715 -34.790  1.00  0.00     0.161 C 
BRANCH  17  18
HETATM   18  C   UNL     1      -6.487  -1.732 -34.566  1.00  0.00    -0.040 A 
HETATM   19  C   UNL     1      -5.283  -1.375 -33.943  1.00  0.00     0.010 A 
HETATM   20  C   UNL     1      -4.289  -2.333 -33.729  1.00  0.00     0.024 A 
HETATM   21  C   UNL     1      -4.491  -3.648 -34.141  1.00  0.00     0.034 A 
HETATM   22 CL   UNL     1      -3.267  -4.827 -33.870  1.00  0.00    -0.084 Cl
HETATM   23  C   UNL     1      -5.678  -4.016 -34.769  1.00  0.00     0.024 A 
HETATM   24  C   UNL     1      -6.673  -3.059 -34.983  1.00  0.00     0.010 A 
ENDBRANCH  17  18
ENDBRANCH  14  17
ENDBRANCH   2  13
BRANCH   2  25
HETATM   25  O   UNL     1      -9.314   0.522 -31.222  1.00  0.00    -0.359 OA
HETATM   26  H   UNL     1      -9.906   0.903 -30.546  1.00  0.00     0.213 HD
ENDBRANCH   2  25
BRANCH   1  27
HETATM   27  C   UNL     1      -6.474   1.709 -31.056  1.00  0.00     0.045 A 
HETATM   28  C   UNL     1      -5.358   2.302 -31.671  1.00  0.00     0.066 A 
HETATM   29  C   UNL     1      -4.080   1.742 -31.573  1.00  0.00     0.070 A 
HETATM   30  C   UNL     1      -3.894   0.536 -30.909  1.00  0.00     0.037 A 
HETATM   31  C   UNL     1      -4.984  -0.083 -30.308  1.00  0.00     0.005 A 
HETATM   32  C   UNL     1      -6.256   0.500 -30.375  1.00  0.00     0.030 A 
BRANCH  29  33
HETATM   33  O   UNL     1      -3.069   2.409 -32.211  1.00  0.00    -0.356 OA
HETATM   34  C   UNL     1      -2.829   3.706 -31.663  1.00  0.00     0.210 C 
ENDBRANCH  29  33
ENDBRANCH   1  27
TORSDOF 6
ENDMDL
MODEL 2
REMARK VINA RESULT:      -8.7      2.094      3.089
REMARK  6 active torsions:
REMARK  status: ('A' for Active; 'I' for Inactive)
REMARK    1  A    between atoms: O_2  and  C_3 
REMARK    2  A    between atoms: C_5  and  N_6 
REMARK    3  A    between atoms: C_7  and  C_9 
REMARK    4  A    between atoms: C_7  and  O_8 
REMARK       I    between atoms: C_9  and  N_10 
REMARK    5  A    between atoms: N_10  and  C_11 
REMARK    6  A    between atoms: C_11  and  C_12 
ROOT
HETATM    1  N   UNL     1      -7.543   3.940 -31.866  1.00  0.00    -0.254 N 
HETATM    2  C   UNL     1      -7.851   2.570 -31.404  1.00  0.00     0.256 C 
HETATM    3  C   UNL     1      -8.964   1.877 -32.173  1.00  0.00     0.034 A 
HETATM    4  C   UNL     1      -9.785   2.632 -32.994  1.00  0.00     0.048 A 
HETATM    5  N   UNL     1      -9.541   3.987 -33.115  1.00  0.00    -0.308 N 
HETATM    6  C   UNL     1      -8.491   4.665 -32.576  1.00  0.00     0.330 C 
HETATM    7  O   UNL     1      -8.461   5.876 -32.799  1.00  0.00    -0.246 OA
HETATM    8  C   UNL     1      -9.245   0.504 -32.036  1.00  0.00     0.015 A 
HETATM    9  C   UNL     1     -10.307  -0.082 -32.732  1.00  0.00     0.001 A 
HETATM   10  C   UNL     1     -11.114   0.699 -33.554  1.00  0.00     0.002 A 
HETATM   11  C   UNL     1     -10.858   2.062 -33.681  1.00  0.00     0.030 A 
HETATM   12  H   UNL     1     -10.171   4.570 -33.651  1.00  0.00     0.170 HD
ENDROOT
BRANCH   2  13
HETATM   13  C   UNL     1      -6.558   1.650 -31.493  1.00  0.00     0.279 C 
HETATM   14  N   UNL     1      -6.127   1.311 -32.758  1.00  0.00    -0.352 N 
HETATM   15  H   UNL     1      -6.508   1.823 -33.546  1.00  0.00     0.162 HD
HETATM   16  O   UNL     1      -6.046   1.190 -30.466  1.00  0.00    -0.268 OA
BRANCH  14  17
HETATM   17  C   UNL     1      -4.927   0.538 -32.967  1.00  0.00     0.161 C 
BRANCH  17  18
HETATM   18  C   UNL     1      -5.248  -0.792 -33.596  1.00  0.00    -0.040 A 
HETATM   19  C   UNL     1      -6.532  -1.064 -34.089  1.00  0.00     0.010 A 
HETATM   20  C   UNL     1      -6.813  -2.298 -34.682  1.00  0.00     0.024 A 
HETATM   21  C   UNL     1      -5.815  -3.265 -34.781  1.00  0.00     0.034 A 
HETATM   22 CL   UNL     1      -6.161  -4.781 -35.518  1.00  0.00    -0.084 Cl
HETATM   23  C   UNL     1      -4.537  -3.012 -34.287  1.00  0.00     0.024 A 
HETATM   24  C   UNL     1      -4.256  -1.779 -33.695  1.00  0.00     0.010 A 
ENDBRANCH  17  18
ENDBRANCH  14  17
ENDBRANCH   2  13
BRANCH   2  25
HETATM   25  O   UNL     1      -8.324   2.652 -30.058  1.00  0.00    -0.359 OA
HETATM   26  H   UNL     1      -8.019   3.521 -29.737  1.00  0.00     0.213 HD
ENDBRANCH   2  25
BRANCH   1  27
HETATM   27  C   UNL     1      -6.350   4.614 -31.383  1.00  0.00     0.045 A 
HETATM   28  C   UNL     1      -5.225   4.760 -32.213  1.00  0.00     0.066 A 
HETATM   29  C   UNL     1      -4.066   5.407 -31.774  1.00  0.00     0.070 A 
HETATM   30  C   UNL     1      -3.976   5.872 -30.467  1.00  0.00     0.037 A 
HETATM   31  C   UNL     1      -5.067   5.723 -29.618  1.00  0.00     0.005 A 
HETATM   32  C   UNL     1      -6.241   5.110 -30.073  1.00  0.00     0.030 A 
BRANCH  29  33
HETATM   33  O   UNL     1      -3.035   5.491 -32.671  1.00  0.00    -0.356 OA
HETATM   34  C   UNL     1      -2.128   4.393 -32.578  1.00  0.00     0.210 C 
ENDBRANCH  29  33
ENDBRANCH   1  27
TORSDOF 6
ENDMDL
MODEL 3
REMARK VINA RESULT:      -8.5      2.275      3.434
REMARK  6 active torsions:
REMARK  status: ('A' for Active; 'I' for Inactive)
REMARK    1  A    between atoms: O_2  and  C_3 
REMARK    2  A    between atoms: C_5  and  N_6 
REMARK    3  A    between atoms: C_7  and  C_9 
REMARK    4  A    between atoms: C_7  and  O_8 
REMARK       I    between atoms: C_9  and  N_10 
REMARK    5  A    between atoms: N_10  and  C_11 
REMARK    6  A    between atoms: C_11  and  C_12 
ROOT
HETATM    1  N   UNL     1      -7.373   3.958 -31.916  1.00  0.00    -0.254 N 
HETATM    2  C   UNL     1      -7.718   2.611 -31.418  1.00  0.00     0.256 C 
HETATM    3  C   UNL     1      -8.846   1.924 -32.173  1.00  0.00     0.034 A 
HETATM    4  C   UNL     1      -9.644   2.678 -33.018  1.00  0.00     0.048 A 
HETATM    5  N   UNL     1      -9.365   4.022 -33.176  1.00  0.00    -0.308 N 
HETATM    6  C   UNL     1      -8.300   4.687 -32.651  1.00  0.00     0.330 C 
HETATM    7  O   UNL     1      -8.238   5.891 -32.907  1.00  0.00    -0.246 OA
HETATM    8  C   UNL     1      -9.163   0.563 -31.999  1.00  0.00     0.015 A 
HETATM    9  C   UNL     1     -10.236  -0.014 -32.683  1.00  0.00     0.001 A 
HETATM   10  C   UNL     1     -11.019   0.763 -33.530  1.00  0.00     0.002 A 
HETATM   11  C   UNL     1     -10.728   2.115 -33.694  1.00  0.00     0.030 A 
HETATM   12  H   UNL     1      -9.977   4.605 -33.730  1.00  0.00     0.170 HD
ENDROOT
BRANCH   2  13
HETATM   13  C   UNL     1      -6.449   1.655 -31.475  1.00  0.00     0.279 C 
HETATM   14  N   UNL     1      -6.046   1.239 -32.727  1.00  0.00    -0.352 N 
HETATM   15  H   UNL     1      -6.426   1.716 -33.536  1.00  0.00     0.162 HD
HETATM   16  O   UNL     1      -5.933   1.239 -30.432  1.00  0.00    -0.268 OA
BRANCH  14  17
HETATM   17  C   UNL     1      -4.868   0.426 -32.910  1.00  0.00     0.161 C 
BRANCH  17  18
HETATM   18  C   UNL     1      -5.217  -0.886 -33.561  1.00  0.00    -0.040 A 
HETATM   19  C   UNL     1      -6.539  -1.181 -33.924  1.00  0.00     0.010 A 
HETATM   20  C   UNL     1      -6.846  -2.397 -34.539  1.00  0.00     0.024 A 
HETATM   21  C   UNL     1      -5.838  -3.324 -34.789  1.00  0.00     0.034 A 
HETATM   22 CL   UNL     1      -6.218  -4.818 -35.553  1.00  0.00    -0.084 Cl
HETATM   23  C   UNL     1      -4.522  -3.049 -34.426  1.00  0.00     0.024 A 
HETATM   24  C   UNL     1      -4.213  -1.834 -33.811  1.00  0.00     0.010 A 
ENDBRANCH  17  18
ENDBRANCH  14  17
ENDBRANCH   2  13
BRANCH   2  25
HETATM   25  O   UNL     1      -8.194   2.742 -30.077  1.00  0.00    -0.359 OA
HETATM   26  H   UNL     1      -8.690   3.582 -30.069  1.00  0.00     0.213 HD
ENDBRANCH   2  25
BRANCH   1  27
HETATM   27  C   UNL     1      -6.166   4.615 -31.447  1.00  0.00     0.045 A 
HETATM   28  C   UNL     1      -6.159   5.310 -30.224  1.00  0.00     0.066 A 
HETATM   29  C   UNL     1      -5.010   5.950 -29.749  1.00  0.00     0.070 A 
HETATM   30  C   UNL     1      -3.850   5.966 -30.514  1.00  0.00     0.037 A 
HETATM   31  C   UNL     1      -3.835   5.303 -31.736  1.00  0.00     0.005 A 
HETATM   32  C   UNL     1      -4.976   4.630 -32.192  1.00  0.00     0.030 A 
BRANCH  29  33
HETATM   33  O   UNL     1      -5.122   6.593 -28.545  1.00  0.00    -0.356 OA
HETATM   34  C   UNL     1      -5.472   5.713 -27.477  1.00  0.00     0.210 C 
ENDBRANCH  29  33
ENDBRANCH   1  27
TORSDOF 6
ENDMDL
MODEL 4
REMARK VINA RESULT:      -8.4      3.347      6.718
REMARK  6 active torsions:
REMARK  status: ('A' for Active; 'I' for Inactive)
REMARK    1  A    between atoms: O_2  and  C_3 
REMARK    2  A    between atoms: C_5  and  N_6 
REMARK    3  A    between atoms: C_7  and  C_9 
REMARK    4  A    between atoms: C_7  and  O_8 
REMARK       I    between atoms: C_9  and  N_10 
REMARK    5  A    between atoms: N_10  and  C_11 
REMARK    6  A    between atoms: C_11  and  C_12 
ROOT
HETATM    1  N   UNL     1      -5.427   0.473 -33.079  1.00  0.00    -0.254 N 
HETATM    2  C   UNL     1      -6.437  -0.232 -33.895  1.00  0.00     0.256 C 
HETATM    3  C   UNL     1      -6.143  -1.704 -34.135  1.00  0.00     0.034 A 
HETATM    4  C   UNL     1      -4.873  -2.187 -33.866  1.00  0.00     0.048 A 
HETATM    5  N   UNL     1      -3.925  -1.322 -33.353  1.00  0.00    -0.308 N 
HETATM    6  C   UNL     1      -4.137  -0.031 -32.979  1.00  0.00     0.330 C 
HETATM    7  O   UNL     1      -3.153   0.573 -32.549  1.00  0.00    -0.246 OA
HETATM    8  C   UNL     1      -7.087  -2.591 -34.688  1.00  0.00     0.015 A 
HETATM    9  C   UNL     1      -6.756  -3.927 -34.931  1.00  0.00     0.001 A 
HETATM   10  C   UNL     1      -5.475  -4.389 -34.647  1.00  0.00     0.002 A 
HETATM   11  C   UNL     1      -4.526  -3.516 -34.120  1.00  0.00     0.030 A 
HETATM   12  H   UNL     1      -2.973  -1.636 -33.217  1.00  0.00     0.170 HD
ENDROOT
BRANCH   2  13
HETATM   13  C   UNL     1      -7.870  -0.133 -33.213  1.00  0.00     0.279 C 
HETATM   14  N   UNL     1      -8.863   0.479 -33.949  1.00  0.00    -0.352 N 
HETATM   15  H   UNL     1      -8.699   0.635 -34.937  1.00  0.00     0.162 HD
HETATM   16  O   UNL     1      -8.032  -0.499 -32.043  1.00  0.00    -0.268 OA
BRANCH  14  17
HETATM   17  C   UNL     1     -10.219   0.567 -33.464  1.00  0.00     0.161 C 
BRANCH  17  18
HETATM   18  C   UNL     1     -10.915   1.774 -34.035  1.00  0.00    -0.040 A 
HETATM   19  C   UNL     1     -10.442   3.068 -33.778  1.00  0.00     0.010 A 
HETATM   20  C   UNL     1     -11.091   4.178 -34.326  1.00  0.00     0.024 A 
HETATM   21  C   UNL     1     -12.215   3.999 -35.129  1.00  0.00     0.034 A 
HETATM   22 CL   UNL     1     -13.008   5.367 -35.808  1.00  0.00    -0.084 Cl
HETATM   23  C   UNL     1     -12.702   2.720 -35.385  1.00  0.00     0.024 A 
HETATM   24  C   UNL     1     -12.055   1.610 -34.838  1.00  0.00     0.010 A 
ENDBRANCH  17  18
ENDBRANCH  14  17
ENDBRANCH   2  13
BRANCH   2  25
HETATM   25  O   UNL     1      -6.451   0.361 -35.194  1.00  0.00    -0.359 OA
HETATM   26  H   UNL     1      -6.652   1.303 -35.038  1.00  0.00     0.213 HD
ENDBRANCH   2  25
BRANCH   1  27
HETATM   27  C   UNL     1      -5.708   1.807 -32.575  1.00  0.00     0.045 A 
HETATM   28  C   UNL     1      -5.600   2.927 -33.419  1.00  0.00     0.066 A 
HETATM   29  C   UNL     1      -5.866   4.221 -32.959  1.00  0.00     0.070 A 
HETATM   30  C   UNL     1      -6.188   4.438 -31.625  1.00  0.00     0.037 A 
HETATM   31  C   UNL     1      -6.283   3.350 -30.765  1.00  0.00     0.005 A 
HETATM   32  C   UNL     1      -6.053   2.051 -31.236  1.00  0.00     0.030 A 
BRANCH  29  33
HETATM   33  O   UNL     1      -5.730   5.233 -33.871  1.00  0.00    -0.356 OA
HETATM   34  C   UNL     1      -4.492   5.180 -34.578  1.00  0.00     0.210 C 
ENDBRANCH  29  33
ENDBRANCH   1  27
TORSDOF 6
ENDMDL
MODEL 5
REMARK VINA RESULT:      -8.3      3.263      6.846
REMARK  6 active torsions:
REMARK  status: ('A' for Active; 'I' for Inactive)
REMARK    1  A    between atoms: O_2  and  C_3 
REMARK    2  A    between atoms: C_5  and  N_6 
REMARK    3  A    between atoms: C_7  and  C_9 
REMARK    4  A    between atoms: C_7  and  O_8 
REMARK       I    between atoms: C_9  and  N_10 
REMARK    5  A    between atoms: N_10  and  C_11 
REMARK    6  A    between atoms: C_11  and  C_12 
ROOT
HETATM    1  N   UNL     1      -5.552   0.712 -33.214  1.00  0.00    -0.254 N 
HETATM    2  C   UNL     1      -6.519  -0.078 -34.004  1.00  0.00     0.256 C 
HETATM    3  C   UNL     1      -6.150  -1.543 -34.177  1.00  0.00     0.034 A 
HETATM    4  C   UNL     1      -4.860  -1.950 -33.879  1.00  0.00     0.048 A 
HETATM    5  N   UNL     1      -3.961  -1.017 -33.398  1.00  0.00    -0.308 N 
HETATM    6  C   UNL     1      -4.239   0.277 -33.083  1.00  0.00     0.330 C 
HETATM    7  O   UNL     1      -3.290   0.948 -32.674  1.00  0.00    -0.246 OA
HETATM    8  C   UNL     1      -7.045  -2.499 -34.696  1.00  0.00     0.015 A 
HETATM    9  C   UNL     1      -6.647  -3.826 -34.876  1.00  0.00     0.001 A 
HETATM   10  C   UNL     1      -5.347  -4.211 -34.565  1.00  0.00     0.002 A 
HETATM   11  C   UNL     1      -4.447  -3.270 -34.070  1.00  0.00     0.030 A 
HETATM   12  H   UNL     1      -2.996  -1.277 -33.242  1.00  0.00     0.170 HD
ENDROOT
BRANCH   2  13
HETATM   13  C   UNL     1      -7.961  -0.020 -33.336  1.00  0.00     0.279 C 
HETATM   14  N   UNL     1      -8.955   0.598 -34.066  1.00  0.00    -0.352 N 
HETATM   15  H   UNL     1      -8.782   0.785 -35.048  1.00  0.00     0.162 HD
HETATM   16  O   UNL     1      -8.131  -0.422 -32.180  1.00  0.00    -0.268 OA
BRANCH  14  17
HETATM   17  C   UNL     1     -10.317   0.652 -33.595  1.00  0.00     0.161 C 
BRANCH  17  18
HETATM   18  C   UNL     1     -11.015   1.882 -34.112  1.00  0.00    -0.040 A 
HETATM   19  C   UNL     1     -10.619   3.162 -33.701  1.00  0.00     0.010 A 
HETATM   20  C   UNL     1     -11.267   4.295 -34.200  1.00  0.00     0.024 A 
HETATM   21  C   UNL     1     -12.315   4.154 -35.106  1.00  0.00     0.034 A 
HETATM   22 CL   UNL     1     -13.107   5.551 -35.724  1.00  0.00    -0.084 Cl
HETATM   23  C   UNL     1     -12.726   2.888 -35.517  1.00  0.00     0.024 A 
HETATM   24  C   UNL     1     -12.078   1.755 -35.019  1.00  0.00     0.010 A 
ENDBRANCH  17  18
ENDBRANCH  14  17
ENDBRANCH   2  13
BRANCH   2  25
HETATM   25  O   UNL     1      -6.551   0.456 -35.329  1.00  0.00    -0.359 OA
HETATM   26  H   UNL     1      -5.678   0.242 -35.707  1.00  0.00     0.213 HD
ENDBRANCH   2  25
BRANCH   1  27
HETATM   27  C   UNL     1      -5.903   2.051 -32.772  1.00  0.00     0.045 A 
HETATM   28  C   UNL     1      -6.136   2.316 -31.411  1.00  0.00     0.066 A 
HETATM   29  C   UNL     1      -6.473   3.596 -30.960  1.00  0.00     0.070 A 
HETATM   30  C   UNL     1      -6.647   4.635 -31.866  1.00  0.00     0.037 A 
HETATM   31  C   UNL     1      -6.443   4.396 -33.220  1.00  0.00     0.005 A 
HETATM   32  C   UNL     1      -6.068   3.122 -33.666  1.00  0.00     0.030 A 
BRANCH  29  33
HETATM   33  O   UNL     1      -6.673   3.736 -29.612  1.00  0.00    -0.356 OA
HETATM   34  C   UNL     1      -7.478   4.869 -29.287  1.00  0.00     0.210 C 
ENDBRANCH  29  33
ENDBRANCH   1  27
TORSDOF 6
ENDMDL
MODEL 6
REMARK VINA RESULT:      -8.0     15.176     17.213
REMARK  6 active torsions:
REMARK  status: ('A' for Active; 'I' for Inactive)
REMARK    1  A    between atoms: O_2  and  C_3 
REMARK    2  A    between atoms: C_5  and  N_6 
REMARK    3  A    between atoms: C_7  and  C_9 
REMARK    4  A    between atoms: C_7  and  O_8 
REMARK       I    between atoms: C_9  and  N_10 
REMARK    5  A    between atoms: N_10  and  C_11 
REMARK    6  A    between atoms: C_11  and  C_12 
ROOT
HETATM    1  N   UNL     1      -6.396 -13.264 -39.288  1.00  0.00    -0.254 N 
HETATM    2  C   UNL     1      -5.778 -14.227 -38.353  1.00  0.00     0.256 C 
HETATM    3  C   UNL     1      -4.373 -13.860 -37.901  1.00  0.00     0.034 A 
HETATM    4  C   UNL     1      -3.680 -12.881 -38.593  1.00  0.00     0.048 A 
HETATM    5  N   UNL     1      -4.302 -12.243 -39.649  1.00  0.00    -0.308 N 
HETATM    6  C   UNL     1      -5.597 -12.408 -40.035  1.00  0.00     0.330 C 
HETATM    7  O   UNL     1      -5.956 -11.746 -41.010  1.00  0.00    -0.246 OA
HETATM    8  C   UNL     1      -3.713 -14.522 -36.848  1.00  0.00     0.015 A 
HETATM    9  C   UNL     1      -2.405 -14.179 -36.496  1.00  0.00     0.001 A 
HETATM   10  C   UNL     1      -1.732 -13.188 -37.203  1.00  0.00     0.002 A 
HETATM   11  C   UNL     1      -2.367 -12.541 -38.260  1.00  0.00     0.030 A 
HETATM   12  H   UNL     1      -3.790 -11.577 -40.212  1.00  0.00     0.170 HD
ENDROOT
BRANCH   2  13
HETATM   13  C   UNL     1      -6.675 -14.392 -37.051  1.00  0.00     0.279 C 
HETATM   14  N   UNL     1      -6.675 -13.336 -36.164  1.00  0.00    -0.352 N 
HETATM   15  H   UNL     1      -6.293 -12.450 -36.474  1.00  0.00     0.162 HD
HETATM   16  O   UNL     1      -7.250 -15.461 -36.820  1.00  0.00    -0.268 OA
BRANCH  14  17
HETATM   17  C   UNL     1      -7.503 -13.341 -34.982  1.00  0.00     0.161 C 
BRANCH  17  18
HETATM   18  C   UNL     1      -6.820 -14.066 -33.852  1.00  0.00    -0.040 A 
HETATM   19  C   UNL     1      -5.652 -13.553 -33.269  1.00  0.00     0.010 A 
HETATM   20  C   UNL     1      -5.037 -14.229 -32.212  1.00  0.00     0.024 A 
HETATM   21  C   UNL     1      -5.581 -15.420 -31.737  1.00  0.00     0.034 A 
HETATM   22 CL   UNL     1      -4.825 -16.246 -30.431  1.00  0.00    -0.084 Cl
HETATM   23  C   UNL     1      -6.736 -15.945 -32.312  1.00  0.00     0.024 A 
HETATM   24  C   UNL     1      -7.352 -15.271 -33.368  1.00  0.00     0.010 A 
ENDBRANCH  17  18
ENDBRANCH  14  17
ENDBRANCH   2  13
BRANCH   2  25
HETATM   25  O   UNL     1      -5.635 -15.476 -39.032  1.00  0.00    -0.359 OA
HETATM   26  H   UNL     1      -4.672 -15.624 -39.086  1.00  0.00     0.213 HD
ENDBRANCH   2  25
BRANCH   1  27
HETATM   27  C   UNL     1      -7.811 -13.368 -39.601  1.00  0.00     0.045 A 
HETATM   28  C   UNL     1      -8.292 -14.425 -40.394  1.00  0.00     0.066 A 
HETATM   29  C   UNL     1      -9.648 -14.548 -40.709  1.00  0.00     0.070 A 
HETATM   30  C   UNL     1     -10.555 -13.582 -40.292  1.00  0.00     0.037 A 
HETATM   31  C   UNL     1     -10.104 -12.515 -39.523  1.00  0.00     0.005 A 
HETATM   32  C   UNL     1      -8.750 -12.414 -39.177  1.00  0.00     0.030 A 
BRANCH  29  33
HETATM   33  O   UNL     1     -10.001 -15.620 -41.486  1.00  0.00    -0.356 OA
HETATM   34  C   UNL     1     -11.342 -15.537 -41.967  1.00  0.00     0.210 C 
ENDBRANCH  29  33
ENDBRANCH   1  27
TORSDOF 6
ENDMDL
MODEL 7
REMARK VINA RESULT:      -7.9      3.975      6.736
REMARK  6 active torsions:
REMARK  status: ('A' for Active; 'I' for Inactive)
REMARK    1  A    between atoms: O_2  and  C_3 
REMARK    2  A    between atoms: C_5  and  N_6 
REMARK    3  A    between atoms: C_7  and  C_9 
REMARK    4  A    between atoms: C_7  and  O_8 
REMARK       I    between atoms: C_9  and  N_10 
REMARK    5  A    between atoms: N_10  and  C_11 
REMARK    6  A    between atoms: C_11  and  C_12 
ROOT
HETATM    1  N   UNL     1      -5.781   2.047 -31.303  1.00  0.00    -0.254 N 
HETATM    2  C   UNL     1      -6.087   3.351 -31.927  1.00  0.00     0.256 C 
HETATM    3  C   UNL     1      -6.504   4.440 -30.951  1.00  0.00     0.034 A 
HETATM    4  C   UNL     1      -6.858   4.084 -29.660  1.00  0.00     0.048 A 
HETATM    5  N   UNL     1      -6.785   2.754 -29.291  1.00  0.00    -0.308 N 
HETATM    6  C   UNL     1      -6.295   1.737 -30.051  1.00  0.00     0.330 C 
HETATM    7  O   UNL     1      -6.325   0.618 -29.536  1.00  0.00    -0.246 OA
HETATM    8  C   UNL     1      -6.614   5.794 -31.320  1.00  0.00     0.015 A 
HETATM    9  C   UNL     1      -7.042   6.754 -30.398  1.00  0.00     0.001 A 
HETATM   10  C   UNL     1      -7.387   6.371 -29.106  1.00  0.00     0.002 A 
HETATM   11  C   UNL     1      -7.302   5.031 -28.735  1.00  0.00     0.030 A 
HETATM   12  H   UNL     1      -7.106   2.463 -28.377  1.00  0.00     0.170 HD
ENDROOT
BRANCH   2  13
HETATM   13  C   UNL     1      -4.830   3.888 -32.739  1.00  0.00     0.279 C 
HETATM   14  N   UNL     1      -3.704   4.191 -32.004  1.00  0.00    -0.352 N 
HETATM   15  H   UNL     1      -3.656   3.865 -31.046  1.00  0.00     0.162 HD
HETATM   16  O   UNL     1      -4.919   4.111 -33.952  1.00  0.00    -0.268 OA
BRANCH  14  17
HETATM   17  C   UNL     1      -2.481   4.621 -32.637  1.00  0.00     0.161 C 
BRANCH  17  18
HETATM   18  C   UNL     1      -1.634   5.420 -31.681  1.00  0.00    -0.040 A 
HETATM   19  C   UNL     1      -0.236   5.330 -31.709  1.00  0.00     0.010 A 
HETATM   20  C   UNL     1       0.537   6.087 -30.825  1.00  0.00     0.024 A 
HETATM   21  C   UNL     1      -0.083   6.933 -29.908  1.00  0.00     0.034 A 
HETATM   22 CL   UNL     1       0.872   7.869 -28.825  1.00  0.00    -0.084 Cl
HETATM   23  C   UNL     1      -1.472   7.025 -29.862  1.00  0.00     0.024 A 
HETATM   24  C   UNL     1      -2.245   6.269 -30.746  1.00  0.00     0.010 A 
ENDBRANCH  17  18
ENDBRANCH  14  17
ENDBRANCH   2  13
BRANCH   2  25
HETATM   25  O   UNL     1      -7.212   3.176 -32.790  1.00  0.00    -0.359 OA
HETATM   26  H   UNL     1      -7.965   3.016 -32.191  1.00  0.00     0.213 HD
ENDBRANCH   2  25
BRANCH   1  27
HETATM   27  C   UNL     1      -5.142   1.003 -32.086  1.00  0.00     0.045 A 
HETATM   28  C   UNL     1      -5.870   0.291 -33.056  1.00  0.00     0.066 A 
HETATM   29  C   UNL     1      -5.279  -0.717 -33.824  1.00  0.00     0.070 A 
HETATM   30  C   UNL     1      -3.958  -1.085 -33.600  1.00  0.00     0.037 A 
HETATM   31  C   UNL     1      -3.221  -0.411 -32.634  1.00  0.00     0.005 A 
HETATM   32  C   UNL     1      -3.804   0.625 -31.892  1.00  0.00     0.030 A 
BRANCH  29  33
HETATM   33  O   UNL     1      -6.085  -1.340 -34.740  1.00  0.00    -0.356 OA
HETATM   34  C   UNL     1      -7.265  -0.594 -35.037  1.00  0.00     0.210 C 
ENDBRANCH  29  33
ENDBRANCH   1  27
TORSDOF 6
ENDMDL
MODEL 8
REMARK VINA RESULT:      -7.9      3.275      6.743
REMARK  6 active torsions:
REMARK  status: ('A' for Active; 'I' for Inactive)
REMARK    1  A    between atoms: O_2  and  C_3 
REMARK    2  A    between atoms: C_5  and  N_6 
REMARK    3  A    between atoms: C_7  and  C_9 
REMARK    4  A    between atoms: C_7  and  O_8 
REMARK       I    between atoms: C_9  and  N_10 
REMARK    5  A    between atoms: N_10  and  C_11 
REMARK    6  A    between atoms: C_11  and  C_12 
ROOT
HETATM    1  N   UNL     1      -5.159   1.217 -32.416  1.00  0.00    -0.254 N 
HETATM    2  C   UNL     1      -6.223   0.694 -33.298  1.00  0.00     0.256 C 
HETATM    3  C   UNL     1      -6.023  -0.743 -33.751  1.00  0.00     0.034 A 
HETATM    4  C   UNL     1      -4.780  -1.332 -33.584  1.00  0.00     0.048 A 
HETATM    5  N   UNL     1      -3.774  -0.606 -32.977  1.00  0.00    -0.308 N 
HETATM    6  C   UNL     1      -3.900   0.629 -32.419  1.00  0.00     0.330 C 
HETATM    7  O   UNL     1      -2.875   1.107 -31.932  1.00  0.00    -0.246 OA
HETATM    8  C   UNL     1      -7.028  -1.485 -34.400  1.00  0.00     0.015 A 
HETATM    9  C   UNL     1      -6.784  -2.790 -34.837  1.00  0.00     0.001 A 
HETATM   10  C   UNL     1      -5.528  -3.361 -34.654  1.00  0.00     0.002 A 
HETATM   11  C   UNL     1      -4.520  -2.629 -34.031  1.00  0.00     0.030 A 
HETATM   12  H   UNL     1      -2.841  -0.990 -32.910  1.00  0.00     0.170 HD
ENDROOT
BRANCH   2  13
HETATM   13  C   UNL     1      -7.636   0.779 -32.574  1.00  0.00     0.279 C 
HETATM   14  N   UNL     1      -8.551   1.661 -33.108  1.00  0.00    -0.352 N 
HETATM   15  H   UNL     1      -8.369   2.039 -34.031  1.00  0.00     0.162 HD
HETATM   16  O   UNL     1      -7.840   0.153 -31.528  1.00  0.00    -0.268 OA
BRANCH  14  17
HETATM   17  C   UNL     1      -9.889   1.775 -32.580  1.00  0.00     0.161 C 
BRANCH  17  18
HETATM   18  C   UNL     1     -10.082   3.100 -31.890  1.00  0.00    -0.040 A 
HETATM   19  C   UNL     1      -9.232   3.501 -30.850  1.00  0.00     0.010 A 
HETATM   20  C   UNL     1      -9.414   4.739 -30.228  1.00  0.00     0.024 A 
HETATM   21  C   UNL     1     -10.448   5.578 -30.639  1.00  0.00     0.034 A 
HETATM   22 CL   UNL     1     -10.666   7.104 -29.876  1.00  0.00    -0.084 Cl
HETATM   23  C   UNL     1     -11.306   5.188 -31.664  1.00  0.00     0.024 A 
HETATM   24  C   UNL     1     -11.124   3.952 -32.287  1.00  0.00     0.010 A 
ENDBRANCH  17  18
ENDBRANCH  14  17
ENDBRANCH   2  13
BRANCH   2  25
HETATM   25  O   UNL     1      -6.222   1.467 -34.500  1.00  0.00    -0.359 OA
HETATM   26  H   UNL     1      -6.262   2.395 -34.202  1.00  0.00     0.213 HD
ENDBRANCH   2  25
BRANCH   1  27
HETATM   27  C   UNL     1      -5.350   2.479 -31.722  1.00  0.00     0.045 A 
HETATM   28  C   UNL     1      -5.270   3.697 -32.420  1.00  0.00     0.066 A 
HETATM   29  C   UNL     1      -5.451   4.925 -31.776  1.00  0.00     0.070 A 
HETATM   30  C   UNL     1      -5.656   4.973 -30.403  1.00  0.00     0.037 A 
HETATM   31  C   UNL     1      -5.719   3.784 -29.685  1.00  0.00     0.005 A 
HETATM   32  C   UNL     1      -5.576   2.553 -30.338  1.00  0.00     0.030 A 
BRANCH  29  33
HETATM   33  O   UNL     1      -5.353   6.046 -32.557  1.00  0.00    -0.356 OA
HETATM   34  C   UNL     1      -4.536   7.059 -31.973  1.00  0.00     0.210 C 
ENDBRANCH  29  33
ENDBRANCH   1  27
TORSDOF 6
ENDMDL
MODEL 9
REMARK VINA RESULT:      -7.9      3.467      7.220
REMARK  6 active torsions:
REMARK  status: ('A' for Active; 'I' for Inactive)
REMARK    1  A    between atoms: O_2  and  C_3 
REMARK    2  A    between atoms: C_5  and  N_6 
REMARK    3  A    between atoms: C_7  and  C_9 
REMARK    4  A    between atoms: C_7  and  O_8 
REMARK       I    between atoms: C_9  and  N_10 
REMARK    5  A    between atoms: N_10  and  C_11 
REMARK    6  A    between atoms: C_11  and  C_12 
ROOT
HETATM    1  N   UNL     1      -4.328   6.060 -31.166  1.00  0.00    -0.254 N 
HETATM    2  C   UNL     1      -3.087   5.736 -31.900  1.00  0.00     0.256 C 
HETATM    3  C   UNL     1      -1.805   6.136 -31.187  1.00  0.00     0.034 A 
HETATM    4  C   UNL     1      -1.878   7.009 -30.115  1.00  0.00     0.048 A 
HETATM    5  N   UNL     1      -3.118   7.458 -29.704  1.00  0.00    -0.308 N 
HETATM    6  C   UNL     1      -4.321   7.049 -30.190  1.00  0.00     0.330 C 
HETATM    7  O   UNL     1      -5.314   7.581 -29.690  1.00  0.00    -0.246 OA
HETATM    8  C   UNL     1      -0.531   5.712 -31.613  1.00  0.00     0.015 A 
HETATM    9  C   UNL     1       0.623   6.140 -30.952  1.00  0.00     0.001 A 
HETATM   10  C   UNL     1       0.523   7.014 -29.874  1.00  0.00     0.002 A 
HETATM   11  C   UNL     1      -0.730   7.456 -29.456  1.00  0.00     0.030 A 
HETATM   12  H   UNL     1      -3.189   8.151 -28.970  1.00  0.00     0.170 HD
ENDROOT
BRANCH   2  13
HETATM   13  C   UNL     1      -3.008   4.175 -32.195  1.00  0.00     0.279 C 
HETATM   14  N   UNL     1      -3.301   3.333 -31.143  1.00  0.00    -0.352 N 
HETATM   15  H   UNL     1      -3.750   3.728 -30.325  1.00  0.00     0.162 HD
HETATM   16  O   UNL     1      -2.600   3.766 -33.288  1.00  0.00    -0.268 OA
BRANCH  14  17
HETATM   17  C   UNL     1      -3.329   1.899 -31.308  1.00  0.00     0.161 C 
BRANCH  17  18
HETATM   18  C   UNL     1      -4.720   1.425 -31.639  1.00  0.00    -0.040 A 
HETATM   19  C   UNL     1      -5.271   1.641 -32.909  1.00  0.00     0.010 A 
HETATM   20  C   UNL     1      -6.557   1.183 -33.206  1.00  0.00     0.024 A 
HETATM   21  C   UNL     1      -7.298   0.512 -32.236  1.00  0.00     0.034 A 
HETATM   22 CL   UNL     1      -8.879  -0.057 -32.607  1.00  0.00    -0.084 Cl
HETATM   23  C   UNL     1      -6.766   0.298 -30.966  1.00  0.00     0.024 A 
HETATM   24  C   UNL     1      -5.481   0.755 -30.669  1.00  0.00     0.010 A 
ENDBRANCH  17  18
ENDBRANCH  14  17
ENDBRANCH   2  13
BRANCH   2  25
HETATM   25  O   UNL     1      -3.084   6.483 -33.118  1.00  0.00    -0.359 OA
HETATM   26  H   UNL     1      -2.365   6.094 -33.649  1.00  0.00     0.213 HD
ENDBRANCH   2  25
BRANCH   1  27
HETATM   27  C   UNL     1      -5.598   5.517 -31.617  1.00  0.00     0.045 A 
HETATM   28  C   UNL     1      -6.358   4.685 -30.777  1.00  0.00     0.066 A 
HETATM   29  C   UNL     1      -7.585   4.152 -31.186  1.00  0.00     0.070 A 
HETATM   30  C   UNL     1      -8.056   4.385 -32.472  1.00  0.00     0.037 A 
HETATM   31  C   UNL     1      -7.314   5.189 -33.331  1.00  0.00     0.005 A 
HETATM   32  C   UNL     1      -6.104   5.753 -32.905  1.00  0.00     0.030 A 
BRANCH  29  33
HETATM   33  O   UNL     1      -8.238   3.357 -30.283  1.00  0.00    -0.356 OA
HETATM   34  C   UNL     1      -9.588   3.085 -30.659  1.00  0.00     0.210 C 
ENDBRANCH  29  33
ENDBRANCH   1  27
TORSDOF 6
ENDMDL
MODEL 10
REMARK VINA RESULT:      -7.9      3.022      7.476
REMARK  6 active torsions:
REMARK  status: ('A' for Active; 'I' for Inactive)
REMARK    1  A    between atoms: O_2  and  C_3 
REMARK    2  A    between atoms: C_5  and  N_6 
REMARK    3  A    between atoms: C_7  and  C_9 
REMARK    4  A    between atoms: C_7  and  O_8 
REMARK       I    between atoms: C_9  and  N_10 
REMARK    5  A    between atoms: N_10  and  C_11 
REMARK    6  A    between atoms: C_11  and  C_12 
ROOT
HETATM    1  N   UNL     1      -7.633   0.893 -33.444  1.00  0.00    -0.254 N 
HETATM    2  C   UNL     1      -6.960   0.954 -32.130  1.00  0.00     0.256 C 
HETATM    3  C   UNL     1      -5.544   0.399 -32.115  1.00  0.00     0.034 A 
HETATM    4  C   UNL     1      -5.115  -0.372 -33.182  1.00  0.00     0.048 A 
HETATM    5  N   UNL     1      -5.975  -0.580 -34.244  1.00  0.00    -0.308 N 
HETATM    6  C   UNL     1      -7.202  -0.013 -34.405  1.00  0.00     0.330 C 
HETATM    7  O   UNL     1      -7.814  -0.337 -35.424  1.00  0.00    -0.246 OA
HETATM    8  C   UNL     1      -4.667   0.576 -31.028  1.00  0.00     0.015 A 
HETATM    9  C   UNL     1      -3.389   0.010 -31.041  1.00  0.00     0.001 A 
HETATM   10  C   UNL     1      -2.979  -0.756 -32.128  1.00  0.00     0.002 A 
HETATM   11  C   UNL     1      -3.846  -0.955 -33.200  1.00  0.00     0.030 A 
HETATM   12  H   UNL     1      -5.708  -1.198 -34.999  1.00  0.00     0.170 HD
ENDROOT
BRANCH   2  13
HETATM   13  C   UNL     1      -6.894   2.456 -31.609  1.00  0.00     0.279 C 
HETATM   14  N   UNL     1      -5.990   3.287 -32.236  1.00  0.00    -0.352 N 
HETATM   15  H   UNL     1      -5.581   2.977 -33.111  1.00  0.00     0.162 HD
HETATM   16  O   UNL     1      -7.554   2.805 -30.625  1.00  0.00    -0.268 OA
BRANCH  14  17
HETATM   17  C   UNL     1      -5.888   4.686 -31.898  1.00  0.00     0.161 C 
BRANCH  17  18
HETATM   18  C   UNL     1      -4.447   5.117 -31.829  1.00  0.00    -0.040 A 
HETATM   19  C   UNL     1      -4.097   6.472 -31.901  1.00  0.00     0.010 A 
HETATM   20  C   UNL     1      -2.756   6.859 -31.822  1.00  0.00     0.024 A 
HETATM   21  C   UNL     1      -1.762   5.895 -31.675  1.00  0.00     0.034 A 
HETATM   22 CL   UNL     1      -0.113   6.375 -31.571  1.00  0.00    -0.084 Cl
HETATM   23  C   UNL     1      -2.095   4.544 -31.611  1.00  0.00     0.024 A 
HETATM   24  C   UNL     1      -3.434   4.157 -31.689  1.00  0.00     0.010 A 
ENDBRANCH  17  18
ENDBRANCH  14  17
ENDBRANCH   2  13
BRANCH   2  25
HETATM   25  O   UNL     1      -7.691   0.133 -31.218  1.00  0.00    -0.359 OA
HETATM   26  H   UNL     1      -8.305   0.743 -30.768  1.00  0.00     0.213 HD
ENDBRANCH   2  25
BRANCH   1  27
HETATM   27  C   UNL     1      -8.883   1.604 -33.650  1.00  0.00     0.045 A 
HETATM   28  C   UNL     1     -10.115   0.958 -33.447  1.00  0.00     0.066 A 
HETATM   29  C   UNL     1     -11.332   1.620 -33.637  1.00  0.00     0.070 A 
HETATM   30  C   UNL     1     -11.351   2.931 -34.097  1.00  0.00     0.037 A 
HETATM   31  C   UNL     1     -10.147   3.588 -34.325  1.00  0.00     0.005 A 
HETATM   32  C   UNL     1      -8.929   2.934 -34.097  1.00  0.00     0.030 A 
BRANCH  29  33
HETATM   33  O   UNL     1     -12.468   0.891 -33.406  1.00  0.00    -0.356 OA
HETATM   34  C   UNL     1     -13.403   0.969 -34.481  1.00  0.00     0.210 C 
ENDBRANCH  29  33
ENDBRANCH   1  27
TORSDOF 6
ENDMDL
