MODEL 1
REMARK VINA RESULT:      -8.1      0.000      0.000
REMARK  6 active torsions:
REMARK  status: ('A' for Active; 'I' for Inactive)
REMARK    1  A    between atoms: C_6  and  C_7 
REMARK    2  A    between atoms: C_10  and  C_11 
REMARK       I    between atoms: C_11  and  N_12 
REMARK    3  A    between atoms: N_12  and  C_13 
REMARK    4  A    between atoms: C_13  and  C_14 
REMARK    5  A    between atoms: C_17  and  C_18 
REMARK       I    between atoms: C_18  and  N_19 
REMARK    6  A    between atoms: N_19  and  C_20 
ROOT
HETATM    1  C   UNL     1      -4.274  -1.326 -32.930  1.00  0.00     0.256 C 
HETATM    2  N   UNL     1      -5.123  -1.013 -31.892  1.00  0.00    -0.353 N 
HETATM    3  O   UNL     1      -3.694  -0.459 -33.577  1.00  0.00    -0.268 OA
HETATM    4  H   UNL     1      -5.757  -1.727 -31.566  1.00  0.00     0.163 HD
ENDROOT
BRANCH   2   5
HETATM    5  C   UNL     1      -5.459   0.362 -31.624  1.00  0.00     0.161 C 
BRANCH   5   6
HETATM    6  C   UNL     1      -6.789   0.735 -32.225  1.00  0.00    -0.040 A 
HETATM    7  C   UNL     1      -7.970   0.182 -31.708  1.00  0.00     0.010 A 
HETATM    8  C   UNL     1      -9.213   0.553 -32.227  1.00  0.00     0.017 A 
HETATM    9  C   UNL     1      -9.289   1.485 -33.267  1.00  0.00     0.032 A 
HETATM   10  C   UNL     1      -8.114   2.005 -33.821  1.00  0.00     0.017 A 
HETATM   11  C   UNL     1      -6.870   1.630 -33.301  1.00  0.00     0.010 A 
BRANCH   9  12
HETATM   12  C   UNL     1     -10.635   1.890 -33.755  1.00  0.00     0.252 C 
HETATM   13  N   UNL     1     -11.661   1.001 -33.492  1.00  0.00    -0.352 N 
HETATM   14  H   UNL     1     -11.435   0.092 -33.110  1.00  0.00     0.163 HD
HETATM   15  O   UNL     1     -10.770   2.935 -34.383  1.00  0.00    -0.268 OA
BRANCH  13  16
HETATM   16  C   UNL     1     -12.985   1.202 -33.994  1.00  0.00     0.084 A 
HETATM   17  C   UNL     1     -14.071   0.207 -33.690  1.00  0.00     0.027 A 
HETATM   18  C   UNL     1     -14.109   1.572 -33.066  1.00  0.00     0.027 A 
ENDBRANCH  13  16
ENDBRANCH   9  12
ENDBRANCH   5   6
ENDBRANCH   2   5
BRANCH   1  19
HETATM   19  C   UNL     1      -4.155  -2.743 -33.260  1.00  0.00     0.082 A 
HETATM   20  C   UNL     1      -3.300  -3.673 -32.592  1.00  0.00     0.068 A 
HETATM   21  C   UNL     1      -2.382  -3.419 -31.451  1.00  0.00     0.073 C 
HETATM   22  N   UNL     1      -3.375  -4.898 -33.124  1.00  0.00    -0.179 NA
HETATM   23  N   UNL     1      -4.284  -4.774 -34.093  1.00  0.00    -0.281 N 
HETATM   24  H   UNL     1      -4.517  -5.604 -34.629  1.00  0.00     0.189 HD
HETATM   25  C   UNL     1      -4.815  -3.514 -34.215  1.00  0.00     0.049 A 
BRANCH  25  26
HETATM   26  C   UNL     1      -5.900  -3.225 -35.216  1.00  0.00     0.030 C 
HETATM   27  C   UNL     1      -6.621  -4.515 -35.613  1.00  0.00     0.016 C 
HETATM   28  C   UNL     1      -6.905  -2.190 -34.699  1.00  0.00     0.016 C 
ENDBRANCH  25  26
ENDBRANCH   1  19
TORSDOF 6
ENDMDL
MODEL 2
REMARK VINA RESULT:      -8.0      5.224      8.375
REMARK  6 active torsions:
REMARK  status: ('A' for Active; 'I' for Inactive)
REMARK    1  A    between atoms: C_6  and  C_7 
REMARK    2  A    between atoms: C_10  and  C_11 
REMARK       I    between atoms: C_11  and  N_12 
REMARK    3  A    between atoms: N_12  and  C_13 
REMARK    4  A    between atoms: C_13  and  C_14 
REMARK    5  A    between atoms: C_17  and  C_18 
REMARK       I    between atoms: C_18  and  N_19 
REMARK    6  A    between atoms: N_19  and  C_20 
ROOT
HETATM    1  C   UNL     1      -2.897   4.477 -31.926  1.00  0.00     0.256 C 
HETATM    2  N   UNL     1      -4.254   4.486 -31.695  1.00  0.00    -0.353 N 
HETATM    3  O   UNL     1      -2.189   3.531 -31.593  1.00  0.00    -0.268 OA
HETATM    4  H   UNL     1      -4.739   5.368 -31.753  1.00  0.00     0.163 HD
ENDROOT
BRANCH   2   5
HETATM    5  C   UNL     1      -4.863   3.431 -30.925  1.00  0.00     0.161 C 
BRANCH   5   6
HETATM    6  C   UNL     1      -5.239   2.258 -31.793  1.00  0.00    -0.040 A 
HETATM    7  C   UNL     1      -6.002   2.463 -32.952  1.00  0.00     0.010 A 
HETATM    8  C   UNL     1      -6.321   1.391 -33.790  1.00  0.00     0.017 A 
HETATM    9  C   UNL     1      -5.875   0.102 -33.480  1.00  0.00     0.032 A 
HETATM   10  C   UNL     1      -5.154  -0.118 -32.301  1.00  0.00     0.017 A 
HETATM   11  C   UNL     1      -4.839   0.956 -31.462  1.00  0.00     0.010 A 
BRANCH   9  12
HETATM   12  C   UNL     1      -6.193  -1.002 -34.426  1.00  0.00     0.252 C 
HETATM   13  N   UNL     1      -5.551  -2.203 -34.184  1.00  0.00    -0.352 N 
HETATM   14  H   UNL     1      -4.823  -2.235 -33.482  1.00  0.00     0.163 HD
HETATM   15  O   UNL     1      -6.950  -0.800 -35.369  1.00  0.00    -0.268 OA
BRANCH  13  16
HETATM   16  C   UNL     1      -5.673  -3.318 -35.070  1.00  0.00     0.084 A 
HETATM   17  C   UNL     1      -5.268  -4.694 -34.618  1.00  0.00     0.027 A 
HETATM   18  C   UNL     1      -6.718  -4.374 -34.834  1.00  0.00     0.027 A 
ENDBRANCH  13  16
ENDBRANCH   9  12
ENDBRANCH   5   6
ENDBRANCH   2   5
BRANCH   1  19
HETATM   19  C   UNL     1      -2.338   5.683 -32.529  1.00  0.00     0.082 A 
HETATM   20  C   UNL     1      -2.519   6.081 -33.889  1.00  0.00     0.068 A 
HETATM   21  C   UNL     1      -3.294   5.388 -34.952  1.00  0.00     0.073 C 
HETATM   22  N   UNL     1      -1.870   7.215 -34.174  1.00  0.00    -0.179 NA
HETATM   23  N   UNL     1      -1.309   7.565 -33.015  1.00  0.00    -0.281 N 
HETATM   24  H   UNL     1      -0.769   8.424 -32.993  1.00  0.00     0.189 HD
HETATM   25  C   UNL     1      -1.568   6.705 -31.976  1.00  0.00     0.049 A 
BRANCH  25  26
HETATM   26  C   UNL     1      -1.063   6.992 -30.589  1.00  0.00     0.030 C 
HETATM   27  C   UNL     1       0.467   6.999 -30.565  1.00  0.00     0.016 C 
HETATM   28  C   UNL     1      -1.611   8.312 -30.034  1.00  0.00     0.016 C 
ENDBRANCH  25  26
ENDBRANCH   1  19
TORSDOF 6
ENDMDL
MODEL 3
REMARK VINA RESULT:      -7.6      4.819      7.763
REMARK  6 active torsions:
REMARK  status: ('A' for Active; 'I' for Inactive)
REMARK    1  A    between atoms: C_6  and  C_7 
REMARK    2  A    between atoms: C_10  and  C_11 
REMARK       I    between atoms: C_11  and  N_12 
REMARK    3  A    between atoms: N_12  and  C_13 
REMARK    4  A    between atoms: C_13  and  C_14 
REMARK    5  A    between atoms: C_17  and  C_18 
REMARK       I    between atoms: C_18  and  N_19 
REMARK    6  A    between atoms: N_19  and  C_20 
ROOT
HETATM    1  C   UNL     1      -4.154   5.102 -30.900  1.00  0.00     0.256 C 
HETATM    2  N   UNL     1      -4.013   3.758 -30.639  1.00  0.00    -0.353 N 
HETATM    3  O   UNL     1      -5.228   5.680 -30.760  1.00  0.00    -0.268 OA
HETATM    4  H   UNL     1      -3.199   3.286 -31.003  1.00  0.00     0.163 HD
ENDROOT
BRANCH   2   5
HETATM    5  C   UNL     1      -5.168   2.959 -30.318  1.00  0.00     0.161 C 
BRANCH   5   6
HETATM    6  C   UNL     1      -5.422   1.906 -31.365  1.00  0.00    -0.040 A 
HETATM    7  C   UNL     1      -5.446   0.551 -31.001  1.00  0.00     0.010 A 
HETATM    8  C   UNL     1      -5.723  -0.434 -31.953  1.00  0.00     0.017 A 
HETATM    9  C   UNL     1      -5.985  -0.073 -33.279  1.00  0.00     0.032 A 
HETATM   10  C   UNL     1      -5.915   1.272 -33.660  1.00  0.00     0.017 A 
HETATM   11  C   UNL     1      -5.634   2.255 -32.705  1.00  0.00     0.010 A 
BRANCH   9  12
HETATM   12  C   UNL     1      -6.326  -1.149 -34.249  1.00  0.00     0.252 C 
HETATM   13  N   UNL     1      -5.570  -2.304 -34.154  1.00  0.00    -0.352 N 
HETATM   14  H   UNL     1      -4.766  -2.313 -33.541  1.00  0.00     0.163 HD
HETATM   15  O   UNL     1      -7.200  -0.962 -35.088  1.00  0.00    -0.268 OA
BRANCH  13  16
HETATM   16  C   UNL     1      -5.709  -3.378 -35.088  1.00  0.00     0.084 A 
HETATM   17  C   UNL     1      -5.331  -4.779 -34.694  1.00  0.00     0.027 A 
HETATM   18  C   UNL     1      -6.774  -4.424 -34.900  1.00  0.00     0.027 A 
ENDBRANCH  13  16
ENDBRANCH   9  12
ENDBRANCH   5   6
ENDBRANCH   2   5
BRANCH   1  19
HETATM   19  C   UNL     1      -2.972   5.785 -31.417  1.00  0.00     0.082 A 
HETATM   20  C   UNL     1      -2.160   6.697 -30.676  1.00  0.00     0.068 A 
HETATM   21  C   UNL     1      -2.325   7.132 -29.264  1.00  0.00     0.073 C 
HETATM   22  N   UNL     1      -1.159   7.193 -31.410  1.00  0.00    -0.179 NA
HETATM   23  N   UNL     1      -1.297   6.591 -32.593  1.00  0.00    -0.281 N 
HETATM   24  H   UNL     1      -0.619   6.810 -33.315  1.00  0.00     0.189 HD
HETATM   25  C   UNL     1      -2.350   5.711 -32.662  1.00  0.00     0.049 A 
BRANCH  25  26
HETATM   26  C   UNL     1      -2.601   4.902 -33.905  1.00  0.00     0.030 C 
HETATM   27  C   UNL     1      -3.983   5.218 -34.481  1.00  0.00     0.016 C 
HETATM   28  C   UNL     1      -1.518   5.119 -34.967  1.00  0.00     0.016 C 
ENDBRANCH  25  26
ENDBRANCH   1  19
TORSDOF 6
ENDMDL
MODEL 4
REMARK VINA RESULT:      -7.6      5.133      8.248
REMARK  6 active torsions:
REMARK  status: ('A' for Active; 'I' for Inactive)
REMARK    1  A    between atoms: C_6  and  C_7 
REMARK    2  A    between atoms: C_10  and  C_11 
REMARK       I    between atoms: C_11  and  N_12 
REMARK    3  A    between atoms: N_12  and  C_13 
REMARK    4  A    between atoms: C_13  and  C_14 
REMARK    5  A    between atoms: C_17  and  C_18 
REMARK       I    between atoms: C_18  and  N_19 
REMARK    6  A    between atoms: N_19  and  C_20 
ROOT
HETATM    1  C   UNL     1      -6.316   1.192 -32.638  1.00  0.00     0.256 C 
HETATM    2  N   UNL     1      -5.880   2.329 -33.279  1.00  0.00    -0.353 N 
HETATM    3  O   UNL     1      -6.908   1.241 -31.563  1.00  0.00    -0.268 OA
HETATM    4  H   UNL     1      -5.193   2.228 -34.011  1.00  0.00     0.163 HD
ENDROOT
BRANCH   2   5
HETATM    5  C   UNL     1      -5.990   3.612 -32.631  1.00  0.00     0.161 C 
BRANCH   5   6
HETATM    6  C   UNL     1      -4.641   4.152 -32.238  1.00  0.00    -0.040 A 
HETATM    7  C   UNL     1      -4.545   5.138 -31.244  1.00  0.00     0.010 A 
HETATM    8  C   UNL     1      -3.297   5.617 -30.838  1.00  0.00     0.017 A 
HETATM    9  C   UNL     1      -2.129   5.111 -31.418  1.00  0.00     0.032 A 
HETATM   10  C   UNL     1      -2.218   4.163 -32.444  1.00  0.00     0.017 A 
HETATM   11  C   UNL     1      -3.469   3.688 -32.851  1.00  0.00     0.010 A 
BRANCH   9  12
HETATM   12  C   UNL     1      -0.819   5.612 -30.921  1.00  0.00     0.252 C 
HETATM   13  N   UNL     1      -0.659   5.609 -29.547  1.00  0.00    -0.352 N 
HETATM   14  H   UNL     1      -1.456   5.399 -28.962  1.00  0.00     0.163 HD
HETATM   15  O   UNL     1       0.018   6.029 -31.714  1.00  0.00    -0.268 OA
BRANCH  13  16
HETATM   16  C   UNL     1       0.501   6.162 -28.920  1.00  0.00     0.084 A 
HETATM   17  C   UNL     1       0.597   7.642 -28.673  1.00  0.00     0.027 A 
HETATM   18  C   UNL     1       0.431   6.700 -27.517  1.00  0.00     0.027 A 
ENDBRANCH  13  16
ENDBRANCH   9  12
ENDBRANCH   5   6
ENDBRANCH   2   5
BRANCH   1  19
HETATM   19  C   UNL     1      -5.976  -0.077 -33.274  1.00  0.00     0.082 A 
HETATM   20  C   UNL     1      -6.565  -0.577 -34.476  1.00  0.00     0.068 A 
HETATM   21  C   UNL     1      -7.609   0.062 -35.320  1.00  0.00     0.073 C 
HETATM   22  N   UNL     1      -6.083  -1.777 -34.813  1.00  0.00    -0.179 NA
HETATM   23  N   UNL     1      -5.175  -2.037 -33.869  1.00  0.00    -0.281 N 
HETATM   24  H   UNL     1      -4.660  -2.908 -33.937  1.00  0.00     0.189 HD
HETATM   25  C   UNL     1      -5.039  -1.047 -32.926  1.00  0.00     0.049 A 
BRANCH  25  26
HETATM   26  C   UNL     1      -4.011  -1.157 -31.833  1.00  0.00     0.030 C 
HETATM   27  C   UNL     1      -3.193  -2.440 -31.991  1.00  0.00     0.016 C 
HETATM   28  C   UNL     1      -3.085   0.064 -31.784  1.00  0.00     0.016 C 
ENDBRANCH  25  26
ENDBRANCH   1  19
TORSDOF 6
ENDMDL
MODEL 5
REMARK VINA RESULT:      -7.5      2.356      8.505
REMARK  6 active torsions:
REMARK  status: ('A' for Active; 'I' for Inactive)
REMARK    1  A    between atoms: C_6  and  C_7 
REMARK    2  A    between atoms: C_10  and  C_11 
REMARK       I    between atoms: C_11  and  N_12 
REMARK    3  A    between atoms: N_12  and  C_13 
REMARK    4  A    between atoms: C_13  and  C_14 
REMARK    5  A    between atoms: C_17  and  C_18 
REMARK       I    between atoms: C_18  and  N_19 
REMARK    6  A    between atoms: N_19  and  C_20 
ROOT
HETATM    1  C   UNL     1     -10.934   3.686 -31.994  1.00  0.00     0.256 C 
HETATM    2  N   UNL     1     -10.385   2.471 -31.654  1.00  0.00    -0.353 N 
HETATM    3  O   UNL     1     -10.305   4.735 -31.887  1.00  0.00    -0.268 OA
HETATM    4  H   UNL     1     -11.007   1.689 -31.520  1.00  0.00     0.163 HD
ENDROOT
BRANCH   2   5
HETATM    5  C   UNL     1      -9.087   2.414 -31.030  1.00  0.00     0.161 C 
BRANCH   5   6
HETATM    6  C   UNL     1      -8.221   1.347 -31.648  1.00  0.00    -0.040 A 
HETATM    7  C   UNL     1      -8.642   0.696 -32.817  1.00  0.00     0.010 A 
HETATM    8  C   UNL     1      -7.829  -0.264 -33.426  1.00  0.00     0.017 A 
HETATM    9  C   UNL     1      -6.583  -0.579 -32.875  1.00  0.00     0.032 A 
HETATM   10  C   UNL     1      -6.177   0.031 -31.682  1.00  0.00     0.017 A 
HETATM   11  C   UNL     1      -6.994   0.989 -31.073  1.00  0.00     0.010 A 
BRANCH   9  12
HETATM   12  C   UNL     1      -5.728  -1.570 -33.583  1.00  0.00     0.252 C 
HETATM   13  N   UNL     1      -6.370  -2.351 -34.527  1.00  0.00    -0.352 N 
HETATM   14  H   UNL     1      -7.378  -2.305 -34.595  1.00  0.00     0.163 HD
HETATM   15  O   UNL     1      -4.543  -1.679 -33.286  1.00  0.00    -0.268 OA
BRANCH  13  16
HETATM   16  C   UNL     1      -5.703  -3.417 -35.207  1.00  0.00     0.084 A 
HETATM   17  C   UNL     1      -5.465  -4.729 -34.511  1.00  0.00     0.027 A 
HETATM   18  C   UNL     1      -6.458  -4.646 -35.633  1.00  0.00     0.027 A 
ENDBRANCH  13  16
ENDBRANCH   9  12
ENDBRANCH   5   6
ENDBRANCH   2   5
BRANCH   1  19
HETATM   19  C   UNL     1     -12.329   3.664 -32.425  1.00  0.00     0.082 A 
HETATM   20  C   UNL     1     -13.447   4.022 -31.610  1.00  0.00     0.068 A 
HETATM   21  C   UNL     1     -13.440   4.486 -30.198  1.00  0.00     0.073 C 
HETATM   22  N   UNL     1     -14.608   3.881 -32.257  1.00  0.00    -0.179 NA
HETATM   23  N   UNL     1     -14.251   3.474 -33.477  1.00  0.00    -0.281 N 
HETATM   24  H   UNL     1     -14.988   3.318 -34.156  1.00  0.00     0.189 HD
HETATM   25  C   UNL     1     -12.895   3.347 -33.658  1.00  0.00     0.049 A 
BRANCH  25  26
HETATM   26  C   UNL     1     -12.326   2.961 -34.996  1.00  0.00     0.030 C 
HETATM   27  C   UNL     1     -11.211   3.926 -35.404  1.00  0.00     0.016 C 
HETATM   28  C   UNL     1     -11.815   1.516 -35.014  1.00  0.00     0.016 C 
ENDBRANCH  25  26
ENDBRANCH   1  19
TORSDOF 6
ENDMDL
MODEL 6
REMARK VINA RESULT:      -7.4      5.230      7.987
REMARK  6 active torsions:
REMARK  status: ('A' for Active; 'I' for Inactive)
REMARK    1  A    between atoms: C_6  and  C_7 
REMARK    2  A    between atoms: C_10  and  C_11 
REMARK       I    between atoms: C_11  and  N_12 
REMARK    3  A    between atoms: N_12  and  C_13 
REMARK    4  A    between atoms: C_13  and  C_14 
REMARK    5  A    between atoms: C_17  and  C_18 
REMARK       I    between atoms: C_18  and  N_19 
REMARK    6  A    between atoms: N_19  and  C_20 
ROOT
HETATM    1  C   UNL     1      -5.491   0.987 -32.318  1.00  0.00     0.256 C 
HETATM    2  N   UNL     1      -5.183   1.972 -33.230  1.00  0.00    -0.353 N 
HETATM    3  O   UNL     1      -6.098   1.233 -31.280  1.00  0.00    -0.268 OA
HETATM    4  H   UNL     1      -4.481   1.772 -33.925  1.00  0.00     0.163 HD
ENDROOT
BRANCH   2   5
HETATM    5  C   UNL     1      -5.452   3.353 -32.919  1.00  0.00     0.161 C 
BRANCH   5   6
HETATM    6  C   UNL     1      -4.217   4.061 -32.428  1.00  0.00    -0.040 A 
HETATM    7  C   UNL     1      -4.253   4.773 -31.220  1.00  0.00     0.010 A 
HETATM    8  C   UNL     1      -3.103   5.397 -30.730  1.00  0.00     0.017 A 
HETATM    9  C   UNL     1      -1.902   5.313 -31.442  1.00  0.00     0.032 A 
HETATM   10  C   UNL     1      -1.869   4.646 -32.672  1.00  0.00     0.017 A 
HETATM   11  C   UNL     1      -3.023   4.024 -33.162  1.00  0.00     0.010 A 
BRANCH   9  12
HETATM   12  C   UNL     1      -0.689   5.949 -30.859  1.00  0.00     0.252 C 
HETATM   13  N   UNL     1      -0.552   5.836 -29.488  1.00  0.00    -0.352 N 
HETATM   14  H   UNL     1      -1.319   5.454 -28.950  1.00  0.00     0.163 HD
HETATM   15  O   UNL     1       0.089   6.560 -31.583  1.00  0.00    -0.268 OA
BRANCH  13  16
HETATM   16  C   UNL     1       0.502   6.489 -28.776  1.00  0.00     0.084 A 
HETATM   17  C   UNL     1       0.361   7.929 -28.365  1.00  0.00     0.027 A 
HETATM   18  C   UNL     1       0.338   6.848 -27.324  1.00  0.00     0.027 A 
ENDBRANCH  13  16
ENDBRANCH   9  12
ENDBRANCH   5   6
ENDBRANCH   2   5
BRANCH   1  19
HETATM   19  C   UNL     1      -4.997  -0.352 -32.625  1.00  0.00     0.082 A 
HETATM   20  C   UNL     1      -3.760  -0.897 -32.164  1.00  0.00     0.068 A 
HETATM   21  C   UNL     1      -2.741  -0.252 -31.294  1.00  0.00     0.073 C 
HETATM   22  N   UNL     1      -3.552  -2.135 -32.623  1.00  0.00    -0.179 NA
HETATM   23  N   UNL     1      -4.646  -2.402 -33.339  1.00  0.00    -0.281 N 
HETATM   24  H   UNL     1      -4.712  -3.315 -33.775  1.00  0.00     0.189 HD
HETATM   25  C   UNL     1      -5.570  -1.386 -33.364  1.00  0.00     0.049 A 
BRANCH  25  26
HETATM   26  C   UNL     1      -6.886  -1.554 -34.072  1.00  0.00     0.030 C 
HETATM   27  C   UNL     1      -7.053  -0.485 -35.155  1.00  0.00     0.016 C 
HETATM   28  C   UNL     1      -7.045  -2.954 -34.675  1.00  0.00     0.016 C 
ENDBRANCH  25  26
ENDBRANCH   1  19
TORSDOF 6
ENDMDL
MODEL 7
REMARK VINA RESULT:      -7.1      5.627      8.154
REMARK  6 active torsions:
REMARK  status: ('A' for Active; 'I' for Inactive)
REMARK    1  A    between atoms: C_6  and  C_7 
REMARK    2  A    between atoms: C_10  and  C_11 
REMARK       I    between atoms: C_11  and  N_12 
REMARK    3  A    between atoms: N_12  and  C_13 
REMARK    4  A    between atoms: C_13  and  C_14 
REMARK    5  A    between atoms: C_17  and  C_18 
REMARK       I    between atoms: C_18  and  N_19 
REMARK    6  A    between atoms: N_19  and  C_20 
ROOT
HETATM    1  C   UNL     1      -4.400   6.936 -30.910  1.00  0.00     0.256 C 
HETATM    2  N   UNL     1      -4.126   5.936 -30.004  1.00  0.00    -0.353 N 
HETATM    3  O   UNL     1      -5.510   7.456 -30.984  1.00  0.00    -0.268 OA
HETATM    4  H   UNL     1      -3.298   5.379 -30.149  1.00  0.00     0.163 HD
ENDROOT
BRANCH   2   5
HETATM    5  C   UNL     1      -5.185   5.375 -29.204  1.00  0.00     0.161 C 
BRANCH   5   6
HETATM    6  C   UNL     1      -5.888   4.254 -29.923  1.00  0.00    -0.040 A 
HETATM    7  C   UNL     1      -5.175   3.440 -30.817  1.00  0.00     0.010 A 
HETATM    8  C   UNL     1      -5.803   2.369 -31.457  1.00  0.00     0.017 A 
HETATM    9  C   UNL     1      -7.152   2.097 -31.207  1.00  0.00     0.032 A 
HETATM   10  C   UNL     1      -7.883   2.932 -30.355  1.00  0.00     0.017 A 
HETATM   11  C   UNL     1      -7.252   4.006 -29.718  1.00  0.00     0.010 A 
BRANCH   9  12
HETATM   12  C   UNL     1      -7.769   0.916 -31.871  1.00  0.00     0.252 C 
HETATM   13  N   UNL     1      -6.957   0.236 -32.761  1.00  0.00    -0.352 N 
HETATM   14  H   UNL     1      -6.062   0.635 -33.008  1.00  0.00     0.163 HD
HETATM   15  O   UNL     1      -8.939   0.627 -31.643  1.00  0.00    -0.268 OA
BRANCH  13  16
HETATM   16  C   UNL     1      -7.446  -0.849 -33.553  1.00  0.00     0.084 A 
HETATM   17  C   UNL     1      -7.149  -0.905 -35.027  1.00  0.00     0.027 A 
HETATM   18  C   UNL     1      -6.502  -1.888 -34.095  1.00  0.00     0.027 A 
ENDBRANCH  13  16
ENDBRANCH   9  12
ENDBRANCH   5   6
ENDBRANCH   2   5
BRANCH   1  19
HETATM   19  C   UNL     1      -3.316   7.297 -31.819  1.00  0.00     0.082 A 
HETATM   20  C   UNL     1      -2.502   8.465 -31.704  1.00  0.00     0.068 A 
HETATM   21  C   UNL     1      -2.567   9.530 -30.669  1.00  0.00     0.073 C 
HETATM   22  N   UNL     1      -1.606   8.554 -32.693  1.00  0.00    -0.179 NA
HETATM   23  N   UNL     1      -1.811   7.450 -33.414  1.00  0.00    -0.281 N 
HETATM   24  H   UNL     1      -1.216   7.299 -34.222  1.00  0.00     0.189 HD
HETATM   25  C   UNL     1      -2.806   6.634 -32.934  1.00  0.00     0.049 A 
BRANCH  25  26
HETATM   26  C   UNL     1      -3.115   5.319 -33.595  1.00  0.00     0.030 C 
HETATM   27  C   UNL     1      -4.555   5.304 -34.113  1.00  0.00     0.016 C 
HETATM   28  C   UNL     1      -2.137   4.997 -34.731  1.00  0.00     0.016 C 
ENDBRANCH  25  26
ENDBRANCH   1  19
TORSDOF 6
ENDMDL
MODEL 8
REMARK VINA RESULT:      -7.0      2.271      8.696
REMARK  6 active torsions:
REMARK  status: ('A' for Active; 'I' for Inactive)
REMARK    1  A    between atoms: C_6  and  C_7 
REMARK    2  A    between atoms: C_10  and  C_11 
REMARK       I    between atoms: C_11  and  N_12 
REMARK    3  A    between atoms: N_12  and  C_13 
REMARK    4  A    between atoms: C_13  and  C_14 
REMARK    5  A    between atoms: C_17  and  C_18 
REMARK       I    between atoms: C_18  and  N_19 
REMARK    6  A    between atoms: N_19  and  C_20 
ROOT
HETATM    1  C   UNL     1     -11.103   3.063 -32.957  1.00  0.00     0.256 C 
HETATM    2  N   UNL     1     -10.480   2.494 -31.869  1.00  0.00    -0.353 N 
HETATM    3  O   UNL     1     -10.484   3.728 -33.784  1.00  0.00    -0.268 OA
HETATM    4  H   UNL     1     -11.056   2.181 -31.103  1.00  0.00     0.163 HD
ENDROOT
BRANCH   2   5
HETATM    5  C   UNL     1      -9.095   2.781 -31.598  1.00  0.00     0.161 C 
BRANCH   5   6
HETATM    6  C   UNL     1      -8.188   1.719 -32.163  1.00  0.00    -0.040 A 
HETATM    7  C   UNL     1      -8.735   0.537 -32.685  1.00  0.00     0.010 A 
HETATM    8  C   UNL     1      -7.910  -0.436 -33.252  1.00  0.00     0.017 A 
HETATM    9  C   UNL     1      -6.526  -0.237 -33.309  1.00  0.00     0.032 A 
HETATM   10  C   UNL     1      -5.968   0.917 -32.747  1.00  0.00     0.017 A 
HETATM   11  C   UNL     1      -6.797   1.889 -32.177  1.00  0.00     0.010 A 
BRANCH   9  12
HETATM   12  C   UNL     1      -5.689  -1.276 -33.967  1.00  0.00     0.252 C 
HETATM   13  N   UNL     1      -6.381  -2.264 -34.645  1.00  0.00    -0.352 N 
HETATM   14  H   UNL     1      -7.388  -2.305 -34.554  1.00  0.00     0.163 HD
HETATM   15  O   UNL     1      -4.469  -1.242 -33.853  1.00  0.00    -0.268 OA
BRANCH  13  16
HETATM   16  C   UNL     1      -5.718  -3.386 -35.232  1.00  0.00     0.084 A 
HETATM   17  C   UNL     1      -5.462  -4.626 -34.420  1.00  0.00     0.027 A 
HETATM   18  C   UNL     1      -6.472  -4.653 -35.529  1.00  0.00     0.027 A 
ENDBRANCH  13  16
ENDBRANCH   9  12
ENDBRANCH   5   6
ENDBRANCH   2   5
BRANCH   1  19
HETATM   19  C   UNL     1     -12.550   2.886 -33.037  1.00  0.00     0.082 A 
HETATM   20  C   UNL     1     -13.211   1.670 -33.389  1.00  0.00     0.068 A 
HETATM   21  C   UNL     1     -12.599   0.359 -33.732  1.00  0.00     0.073 C 
HETATM   22  N   UNL     1     -14.541   1.806 -33.409  1.00  0.00    -0.179 NA
HETATM   23  N   UNL     1     -14.741   3.074 -33.044  1.00  0.00    -0.281 N 
HETATM   24  H   UNL     1     -15.700   3.398 -32.973  1.00  0.00     0.189 HD
HETATM   25  C   UNL     1     -13.591   3.776 -32.779  1.00  0.00     0.049 A 
BRANCH  25  26
HETATM   26  C   UNL     1     -13.647   5.198 -32.292  1.00  0.00     0.030 C 
HETATM   27  C   UNL     1     -13.305   6.168 -33.425  1.00  0.00     0.016 C 
HETATM   28  C   UNL     1     -15.010   5.549 -31.683  1.00  0.00     0.016 C 
ENDBRANCH  25  26
ENDBRANCH   1  19
TORSDOF 6
ENDMDL
MODEL 9
REMARK VINA RESULT:      -7.0      6.764      9.698
REMARK  6 active torsions:
REMARK  status: ('A' for Active; 'I' for Inactive)
REMARK    1  A    between atoms: C_6  and  C_7 
REMARK    2  A    between atoms: C_10  and  C_11 
REMARK       I    between atoms: C_11  and  N_12 
REMARK    3  A    between atoms: N_12  and  C_13 
REMARK    4  A    between atoms: C_13  and  C_14 
REMARK    5  A    between atoms: C_17  and  C_18 
REMARK       I    between atoms: C_18  and  N_19 
REMARK    6  A    between atoms: N_19  and  C_20 
ROOT
HETATM    1  C   UNL     1      -2.325   7.832 -32.126  1.00  0.00     0.256 C 
HETATM    2  N   UNL     1      -3.221   6.789 -32.193  1.00  0.00    -0.353 N 
HETATM    3  O   UNL     1      -1.764   8.270 -33.128  1.00  0.00    -0.268 OA
HETATM    4  H   UNL     1      -3.455   6.310 -31.337  1.00  0.00     0.163 HD
ENDROOT
BRANCH   2   5
HETATM    5  C   UNL     1      -3.423   6.089 -33.436  1.00  0.00     0.161 C 
BRANCH   5   6
HETATM    6  C   UNL     1      -4.083   4.753 -33.218  1.00  0.00    -0.040 A 
HETATM    7  C   UNL     1      -5.377   4.523 -33.710  1.00  0.00     0.010 A 
HETATM    8  C   UNL     1      -5.983   3.275 -33.554  1.00  0.00     0.017 A 
HETATM    9  C   UNL     1      -5.301   2.239 -32.908  1.00  0.00     0.032 A 
HETATM   10  C   UNL     1      -4.029   2.473 -32.372  1.00  0.00     0.017 A 
HETATM   11  C   UNL     1      -3.425   3.726 -32.527  1.00  0.00     0.010 A 
BRANCH   9  12
HETATM   12  C   UNL     1      -5.964   0.910 -32.808  1.00  0.00     0.252 C 
HETATM   13  N   UNL     1      -5.337  -0.125 -33.479  1.00  0.00    -0.352 N 
HETATM   14  H   UNL     1      -4.561   0.089 -34.091  1.00  0.00     0.163 HD
HETATM   15  O   UNL     1      -7.019   0.797 -32.194  1.00  0.00    -0.268 OA
BRANCH  13  16
HETATM   16  C   UNL     1      -5.914  -1.430 -33.565  1.00  0.00     0.084 A 
HETATM   17  C   UNL     1      -6.896  -1.755 -34.657  1.00  0.00     0.027 A 
HETATM   18  C   UNL     1      -5.526  -2.368 -34.675  1.00  0.00     0.027 A 
ENDBRANCH  13  16
ENDBRANCH   9  12
ENDBRANCH   5   6
ENDBRANCH   2   5
BRANCH   1  19
HETATM   19  C   UNL     1      -2.030   8.344 -30.791  1.00  0.00     0.082 A 
HETATM   20  C   UNL     1      -2.674   9.462 -30.179  1.00  0.00     0.068 A 
HETATM   21  C   UNL     1      -3.754  10.318 -30.738  1.00  0.00     0.073 C 
HETATM   22  N   UNL     1      -2.183   9.723 -28.963  1.00  0.00    -0.179 NA
HETATM   23  N   UNL     1      -1.264   8.774 -28.775  1.00  0.00    -0.281 N 
HETATM   24  H   UNL     1      -0.766   8.769 -27.891  1.00  0.00     0.189 HD
HETATM   25  C   UNL     1      -1.135   7.894 -29.822  1.00  0.00     0.049 A 
BRANCH  25  26
HETATM   26  C   UNL     1      -0.189   6.728 -29.740  1.00  0.00     0.030 C 
HETATM   27  C   UNL     1       0.709   6.677 -30.977  1.00  0.00     0.016 C 
HETATM   28  C   UNL     1       0.660   6.759 -28.464  1.00  0.00     0.016 C 
ENDBRANCH  25  26
ENDBRANCH   1  19
TORSDOF 6
ENDMDL
MODEL 10
REMARK VINA RESULT:      -6.9      8.247     10.766
REMARK  6 active torsions:
REMARK  status: ('A' for Active; 'I' for Inactive)
REMARK    1  A    between atoms: C_6  and  C_7 
REMARK    2  A    between atoms: C_10  and  C_11 
REMARK       I    between atoms: C_11  and  N_12 
REMARK    3  A    between atoms: N_12  and  C_13 
REMARK    4  A    between atoms: C_13  and  C_14 
REMARK    5  A    between atoms: C_17  and  C_18 
REMARK       I    between atoms: C_18  and  N_19 
REMARK    6  A    between atoms: N_19  and  C_20 
ROOT
HETATM    1  C   UNL     1       0.285   6.746 -28.585  1.00  0.00     0.256 C 
HETATM    2  N   UNL     1       0.372   7.455 -29.761  1.00  0.00    -0.353 N 
HETATM    3  O   UNL     1       0.623   5.567 -28.513  1.00  0.00    -0.268 OA
HETATM    4  H   UNL     1      -0.142   8.320 -29.832  1.00  0.00     0.163 HD
ENDROOT
BRANCH   2   5
HETATM    5  C   UNL     1       0.739   6.786 -30.983  1.00  0.00     0.161 C 
BRANCH   5   6
HETATM    6  C   UNL     1      -0.474   6.357 -31.767  1.00  0.00    -0.040 A 
HETATM    7  C   UNL     1      -1.195   7.303 -32.512  1.00  0.00     0.010 A 
HETATM    8  C   UNL     1      -2.295   6.911 -33.278  1.00  0.00     0.017 A 
HETATM    9  C   UNL     1      -2.685   5.568 -33.312  1.00  0.00     0.032 A 
HETATM   10  C   UNL     1      -2.002   4.627 -32.533  1.00  0.00     0.017 A 
HETATM   11  C   UNL     1      -0.902   5.023 -31.764  1.00  0.00     0.010 A 
BRANCH   9  12
HETATM   12  C   UNL     1      -3.831   5.187 -34.181  1.00  0.00     0.252 C 
HETATM   13  N   UNL     1      -4.849   4.486 -33.558  1.00  0.00    -0.352 N 
HETATM   14  H   UNL     1      -4.711   4.164 -32.610  1.00  0.00     0.163 HD
HETATM   15  O   UNL     1      -3.812   5.461 -35.375  1.00  0.00    -0.268 OA
BRANCH  13  16
HETATM   16  C   UNL     1      -5.960   3.959 -34.287  1.00  0.00     0.084 A 
HETATM   17  C   UNL     1      -6.439   2.557 -34.029  1.00  0.00     0.027 A 
HETATM   18  C   UNL     1      -7.281   3.725 -33.607  1.00  0.00     0.027 A 
ENDBRANCH  13  16
ENDBRANCH   9  12
ENDBRANCH   5   6
ENDBRANCH   2   5
BRANCH   1  19
HETATM   19  C   UNL     1      -0.292   7.453 -27.446  1.00  0.00     0.082 A 
HETATM   20  C   UNL     1       0.454   8.155 -26.450  1.00  0.00     0.068 A 
HETATM   21  C   UNL     1       1.928   8.322 -26.358  1.00  0.00     0.073 C 
HETATM   22  N   UNL     1      -0.334   8.685 -25.509  1.00  0.00    -0.179 NA
HETATM   23  N   UNL     1      -1.568   8.365 -25.904  1.00  0.00    -0.281 N 
HETATM   24  H   UNL     1      -2.344   8.687 -25.335  1.00  0.00     0.189 HD
HETATM   25  C   UNL     1      -1.622   7.647 -27.074  1.00  0.00     0.049 A 
BRANCH  25  26
HETATM   26  C   UNL     1      -2.940   7.265 -27.688  1.00  0.00     0.030 C 
HETATM   27  C   UNL     1      -4.078   7.463 -26.684  1.00  0.00     0.016 C 
HETATM   28  C   UNL     1      -3.226   8.043 -28.978  1.00  0.00     0.016 C 
ENDBRANCH  25  26
ENDBRANCH   1  19
TORSDOF 6
ENDMDL
