MODEL 1
REMARK VINA RESULT:      -8.0      0.000      0.000
REMARK  6 active torsions:
REMARK  status: ('A' for Active; 'I' for Inactive)
REMARK    1  A    between atoms: C_2  and  N_3 
REMARK    2  A    between atoms: C_2  and  C_11 
REMARK       I    between atoms: N_3  and  C_4 
REMARK    3  A    between atoms: C_4  and  C_5 
REMARK    4  A    between atoms: C_14  and  O_15 
REMARK    5  A    between atoms: O_15  and  C_16 
REMARK    6  A    between atoms: C_16  and  C_17 
ROOT
HETATM    1  C   UNL     1      -3.231   4.405 -33.233  1.00  0.00    -0.036 A 
HETATM    2  C   UNL     1      -4.523   4.457 -33.783  1.00  0.00     0.012 A 
HETATM    3  C   UNL     1      -5.483   3.486 -33.473  1.00  0.00     0.037 A 
HETATM    4  C   UNL     1      -5.166   2.444 -32.606  1.00  0.00     0.069 A 
HETATM    5  C   UNL     1      -3.900   2.408 -32.020  1.00  0.00     0.037 A 
HETATM    6  C   UNL     1      -2.939   3.379 -32.327  1.00  0.00     0.012 A 
ENDROOT
BRANCH   1   7
HETATM    7  C   UNL     1      -2.233   5.481 -33.621  1.00  0.00     0.113 C 
HETATM    8  C   UNL     1      -1.515   5.244 -34.953  1.00  0.00     0.037 C 
BRANCH   7   9
HETATM    9  N   UNL     1      -1.263   5.643 -32.551  1.00  0.00    -0.352 N 
HETATM   10  C   UNL     1      -0.812   6.881 -32.173  1.00  0.00     0.225 C 
HETATM   11  O   UNL     1      -1.233   7.941 -32.611  1.00  0.00    -0.273 OA
HETATM   12  H   UNL     1      -0.830   4.808 -32.178  1.00  0.00     0.163 HD
BRANCH  10  13
HETATM   13  C   UNL     1       0.254   6.848 -31.151  1.00  0.00     0.119 A 
HETATM   14  C   UNL     1      -0.090   6.999 -29.692  1.00  0.00     0.126 A 
HETATM   15 CL   UNL     1       1.026   7.931 -28.693  1.00  0.00    -0.101 Cl
HETATM   16 CL   UNL     1      -1.760   7.139 -29.171  1.00  0.00    -0.101 Cl
HETATM   17  C   UNL     1       0.380   5.671 -30.208  1.00  0.00     0.060 A 
ENDBRANCH  10  13
ENDBRANCH   7   9
ENDBRANCH   1   7
BRANCH   4  18
HETATM   18  O   UNL     1      -5.998   1.419 -32.248  1.00  0.00    -0.347 OA
BRANCH  18  19
HETATM   19  C   UNL     1      -5.373   0.202 -31.837  1.00  0.00     0.215 C 
BRANCH  19  20
HETATM   20  C   UNL     1      -5.480  -0.819 -32.936  1.00  0.00    -0.017 A 
HETATM   21  C   UNL     1      -4.380  -1.567 -33.343  1.00  0.00     0.125 A 
HETATM   22  N   UNL     1      -4.422  -2.525 -34.298  1.00  0.00    -0.272 NA
HETATM   23  C   UNL     1      -5.619  -2.751 -34.879  1.00  0.00     0.116 A 
HETATM   24  C   UNL     1      -6.778  -2.071 -34.542  1.00  0.00     0.020 A 
HETATM   25  C   UNL     1      -6.706  -1.096 -33.552  1.00  0.00     0.012 A 
ENDBRANCH  19  20
ENDBRANCH  18  19
ENDBRANCH   4  18
TORSDOF 6
ENDMDL
MODEL 2
REMARK VINA RESULT:      -8.0      2.365      3.794
REMARK  6 active torsions:
REMARK  status: ('A' for Active; 'I' for Inactive)
REMARK    1  A    between atoms: C_2  and  N_3 
REMARK    2  A    between atoms: C_2  and  C_11 
REMARK       I    between atoms: N_3  and  C_4 
REMARK    3  A    between atoms: C_4  and  C_5 
REMARK    4  A    between atoms: C_14  and  O_15 
REMARK    5  A    between atoms: O_15  and  C_16 
REMARK    6  A    between atoms: C_16  and  C_17 
ROOT
HETATM    1  C   UNL     1      -5.786   2.293 -31.691  1.00  0.00    -0.036 A 
HETATM    2  C   UNL     1      -5.858   1.066 -31.010  1.00  0.00     0.012 A 
HETATM    3  C   UNL     1      -6.400  -0.071 -31.618  1.00  0.00     0.037 A 
HETATM    4  C   UNL     1      -6.881  -0.002 -32.923  1.00  0.00     0.069 A 
HETATM    5  C   UNL     1      -6.775   1.200 -33.624  1.00  0.00     0.037 A 
HETATM    6  C   UNL     1      -6.230   2.339 -33.018  1.00  0.00     0.012 A 
ENDROOT
BRANCH   1   7
HETATM    7  C   UNL     1      -5.200   3.493 -30.968  1.00  0.00     0.113 C 
HETATM    8  C   UNL     1      -6.232   4.481 -30.417  1.00  0.00     0.037 C 
BRANCH   7   9
HETATM    9  N   UNL     1      -4.271   4.177 -31.851  1.00  0.00    -0.352 N 
HETATM   10  C   UNL     1      -2.935   3.873 -31.864  1.00  0.00     0.225 C 
HETATM   11  O   UNL     1      -2.420   2.963 -31.231  1.00  0.00    -0.273 OA
HETATM   12  H   UNL     1      -4.615   4.978 -32.366  1.00  0.00     0.163 HD
BRANCH  10  13
HETATM   13  C   UNL     1      -2.125   4.746 -32.738  1.00  0.00     0.119 A 
HETATM   14  C   UNL     1      -1.905   6.191 -32.371  1.00  0.00     0.126 A 
HETATM   15 CL   UNL     1      -1.899   7.365 -33.687  1.00  0.00    -0.101 Cl
HETATM   16 CL   UNL     1      -2.537   6.843 -30.869  1.00  0.00    -0.101 Cl
HETATM   17  C   UNL     1      -0.760   5.224 -32.294  1.00  0.00     0.060 A 
ENDBRANCH  10  13
ENDBRANCH   7   9
ENDBRANCH   1   7
BRANCH   4  18
HETATM   18  O   UNL     1      -7.462  -1.026 -33.619  1.00  0.00    -0.347 OA
BRANCH  18  19
HETATM   19  C   UNL     1      -6.830  -1.408 -34.842  1.00  0.00     0.215 C 
BRANCH  19  20
HETATM   20  C   UNL     1      -6.062  -2.685 -34.637  1.00  0.00    -0.017 A 
HETATM   21  C   UNL     1      -6.601  -3.920 -34.985  1.00  0.00     0.125 A 
HETATM   22  N   UNL     1      -5.946  -5.098 -34.861  1.00  0.00    -0.272 NA
HETATM   23  C   UNL     1      -4.691  -5.047 -34.366  1.00  0.00     0.116 A 
HETATM   24  C   UNL     1      -4.058  -3.871 -33.999  1.00  0.00     0.020 A 
HETATM   25  C   UNL     1      -4.753  -2.674 -34.143  1.00  0.00     0.012 A 
ENDBRANCH  19  20
ENDBRANCH  18  19
ENDBRANCH   4  18
TORSDOF 6
ENDMDL
MODEL 3
REMARK VINA RESULT:      -7.7      6.489      8.466
REMARK  6 active torsions:
REMARK  status: ('A' for Active; 'I' for Inactive)
REMARK    1  A    between atoms: C_2  and  N_3 
REMARK    2  A    between atoms: C_2  and  C_11 
REMARK       I    between atoms: N_3  and  C_4 
REMARK    3  A    between atoms: C_4  and  C_5 
REMARK    4  A    between atoms: C_14  and  O_15 
REMARK    5  A    between atoms: O_15  and  C_16 
REMARK    6  A    between atoms: C_16  and  C_17 
ROOT
HETATM    1  C   UNL     1      -7.757   1.611 -32.031  1.00  0.00    -0.036 A 
HETATM    2  C   UNL     1      -7.559   0.619 -31.055  1.00  0.00     0.012 A 
HETATM    3  C   UNL     1      -6.426  -0.202 -31.074  1.00  0.00     0.037 A 
HETATM    4  C   UNL     1      -5.467  -0.044 -32.072  1.00  0.00     0.069 A 
HETATM    5  C   UNL     1      -5.631   0.967 -33.019  1.00  0.00     0.037 A 
HETATM    6  C   UNL     1      -6.763   1.791 -33.001  1.00  0.00     0.012 A 
ENDROOT
BRANCH   1   7
HETATM    7  C   UNL     1      -9.014   2.458 -31.961  1.00  0.00     0.113 C 
HETATM    8  C   UNL     1      -9.424   2.889 -30.550  1.00  0.00     0.037 C 
BRANCH   7   9
HETATM    9  N   UNL     1     -10.107   1.748 -32.606  1.00  0.00    -0.352 N 
HETATM   10  C   UNL     1     -10.495   2.039 -33.887  1.00  0.00     0.225 C 
HETATM   11  O   UNL     1      -9.924   2.826 -34.628  1.00  0.00    -0.273 OA
HETATM   12  H   UNL     1     -10.660   1.121 -32.037  1.00  0.00     0.163 HD
BRANCH  10  13
HETATM   13  C   UNL     1     -11.692   1.301 -34.337  1.00  0.00     0.119 A 
HETATM   14  C   UNL     1     -13.046   1.633 -33.765  1.00  0.00     0.126 A 
HETATM   15 CL   UNL     1     -14.148   0.287 -33.470  1.00  0.00    -0.101 Cl
HETATM   16 CL   UNL     1     -13.240   2.947 -32.618  1.00  0.00    -0.101 Cl
HETATM   17  C   UNL     1     -12.739   1.981 -35.192  1.00  0.00     0.060 A 
ENDBRANCH  10  13
ENDBRANCH   7   9
ENDBRANCH   1   7
BRANCH   4  18
HETATM   18  O   UNL     1      -4.336  -0.798 -32.223  1.00  0.00    -0.347 OA
BRANCH  18  19
HETATM   19  C   UNL     1      -3.951  -1.114 -33.562  1.00  0.00     0.215 C 
BRANCH  19  20
HETATM   20  C   UNL     1      -4.452  -2.486 -33.922  1.00  0.00    -0.017 A 
HETATM   21  C   UNL     1      -5.591  -2.663 -34.701  1.00  0.00     0.125 A 
HETATM   22  N   UNL     1      -6.068  -3.868 -35.089  1.00  0.00    -0.272 NA
HETATM   23  C   UNL     1      -5.378  -4.955 -34.682  1.00  0.00     0.116 A 
HETATM   24  C   UNL     1      -4.228  -4.890 -33.913  1.00  0.00     0.020 A 
HETATM   25  C   UNL     1      -3.757  -3.637 -33.534  1.00  0.00     0.012 A 
ENDBRANCH  19  20
ENDBRANCH  18  19
ENDBRANCH   4  18
TORSDOF 6
ENDMDL
MODEL 4
REMARK VINA RESULT:      -7.5      3.448      8.697
REMARK  6 active torsions:
REMARK  status: ('A' for Active; 'I' for Inactive)
REMARK    1  A    between atoms: C_2  and  N_3 
REMARK    2  A    between atoms: C_2  and  C_11 
REMARK       I    between atoms: N_3  and  C_4 
REMARK    3  A    between atoms: C_4  and  C_5 
REMARK    4  A    between atoms: C_14  and  O_15 
REMARK    5  A    between atoms: O_15  and  C_16 
REMARK    6  A    between atoms: C_16  and  C_17 
ROOT
HETATM    1  C   UNL     1      -4.767   3.729 -33.255  1.00  0.00    -0.036 A 
HETATM    2  C   UNL     1      -3.584   3.341 -32.604  1.00  0.00     0.012 A 
HETATM    3  C   UNL     1      -2.395   4.061 -32.768  1.00  0.00     0.037 A 
HETATM    4  C   UNL     1      -2.369   5.186 -33.589  1.00  0.00     0.069 A 
HETATM    5  C   UNL     1      -3.549   5.606 -34.204  1.00  0.00     0.037 A 
HETATM    6  C   UNL     1      -4.740   4.889 -34.039  1.00  0.00     0.012 A 
ENDROOT
BRANCH   1   7
HETATM    7  C   UNL     1      -6.019   2.896 -33.045  1.00  0.00     0.113 C 
HETATM    8  C   UNL     1      -6.492   2.797 -31.592  1.00  0.00     0.037 C 
BRANCH   7   9
HETATM    9  N   UNL     1      -5.808   1.567 -33.595  1.00  0.00    -0.352 N 
HETATM   10  C   UNL     1      -6.805   0.895 -34.252  1.00  0.00     0.225 C 
HETATM   11  O   UNL     1      -7.903   1.361 -34.518  1.00  0.00    -0.273 OA
HETATM   12  H   UNL     1      -4.942   1.097 -33.368  1.00  0.00     0.163 HD
BRANCH  10  13
HETATM   13  C   UNL     1      -6.449  -0.485 -34.641  1.00  0.00     0.119 A 
HETATM   14  C   UNL     1      -5.725  -1.382 -33.671  1.00  0.00     0.126 A 
HETATM   15 CL   UNL     1      -4.494  -2.457 -34.333  1.00  0.00    -0.101 Cl
HETATM   16 CL   UNL     1      -5.361  -0.839 -32.042  1.00  0.00    -0.101 Cl
HETATM   17  C   UNL     1      -7.157  -1.667 -34.017  1.00  0.00     0.060 A 
ENDBRANCH  10  13
ENDBRANCH   7   9
ENDBRANCH   1   7
BRANCH   4  18
HETATM   18  O   UNL     1      -1.271   5.956 -33.858  1.00  0.00    -0.347 OA
BRANCH  18  19
HETATM   19  C   UNL     1      -1.339   7.327 -33.465  1.00  0.00     0.215 C 
BRANCH  19  20
HETATM   20  C   UNL     1      -1.049   7.446 -31.994  1.00  0.00    -0.017 A 
HETATM   21  C   UNL     1      -1.907   8.128 -31.137  1.00  0.00     0.125 A 
HETATM   22  N   UNL     1      -1.720   8.237 -29.800  1.00  0.00    -0.272 NA
HETATM   23  C   UNL     1      -0.624   7.637 -29.289  1.00  0.00     0.116 A 
HETATM   24  C   UNL     1       0.288   6.925 -30.051  1.00  0.00     0.020 A 
HETATM   25  C   UNL     1       0.067   6.825 -31.421  1.00  0.00     0.012 A 
ENDBRANCH  19  20
ENDBRANCH  18  19
ENDBRANCH   4  18
TORSDOF 6
ENDMDL
MODEL 5
REMARK VINA RESULT:      -7.4      3.099      4.490
REMARK  6 active torsions:
REMARK  status: ('A' for Active; 'I' for Inactive)
REMARK    1  A    between atoms: C_2  and  N_3 
REMARK    2  A    between atoms: C_2  and  C_11 
REMARK       I    between atoms: N_3  and  C_4 
REMARK    3  A    between atoms: C_4  and  C_5 
REMARK    4  A    between atoms: C_14  and  O_15 
REMARK    5  A    between atoms: O_15  and  C_16 
REMARK    6  A    between atoms: C_16  and  C_17 
ROOT
HETATM    1  C   UNL     1      -7.317   2.877 -33.528  1.00  0.00    -0.036 A 
HETATM    2  C   UNL     1      -6.101   2.175 -33.568  1.00  0.00     0.012 A 
HETATM    3  C   UNL     1      -6.071   0.780 -33.679  1.00  0.00     0.037 A 
HETATM    4  C   UNL     1      -7.261   0.060 -33.750  1.00  0.00     0.069 A 
HETATM    5  C   UNL     1      -8.473   0.751 -33.756  1.00  0.00     0.037 A 
HETATM    6  C   UNL     1      -8.505   2.146 -33.648  1.00  0.00     0.012 A 
ENDROOT
BRANCH   1   7
HETATM    7  C   UNL     1      -7.280   4.388 -33.393  1.00  0.00     0.113 C 
HETATM    8  C   UNL     1      -8.468   5.121 -34.022  1.00  0.00     0.037 C 
BRANCH   7   9
HETATM    9  N   UNL     1      -6.032   4.888 -33.947  1.00  0.00    -0.352 N 
HETATM   10  C   UNL     1      -5.060   5.434 -33.150  1.00  0.00     0.225 C 
HETATM   11  O   UNL     1      -5.097   5.468 -31.928  1.00  0.00    -0.273 OA
HETATM   12  H   UNL     1      -5.954   4.942 -34.954  1.00  0.00     0.163 HD
BRANCH  10  13
HETATM   13  C   UNL     1      -3.914   5.994 -33.893  1.00  0.00     0.119 A 
HETATM   14  C   UNL     1      -2.563   5.332 -33.813  1.00  0.00     0.126 A 
HETATM   15 CL   UNL     1      -1.150   6.386 -33.771  1.00  0.00    -0.101 Cl
HETATM   16 CL   UNL     1      -2.341   3.847 -32.903  1.00  0.00    -0.101 Cl
HETATM   17  C   UNL     1      -3.345   5.266 -35.091  1.00  0.00     0.060 A 
ENDBRANCH  10  13
ENDBRANCH   7   9
ENDBRANCH   1   7
BRANCH   4  18
HETATM   18  O   UNL     1      -7.371  -1.301 -33.827  1.00  0.00    -0.347 OA
BRANCH  18  19
HETATM   19  C   UNL     1      -6.855  -1.918 -35.007  1.00  0.00     0.215 C 
BRANCH  19  20
HETATM   20  C   UNL     1      -5.885  -3.003 -34.627  1.00  0.00    -0.017 A 
HETATM   21  C   UNL     1      -6.120  -4.335 -34.953  1.00  0.00     0.125 A 
HETATM   22  N   UNL     1      -5.268  -5.349 -34.673  1.00  0.00    -0.272 NA
HETATM   23  C   UNL     1      -4.124  -5.023 -34.036  1.00  0.00     0.116 A 
HETATM   24  C   UNL     1      -3.787  -3.729 -33.676  1.00  0.00     0.020 A 
HETATM   25  C   UNL     1      -4.679  -2.706 -33.982  1.00  0.00     0.012 A 
ENDBRANCH  19  20
ENDBRANCH  18  19
ENDBRANCH   4  18
TORSDOF 6
ENDMDL
MODEL 6
REMARK VINA RESULT:      -7.4      3.629      8.358
REMARK  6 active torsions:
REMARK  status: ('A' for Active; 'I' for Inactive)
REMARK    1  A    between atoms: C_2  and  N_3 
REMARK    2  A    between atoms: C_2  and  C_11 
REMARK       I    between atoms: N_3  and  C_4 
REMARK    3  A    between atoms: C_4  and  C_5 
REMARK    4  A    between atoms: C_14  and  O_15 
REMARK    5  A    between atoms: O_15  and  C_16 
REMARK    6  A    between atoms: C_16  and  C_17 
ROOT
HETATM    1  C   UNL     1      -6.264   3.811 -33.278  1.00  0.00    -0.036 A 
HETATM    2  C   UNL     1      -6.112   4.631 -32.147  1.00  0.00     0.012 A 
HETATM    3  C   UNL     1      -5.187   5.681 -32.132  1.00  0.00     0.037 A 
HETATM    4  C   UNL     1      -4.395   5.930 -33.250  1.00  0.00     0.069 A 
HETATM    5  C   UNL     1      -4.569   5.149 -34.393  1.00  0.00     0.037 A 
HETATM    6  C   UNL     1      -5.496   4.100 -34.412  1.00  0.00     0.012 A 
ENDROOT
BRANCH   1   7
HETATM    7  C   UNL     1      -7.275   2.680 -33.224  1.00  0.00     0.113 C 
HETATM    8  C   UNL     1      -7.898   2.437 -31.846  1.00  0.00     0.037 C 
BRANCH   7   9
HETATM    9  N   UNL     1      -6.657   1.460 -33.717  1.00  0.00    -0.352 N 
HETATM   10  C   UNL     1      -7.374   0.524 -34.417  1.00  0.00     0.225 C 
HETATM   11  O   UNL     1      -8.536   0.656 -34.770  1.00  0.00    -0.273 OA
HETATM   12  H   UNL     1      -5.712   1.258 -33.418  1.00  0.00     0.163 HD
BRANCH  10  13
HETATM   13  C   UNL     1      -6.614  -0.701 -34.738  1.00  0.00     0.119 A 
HETATM   14  C   UNL     1      -5.865  -1.433 -33.655  1.00  0.00     0.126 A 
HETATM   15 CL   UNL     1      -4.303  -2.131 -34.087  1.00  0.00    -0.101 Cl
HETATM   16 CL   UNL     1      -5.941  -0.895 -31.986  1.00  0.00    -0.101 Cl
HETATM   17  C   UNL     1      -7.093  -2.052 -34.254  1.00  0.00     0.060 A 
ENDBRANCH  10  13
ENDBRANCH   7   9
ENDBRANCH   1   7
BRANCH   4  18
HETATM   18  O   UNL     1      -3.435   6.899 -33.353  1.00  0.00    -0.347 OA
BRANCH  18  19
HETATM   19  C   UNL     1      -2.147   6.478 -33.802  1.00  0.00     0.215 C 
BRANCH  19  20
HETATM   20  C   UNL     1      -1.280   6.151 -32.617  1.00  0.00    -0.017 A 
HETATM   21  C   UNL     1      -1.275   4.881 -32.048  1.00  0.00     0.125 A 
HETATM   22  N   UNL     1      -0.490   4.517 -31.008  1.00  0.00    -0.272 NA
HETATM   23  C   UNL     1       0.332   5.462 -30.506  1.00  0.00     0.116 A 
HETATM   24  C   UNL     1       0.413   6.752 -31.004  1.00  0.00     0.020 A 
HETATM   25  C   UNL     1      -0.401   7.097 -32.078  1.00  0.00     0.012 A 
ENDBRANCH  19  20
ENDBRANCH  18  19
ENDBRANCH   4  18
TORSDOF 6
ENDMDL
MODEL 7
REMARK VINA RESULT:      -7.3      2.223      2.943
REMARK  6 active torsions:
REMARK  status: ('A' for Active; 'I' for Inactive)
REMARK    1  A    between atoms: C_2  and  N_3 
REMARK    2  A    between atoms: C_2  and  C_11 
REMARK       I    between atoms: N_3  and  C_4 
REMARK    3  A    between atoms: C_4  and  C_5 
REMARK    4  A    between atoms: C_14  and  O_15 
REMARK    5  A    between atoms: O_15  and  C_16 
REMARK    6  A    between atoms: C_16  and  C_17 
ROOT
HETATM    1  C   UNL     1      -4.675   2.807 -31.516  1.00  0.00    -0.036 A 
HETATM    2  C   UNL     1      -5.754   1.994 -31.131  1.00  0.00     0.012 A 
HETATM    3  C   UNL     1      -5.705   0.604 -31.280  1.00  0.00     0.037 A 
HETATM    4  C   UNL     1      -4.571  -0.000 -31.818  1.00  0.00     0.069 A 
HETATM    5  C   UNL     1      -3.477   0.793 -32.163  1.00  0.00     0.037 A 
HETATM    6  C   UNL     1      -3.523   2.185 -32.012  1.00  0.00     0.012 A 
ENDROOT
BRANCH   1   7
HETATM    7  C   UNL     1      -4.798   4.310 -31.341  1.00  0.00     0.113 C 
HETATM    8  C   UNL     1      -5.388   5.053 -32.543  1.00  0.00     0.037 C 
BRANCH   7   9
HETATM    9  N   UNL     1      -3.498   4.862 -30.999  1.00  0.00    -0.352 N 
HETATM   10  C   UNL     1      -3.372   6.088 -30.400  1.00  0.00     0.225 C 
HETATM   11  O   UNL     1      -4.307   6.775 -30.016  1.00  0.00    -0.273 OA
HETATM   12  H   UNL     1      -2.678   4.373 -31.334  1.00  0.00     0.163 HD
BRANCH  10  13
HETATM   13  C   UNL     1      -1.975   6.537 -30.232  1.00  0.00     0.119 A 
HETATM   14  C   UNL     1      -1.037   6.549 -31.410  1.00  0.00     0.126 A 
HETATM   15 CL   UNL     1       0.638   6.084 -31.111  1.00  0.00    -0.101 Cl
HETATM   16 CL   UNL     1      -1.599   6.106 -33.013  1.00  0.00    -0.101 Cl
HETATM   17  C   UNL     1      -1.513   7.848 -30.829  1.00  0.00     0.060 A 
ENDBRANCH  10  13
ENDBRANCH   7   9
ENDBRANCH   1   7
BRANCH   4  18
HETATM   18  O   UNL     1      -4.408  -1.339 -32.046  1.00  0.00    -0.347 OA
BRANCH  18  19
HETATM   19  C   UNL     1      -3.848  -1.710 -33.307  1.00  0.00     0.215 C 
BRANCH  19  20
HETATM   20  C   UNL     1      -4.712  -2.756 -33.956  1.00  0.00    -0.017 A 
HETATM   21  C   UNL     1      -4.299  -4.080 -34.056  1.00  0.00     0.125 A 
HETATM   22  N   UNL     1      -5.046  -5.073 -34.593  1.00  0.00    -0.272 NA
HETATM   23  C   UNL     1      -6.266  -4.731 -35.057  1.00  0.00     0.116 A 
HETATM   24  C   UNL     1      -6.779  -3.446 -34.998  1.00  0.00     0.020 A 
HETATM   25  C   UNL     1      -5.991  -2.447 -34.434  1.00  0.00     0.012 A 
ENDBRANCH  19  20
ENDBRANCH  18  19
ENDBRANCH   4  18
TORSDOF 6
ENDMDL
MODEL 8
REMARK VINA RESULT:      -7.2      1.576      1.842
REMARK  6 active torsions:
REMARK  status: ('A' for Active; 'I' for Inactive)
REMARK    1  A    between atoms: C_2  and  N_3 
REMARK    2  A    between atoms: C_2  and  C_11 
REMARK       I    between atoms: N_3  and  C_4 
REMARK    3  A    between atoms: C_4  and  C_5 
REMARK    4  A    between atoms: C_14  and  O_15 
REMARK    5  A    between atoms: O_15  and  C_16 
REMARK    6  A    between atoms: C_16  and  C_17 
ROOT
HETATM    1  C   UNL     1      -3.703   3.847 -32.005  1.00  0.00    -0.036 A 
HETATM    2  C   UNL     1      -4.980   3.753 -31.427  1.00  0.00     0.012 A 
HETATM    3  C   UNL     1      -5.631   2.521 -31.302  1.00  0.00     0.037 A 
HETATM    4  C   UNL     1      -5.014   1.357 -31.754  1.00  0.00     0.069 A 
HETATM    5  C   UNL     1      -3.728   1.433 -32.288  1.00  0.00     0.037 A 
HETATM    6  C   UNL     1      -3.074   2.664 -32.412  1.00  0.00     0.012 A 
ENDROOT
BRANCH   1   7
HETATM    7  C   UNL     1      -3.058   5.216 -32.124  1.00  0.00     0.113 C 
HETATM    8  C   UNL     1      -2.106   5.379 -33.312  1.00  0.00     0.037 C 
BRANCH   7   9
HETATM    9  N   UNL     1      -2.370   5.532 -30.883  1.00  0.00    -0.352 N 
HETATM   10  C   UNL     1      -2.462   6.772 -30.306  1.00  0.00     0.225 C 
HETATM   11  O   UNL     1      -3.180   7.676 -30.706  1.00  0.00    -0.273 OA
HETATM   12  H   UNL     1      -1.715   4.850 -30.523  1.00  0.00     0.163 HD
BRANCH  10  13
HETATM   13  C   UNL     1      -1.607   6.947 -29.115  1.00  0.00     0.119 A 
HETATM   14  C   UNL     1      -0.107   6.985 -29.257  1.00  0.00     0.126 A 
HETATM   15 CL   UNL     1       0.842   6.202 -27.993  1.00  0.00    -0.101 Cl
HETATM   16 CL   UNL     1       0.649   6.899 -30.839  1.00  0.00    -0.101 Cl
HETATM   17  C   UNL     1      -0.849   8.238 -28.896  1.00  0.00     0.060 A 
ENDBRANCH  10  13
ENDBRANCH   7   9
ENDBRANCH   1   7
BRANCH   4  18
HETATM   18  O   UNL     1      -5.552   0.100 -31.720  1.00  0.00    -0.347 OA
BRANCH  18  19
HETATM   19  C   UNL     1      -6.525  -0.207 -32.720  1.00  0.00     0.215 C 
BRANCH  19  20
HETATM   20  C   UNL     1      -6.079  -1.408 -33.508  1.00  0.00    -0.017 A 
HETATM   21  C   UNL     1      -4.745  -1.800 -33.543  1.00  0.00     0.125 A 
HETATM   22  N   UNL     1      -4.290  -2.892 -34.201  1.00  0.00    -0.272 NA
HETATM   23  C   UNL     1      -5.207  -3.631 -34.859  1.00  0.00     0.116 A 
HETATM   24  C   UNL     1      -6.560  -3.336 -34.880  1.00  0.00     0.020 A 
HETATM   25  C   UNL     1      -7.001  -2.212 -34.190  1.00  0.00     0.012 A 
ENDBRANCH  19  20
ENDBRANCH  18  19
ENDBRANCH   4  18
TORSDOF 6
ENDMDL
MODEL 9
REMARK VINA RESULT:      -7.0      1.682      2.179
REMARK  6 active torsions:
REMARK  status: ('A' for Active; 'I' for Inactive)
REMARK    1  A    between atoms: C_2  and  N_3 
REMARK    2  A    between atoms: C_2  and  C_11 
REMARK       I    between atoms: N_3  and  C_4 
REMARK    3  A    between atoms: C_4  and  C_5 
REMARK    4  A    between atoms: C_14  and  O_15 
REMARK    5  A    between atoms: O_15  and  C_16 
REMARK    6  A    between atoms: C_16  and  C_17 
ROOT
HETATM    1  C   UNL     1      -2.830   5.428 -31.773  1.00  0.00    -0.036 A 
HETATM    2  C   UNL     1      -2.430   4.444 -32.693  1.00  0.00     0.012 A 
HETATM    3  C   UNL     1      -3.113   3.227 -32.797  1.00  0.00     0.037 A 
HETATM    4  C   UNL     1      -4.212   2.972 -31.981  1.00  0.00     0.069 A 
HETATM    5  C   UNL     1      -4.645   3.960 -31.096  1.00  0.00     0.037 A 
HETATM    6  C   UNL     1      -3.965   5.179 -30.992  1.00  0.00     0.012 A 
ENDROOT
BRANCH   1   7
HETATM    7  C   UNL     1      -2.037   6.721 -31.701  1.00  0.00     0.113 C 
HETATM    8  C   UNL     1      -1.495   7.220 -33.043  1.00  0.00     0.037 C 
BRANCH   7   9
HETATM    9  N   UNL     1      -0.952   6.564 -30.747  1.00  0.00    -0.352 N 
HETATM   10  C   UNL     1      -0.680   7.521 -29.805  1.00  0.00     0.225 C 
HETATM   11  O   UNL     1      -1.354   8.522 -29.612  1.00  0.00    -0.273 OA
HETATM   12  H   UNL     1      -0.318   5.787 -30.880  1.00  0.00     0.163 HD
BRANCH  10  13
HETATM   13  C   UNL     1       0.527   7.249 -28.998  1.00  0.00     0.119 A 
HETATM   14  C   UNL     1       0.412   7.039 -27.511  1.00  0.00     0.126 A 
HETATM   15 CL   UNL     1       1.695   7.707 -26.501  1.00  0.00    -0.101 Cl
HETATM   16 CL   UNL     1      -1.155   7.036 -26.721  1.00  0.00    -0.101 Cl
HETATM   17  C   UNL     1       0.757   5.879 -28.398  1.00  0.00     0.060 A 
ENDBRANCH  10  13
ENDBRANCH   7   9
ENDBRANCH   1   7
BRANCH   4  18
HETATM   18  O   UNL     1      -4.944   1.817 -31.960  1.00  0.00    -0.347 OA
BRANCH  18  19
HETATM   19  C   UNL     1      -5.761   1.557 -33.103  1.00  0.00     0.215 C 
BRANCH  19  20
HETATM   20  C   UNL     1      -5.584   0.127 -33.536  1.00  0.00    -0.017 A 
HETATM   21  C   UNL     1      -6.436  -0.461 -34.465  1.00  0.00     0.125 A 
HETATM   22  N   UNL     1      -6.305  -1.728 -34.922  1.00  0.00    -0.272 NA
HETATM   23  C   UNL     1      -5.275  -2.448 -34.431  1.00  0.00     0.116 A 
HETATM   24  C   UNL     1      -4.363  -1.956 -33.511  1.00  0.00     0.020 A 
HETATM   25  C   UNL     1      -4.519  -0.648 -33.064  1.00  0.00     0.012 A 
ENDBRANCH  19  20
ENDBRANCH  18  19
ENDBRANCH   4  18
TORSDOF 6
ENDMDL
MODEL 10
REMARK VINA RESULT:      -7.0      6.907      8.031
REMARK  6 active torsions:
REMARK  status: ('A' for Active; 'I' for Inactive)
REMARK    1  A    between atoms: C_2  and  N_3 
REMARK    2  A    between atoms: C_2  and  C_11 
REMARK       I    between atoms: N_3  and  C_4 
REMARK    3  A    between atoms: C_4  and  C_5 
REMARK    4  A    between atoms: C_14  and  O_15 
REMARK    5  A    between atoms: O_15  and  C_16 
REMARK    6  A    between atoms: C_16  and  C_17 
ROOT
HETATM    1  C   UNL     1      -9.618   1.174 -33.036  1.00  0.00    -0.036 A 
HETATM    2  C   UNL     1      -8.953   0.751 -34.200  1.00  0.00     0.012 A 
HETATM    3  C   UNL     1      -7.716   0.100 -34.133  1.00  0.00     0.037 A 
HETATM    4  C   UNL     1      -7.120  -0.141 -32.897  1.00  0.00     0.069 A 
HETATM    5  C   UNL     1      -7.792   0.235 -31.734  1.00  0.00     0.037 A 
HETATM    6  C   UNL     1      -9.031   0.885 -31.798  1.00  0.00     0.012 A 
ENDROOT
BRANCH   1   7
HETATM    7  C   UNL     1     -10.950   1.888 -33.179  1.00  0.00     0.113 C 
HETATM    8  C   UNL     1     -11.934   1.227 -34.148  1.00  0.00     0.037 C 
BRANCH   7   9
HETATM    9  N   UNL     1     -10.715   3.269 -33.566  1.00  0.00    -0.352 N 
HETATM   10  C   UNL     1     -10.905   4.303 -32.688  1.00  0.00     0.225 C 
HETATM   11  O   UNL     1     -11.187   4.172 -31.506  1.00  0.00    -0.273 OA
HETATM   12  H   UNL     1     -10.531   3.458 -34.543  1.00  0.00     0.163 HD
BRANCH  10  13
HETATM   13  C   UNL     1     -10.731   5.643 -33.286  1.00  0.00     0.119 A 
HETATM   14  C   UNL     1     -11.694   6.135 -34.335  1.00  0.00     0.126 A 
HETATM   15 CL   UNL     1     -11.023   7.083 -35.663  1.00  0.00    -0.101 Cl
HETATM   16 CL   UNL     1     -13.079   5.167 -34.810  1.00  0.00    -0.101 Cl
HETATM   17  C   UNL     1     -11.703   6.758 -32.970  1.00  0.00     0.060 A 
ENDBRANCH  10  13
ENDBRANCH   7   9
ENDBRANCH   1   7
BRANCH   4  18
HETATM   18  O   UNL     1      -5.905  -0.735 -32.696  1.00  0.00    -0.347 OA
BRANCH  18  19
HETATM   19  C   UNL     1      -5.118  -0.992 -33.860  1.00  0.00     0.215 C 
BRANCH  19  20
HETATM   20  C   UNL     1      -5.074  -2.472 -34.124  1.00  0.00    -0.017 A 
HETATM   21  C   UNL     1      -4.024  -3.261 -33.665  1.00  0.00     0.125 A 
HETATM   22  N   UNL     1      -3.947  -4.601 -33.837  1.00  0.00    -0.272 NA
HETATM   23  C   UNL     1      -4.965  -5.188 -34.501  1.00  0.00     0.116 A 
HETATM   24  C   UNL     1      -6.062  -4.498 -34.990  1.00  0.00     0.020 A 
HETATM   25  C   UNL     1      -6.117  -3.122 -34.793  1.00  0.00     0.012 A 
ENDBRANCH  19  20
ENDBRANCH  18  19
ENDBRANCH   4  18
TORSDOF 6
ENDMDL
