MODEL 1
REMARK VINA RESULT:      -8.3      0.000      0.000
REMARK  8 active torsions:
REMARK  status: ('A' for Active; 'I' for Inactive)
REMARK    1  A    between atoms: C_5  and  C_6 
REMARK       I    between atoms: C_6  and  N_7 
REMARK    2  A    between atoms: N_7  and  C_8 
REMARK    3  A    between atoms: C_8  and  N_9 
REMARK    4  A    between atoms: C_8  and  C_25 
REMARK    5  A    between atoms: C_8  and  C_29 
REMARK    6  A    between atoms: N_9  and  C_10 
REMARK    7  A    between atoms: C_20  and  C_21 
REMARK    8  A    between atoms: C_21  and  O_22 
ROOT
HETATM    1  C   UNL     1      -8.509   1.262 -33.031  1.00  0.00     0.307 C 
ENDROOT
BRANCH   1   2
HETATM    2  N   UNL     1      -7.536   0.157 -33.147  1.00  0.00    -0.315 N 
HETATM    3  C   UNL     1      -7.246  -0.438 -34.346  1.00  0.00     0.254 C 
HETATM    4  O   UNL     1      -7.717  -0.056 -35.405  1.00  0.00    -0.268 OA
HETATM    5  H   UNL     1      -7.331  -0.347 -32.298  1.00  0.00     0.165 HD
BRANCH   3   6
HETATM    6  C   UNL     1      -6.338  -1.607 -34.280  1.00  0.00     0.032 A 
HETATM    7  C   UNL     1      -6.736  -2.858 -34.770  1.00  0.00     0.017 A 
HETATM    8  C   UNL     1      -5.865  -3.945 -34.689  1.00  0.00     0.007 A 
HETATM    9  C   UNL     1      -4.597  -3.796 -34.113  1.00  0.00    -0.062 A 
HETATM   10  C   UNL     1      -3.647  -4.957 -34.048  1.00  0.00     0.048 C 
HETATM   11  C   UNL     1      -4.205  -2.539 -33.632  1.00  0.00     0.007 A 
HETATM   12  C   UNL     1      -5.077  -1.451 -33.702  1.00  0.00     0.017 A 
ENDBRANCH   3   6
ENDBRANCH   1   2
BRANCH   1  13
HETATM   13  N   UNL     1      -7.841   2.315 -33.911  1.00  0.00    -0.342 N 
HETATM   14  H   UNL     1      -8.580   2.817 -34.419  1.00  0.00     0.163 HD
BRANCH  13  15
HETATM   15  C   UNL     1      -6.763   3.075 -33.548  1.00  0.00     0.089 A 
HETATM   16  S   UNL     1      -5.194   2.410 -33.349  1.00  0.00    -0.074 SA
HETATM   17  C   UNL     1      -4.484   3.912 -33.062  1.00  0.00     0.018 A 
HETATM   18  C   UNL     1      -5.396   4.943 -33.122  1.00  0.00    -0.023 A 
HETATM   19  C   UNL     1      -3.021   4.056 -32.820  1.00  0.00     0.281 C 
HETATM   20  C   UNL     1      -4.962   6.370 -32.900  1.00  0.00     0.068 C 
HETATM   21  C   UNL     1      -6.744   4.464 -33.382  1.00  0.00     0.080 A 
HETATM   22  C   UNL     1      -3.433   6.533 -32.986  1.00  0.00     0.239 C 
HETATM   23  N   UNL     1      -2.688   5.429 -32.246  1.00  0.00    -0.070 N 
HETATM   24  H   UNL     1      -1.689   5.574 -32.432  1.00  0.00     0.279 HD
HETATM   25  C   UNL     1      -2.849   5.490 -30.755  1.00  0.00     0.270 C 
BRANCH  21  26
HETATM   26  C   UNL     1      -7.926   5.342 -33.444  1.00  0.00     0.296 C 
HETATM   27  O   UNL     1      -8.289   6.021 -32.491  1.00  0.00    -0.259 OA
BRANCH  26  28
HETATM   28  O   UNL     1      -8.592   5.279 -34.635  1.00  0.00    -0.322 OA
HETATM   29  C   UNL     1      -9.993   5.013 -34.516  1.00  0.00     0.213 C 
ENDBRANCH  26  28
ENDBRANCH  21  26
ENDBRANCH  13  15
ENDBRANCH   1  13
BRANCH   1  30
HETATM   30  C   UNL     1      -9.996   0.936 -33.375  1.00  0.00     0.441 C 
HETATM   31  F   UNL     1     -10.331  -0.332 -33.017  1.00  0.00    -0.166 F 
HETATM   32  F   UNL     1     -10.898   1.753 -32.794  1.00  0.00    -0.166 F 
HETATM   33  F   UNL     1     -10.216   1.024 -34.715  1.00  0.00    -0.166 F 
ENDBRANCH   1  30
BRANCH   1  34
HETATM   34  C   UNL     1      -8.622   1.847 -31.584  1.00  0.00     0.441 C 
HETATM   35  F   UNL     1      -9.170   3.070 -31.498  1.00  0.00    -0.166 F 
HETATM   36  F   UNL     1      -9.416   1.014 -30.843  1.00  0.00    -0.166 F 
HETATM   37  F   UNL     1      -7.425   1.877 -30.952  1.00  0.00    -0.166 F 
ENDBRANCH   1  34
TORSDOF 8
ENDMDL
MODEL 2
REMARK VINA RESULT:      -8.1      2.442      3.403
REMARK  8 active torsions:
REMARK  status: ('A' for Active; 'I' for Inactive)
REMARK    1  A    between atoms: C_5  and  C_6 
REMARK       I    between atoms: C_6  and  N_7 
REMARK    2  A    between atoms: N_7  and  C_8 
REMARK    3  A    between atoms: C_8  and  N_9 
REMARK    4  A    between atoms: C_8  and  C_25 
REMARK    5  A    between atoms: C_8  and  C_29 
REMARK    6  A    between atoms: N_9  and  C_10 
REMARK    7  A    between atoms: C_20  and  C_21 
REMARK    8  A    between atoms: C_21  and  O_22 
ROOT
HETATM    1  C   UNL     1      -6.514   2.874 -32.635  1.00  0.00     0.307 C 
ENDROOT
BRANCH   1   2
HETATM    2  N   UNL     1      -6.494   1.511 -33.202  1.00  0.00    -0.315 N 
HETATM    3  C   UNL     1      -6.001   0.439 -32.507  1.00  0.00     0.254 C 
HETATM    4  O   UNL     1      -5.610   0.521 -31.355  1.00  0.00    -0.268 OA
HETATM    5  H   UNL     1      -6.559   1.446 -34.206  1.00  0.00     0.165 HD
BRANCH   3   6
HETATM    6  C   UNL     1      -5.943  -0.839 -33.256  1.00  0.00     0.032 A 
HETATM    7  C   UNL     1      -4.727  -1.504 -33.455  1.00  0.00     0.017 A 
HETATM    8  C   UNL     1      -4.698  -2.702 -34.170  1.00  0.00     0.007 A 
HETATM    9  C   UNL     1      -5.879  -3.241 -34.698  1.00  0.00    -0.062 A 
HETATM   10  C   UNL     1      -5.856  -4.543 -35.444  1.00  0.00     0.048 C 
HETATM   11  C   UNL     1      -7.093  -2.572 -34.486  1.00  0.00     0.007 A 
HETATM   12  C   UNL     1      -7.125  -1.369 -33.780  1.00  0.00     0.017 A 
ENDBRANCH   3   6
ENDBRANCH   1   2
BRANCH   1  13
HETATM   13  N   UNL     1      -5.231   2.852 -31.808  1.00  0.00    -0.342 N 
HETATM   14  H   UNL     1      -4.880   1.887 -31.795  1.00  0.00     0.163 HD
BRANCH  13  15
HETATM   15  C   UNL     1      -4.268   3.824 -31.823  1.00  0.00     0.089 A 
HETATM   16  S   UNL     1      -2.930   3.775 -32.896  1.00  0.00    -0.074 SA
HETATM   17  C   UNL     1      -2.354   5.282 -32.405  1.00  0.00     0.018 A 
HETATM   18  C   UNL     1      -3.152   5.860 -31.442  1.00  0.00    -0.023 A 
HETATM   19  C   UNL     1      -1.136   5.893 -33.010  1.00  0.00     0.281 C 
HETATM   20  C   UNL     1      -2.814   7.215 -30.873  1.00  0.00     0.068 C 
HETATM   21  C   UNL     1      -4.267   5.003 -31.072  1.00  0.00     0.080 A 
HETATM   22  C   UNL     1      -1.774   7.963 -31.727  1.00  0.00     0.239 C 
HETATM   23  N   UNL     1      -0.629   7.059 -32.170  1.00  0.00    -0.070 N 
HETATM   24  H   UNL     1      -0.040   7.619 -32.798  1.00  0.00     0.279 HD
HETATM   25  C   UNL     1       0.261   6.621 -31.044  1.00  0.00     0.270 C 
BRANCH  21  26
HETATM   26  C   UNL     1      -5.249   5.346 -30.028  1.00  0.00     0.296 C 
HETATM   27  O   UNL     1      -5.445   4.631 -29.052  1.00  0.00    -0.259 OA
BRANCH  26  28
HETATM   28  O   UNL     1      -5.942   6.494 -30.285  1.00  0.00    -0.322 OA
HETATM   29  C   UNL     1      -7.019   6.751 -29.378  1.00  0.00     0.213 C 
ENDBRANCH  26  28
ENDBRANCH  21  26
ENDBRANCH  13  15
ENDBRANCH   1  13
BRANCH   1  30
HETATM   30  C   UNL     1      -6.649   4.060 -33.643  1.00  0.00     0.441 C 
HETATM   31  F   UNL     1      -7.878   4.091 -34.223  1.00  0.00    -0.166 F 
HETATM   32  F   UNL     1      -6.443   5.279 -33.105  1.00  0.00    -0.166 F 
HETATM   33  F   UNL     1      -5.751   3.938 -34.658  1.00  0.00    -0.166 F 
ENDBRANCH   1  30
BRANCH   1  34
HETATM   34  C   UNL     1      -7.710   3.130 -31.659  1.00  0.00     0.441 C 
HETATM   35  F   UNL     1      -8.107   4.409 -31.555  1.00  0.00    -0.166 F 
HETATM   36  F   UNL     1      -8.792   2.425 -32.110  1.00  0.00    -0.166 F 
HETATM   37  F   UNL     1      -7.458   2.666 -30.413  1.00  0.00    -0.166 F 
ENDBRANCH   1  34
TORSDOF 8
ENDMDL
MODEL 3
REMARK VINA RESULT:      -7.9      1.897      2.572
REMARK  8 active torsions:
REMARK  status: ('A' for Active; 'I' for Inactive)
REMARK    1  A    between atoms: C_5  and  C_6 
REMARK       I    between atoms: C_6  and  N_7 
REMARK    2  A    between atoms: N_7  and  C_8 
REMARK    3  A    between atoms: C_8  and  N_9 
REMARK    4  A    between atoms: C_8  and  C_25 
REMARK    5  A    between atoms: C_8  and  C_29 
REMARK    6  A    between atoms: N_9  and  C_10 
REMARK    7  A    between atoms: C_20  and  C_21 
REMARK    8  A    between atoms: C_21  and  O_22 
ROOT
HETATM    1  C   UNL     1      -6.259   2.330 -31.815  1.00  0.00     0.307 C 
ENDROOT
BRANCH   1   2
HETATM    2  N   UNL     1      -5.961   0.982 -32.338  1.00  0.00    -0.315 N 
HETATM    3  C   UNL     1      -6.303   0.599 -33.607  1.00  0.00     0.254 C 
HETATM    4  O   UNL     1      -6.813   1.360 -34.413  1.00  0.00    -0.268 OA
HETATM    5  H   UNL     1      -5.788   0.266 -31.649  1.00  0.00     0.165 HD
BRANCH   3   6
HETATM    6  C   UNL     1      -6.041  -0.821 -33.942  1.00  0.00     0.032 A 
HETATM    7  C   UNL     1      -7.071  -1.659 -34.388  1.00  0.00     0.017 A 
HETATM    8  C   UNL     1      -6.799  -2.994 -34.690  1.00  0.00     0.007 A 
HETATM    9  C   UNL     1      -5.504  -3.506 -34.540  1.00  0.00    -0.062 A 
HETATM   10  C   UNL     1      -5.203  -4.935 -34.889  1.00  0.00     0.048 C 
HETATM   11  C   UNL     1      -4.478  -2.658 -34.100  1.00  0.00     0.007 A 
HETATM   12  C   UNL     1      -4.747  -1.324 -33.788  1.00  0.00     0.017 A 
ENDBRANCH   3   6
ENDBRANCH   1   2
BRANCH   1  13
HETATM   13  N   UNL     1      -5.562   3.196 -32.862  1.00  0.00    -0.342 N 
HETATM   14  H   UNL     1      -6.274   3.529 -33.522  1.00  0.00     0.163 HD
BRANCH  13  15
HETATM   15  C   UNL     1      -4.546   4.076 -32.605  1.00  0.00     0.089 A 
HETATM   16  S   UNL     1      -2.893   3.622 -32.685  1.00  0.00    -0.074 SA
HETATM   17  C   UNL     1      -2.346   5.190 -32.396  1.00  0.00     0.018 A 
HETATM   18  C   UNL     1      -3.380   6.089 -32.247  1.00  0.00    -0.023 A 
HETATM   19  C   UNL     1      -0.893   5.521 -32.359  1.00  0.00     0.281 C 
HETATM   20  C   UNL     1      -3.103   7.548 -31.988  1.00  0.00     0.068 C 
HETATM   21  C   UNL     1      -4.679   5.443 -32.343  1.00  0.00     0.080 A 
HETATM   22  C   UNL     1      -1.639   7.924 -32.283  1.00  0.00     0.239 C 
HETATM   23  N   UNL     1      -0.654   6.894 -31.742  1.00  0.00    -0.070 N 
HETATM   24  H   UNL     1       0.278   7.184 -32.059  1.00  0.00     0.279 HD
HETATM   25  C   UNL     1      -0.590   6.854 -30.243  1.00  0.00     0.270 C 
BRANCH  21  26
HETATM   26  C   UNL     1      -5.960   6.153 -32.169  1.00  0.00     0.296 C 
HETATM   27  O   UNL     1      -6.199   6.840 -31.184  1.00  0.00    -0.259 OA
BRANCH  26  28
HETATM   28  O   UNL     1      -6.852   5.926 -33.177  1.00  0.00    -0.322 OA
HETATM   29  C   UNL     1      -8.208   6.248 -32.851  1.00  0.00     0.213 C 
ENDBRANCH  26  28
ENDBRANCH  21  26
ENDBRANCH  13  15
ENDBRANCH   1  13
BRANCH   1  30
HETATM   30  C   UNL     1      -7.758   2.671 -31.545  1.00  0.00     0.441 C 
HETATM   31  F   UNL     1      -8.448   1.590 -31.096  1.00  0.00    -0.166 F 
HETATM   32  F   UNL     1      -7.956   3.657 -30.646  1.00  0.00    -0.166 F 
HETATM   33  F   UNL     1      -8.379   3.072 -32.687  1.00  0.00    -0.166 F 
ENDBRANCH   1  30
BRANCH   1  34
HETATM   34  C   UNL     1      -5.595   2.626 -30.429  1.00  0.00     0.441 C 
HETATM   35  F   UNL     1      -5.715   3.889 -29.990  1.00  0.00    -0.166 F 
HETATM   36  F   UNL     1      -6.191   1.831 -29.488  1.00  0.00    -0.166 F 
HETATM   37  F   UNL     1      -4.282   2.298 -30.414  1.00  0.00    -0.166 F 
ENDBRANCH   1  34
TORSDOF 8
ENDMDL
MODEL 4
REMARK VINA RESULT:      -7.9      2.869      6.348
REMARK  8 active torsions:
REMARK  status: ('A' for Active; 'I' for Inactive)
REMARK    1  A    between atoms: C_5  and  C_6 
REMARK       I    between atoms: C_6  and  N_7 
REMARK    2  A    between atoms: N_7  and  C_8 
REMARK    3  A    between atoms: C_8  and  N_9 
REMARK    4  A    between atoms: C_8  and  C_25 
REMARK    5  A    between atoms: C_8  and  C_29 
REMARK    6  A    between atoms: N_9  and  C_10 
REMARK    7  A    between atoms: C_20  and  C_21 
REMARK    8  A    between atoms: C_21  and  O_22 
ROOT
HETATM    1  C   UNL     1      -6.086   1.168 -32.717  1.00  0.00     0.307 C 
ENDROOT
BRANCH   1   2
HETATM    2  N   UNL     1      -5.002   2.169 -32.757  1.00  0.00    -0.315 N 
HETATM    3  C   UNL     1      -4.692   2.954 -31.678  1.00  0.00     0.254 C 
HETATM    4  O   UNL     1      -5.241   2.836 -30.595  1.00  0.00    -0.268 OA
HETATM    5  H   UNL     1      -4.711   2.473 -33.673  1.00  0.00     0.165 HD
BRANCH   3   6
HETATM    6  C   UNL     1      -3.658   3.989 -31.913  1.00  0.00     0.032 A 
HETATM    7  C   UNL     1      -2.705   3.839 -32.929  1.00  0.00     0.017 A 
HETATM    8  C   UNL     1      -1.737   4.825 -33.125  1.00  0.00     0.007 A 
HETATM    9  C   UNL     1      -1.706   5.961 -32.306  1.00  0.00    -0.062 A 
HETATM   10  C   UNL     1      -0.683   7.036 -32.531  1.00  0.00     0.048 C 
HETATM   11  C   UNL     1      -2.669   6.106 -31.297  1.00  0.00     0.007 A 
HETATM   12  C   UNL     1      -3.633   5.118 -31.092  1.00  0.00     0.017 A 
ENDBRANCH   3   6
ENDBRANCH   1   2
BRANCH   1  13
HETATM   13  N   UNL     1      -7.193   1.981 -32.050  1.00  0.00    -0.342 N 
HETATM   14  H   UNL     1      -6.751   2.640 -31.397  1.00  0.00     0.163 HD
BRANCH  13  15
HETATM   15  C   UNL     1      -8.315   2.446 -32.679  1.00  0.00     0.089 A 
HETATM   16  S   UNL     1      -9.814   1.612 -32.620  1.00  0.00    -0.074 SA
HETATM   17  C   UNL     1     -10.635   2.824 -33.457  1.00  0.00     0.018 A 
HETATM   18  C   UNL     1      -9.815   3.882 -33.787  1.00  0.00    -0.023 A 
HETATM   19  C   UNL     1     -12.095   2.731 -33.744  1.00  0.00     0.281 C 
HETATM   20  C   UNL     1     -10.358   5.074 -34.533  1.00  0.00     0.068 C 
HETATM   21  C   UNL     1      -8.444   3.662 -33.358  1.00  0.00     0.080 A 
HETATM   22  C   UNL     1     -11.898   5.116 -34.523  1.00  0.00     0.239 C 
HETATM   23  N   UNL     1     -12.517   3.751 -34.795  1.00  0.00    -0.070 N 
HETATM   24  H   UNL     1     -13.532   3.862 -34.683  1.00  0.00     0.279 HD
HETATM   25  C   UNL     1     -12.303   3.262 -36.198  1.00  0.00     0.270 C 
BRANCH  21  26
HETATM   26  C   UNL     1      -7.342   4.605 -33.626  1.00  0.00     0.296 C 
HETATM   27  O   UNL     1      -6.389   4.313 -34.337  1.00  0.00    -0.259 OA
BRANCH  26  28
HETATM   28  O   UNL     1      -7.469   5.795 -32.968  1.00  0.00    -0.322 OA
HETATM   29  C   UNL     1      -7.319   5.705 -31.548  1.00  0.00     0.213 C 
ENDBRANCH  26  28
ENDBRANCH  21  26
ENDBRANCH  13  15
ENDBRANCH   1  13
BRANCH   1  30
HETATM   30  C   UNL     1      -6.469   0.483 -34.067  1.00  0.00     0.441 C 
HETATM   31  F   UNL     1      -5.502  -0.373 -34.490  1.00  0.00    -0.166 F 
HETATM   32  F   UNL     1      -7.620  -0.219 -34.032  1.00  0.00    -0.166 F 
HETATM   33  F   UNL     1      -6.620   1.406 -35.055  1.00  0.00    -0.166 F 
ENDBRANCH   1  30
BRANCH   1  34
HETATM   34  C   UNL     1      -5.773  -0.059 -31.798  1.00  0.00     0.441 C 
HETATM   35  F   UNL     1      -6.142  -1.255 -32.286  1.00  0.00    -0.166 F 
HETATM   36  F   UNL     1      -4.419  -0.121 -31.608  1.00  0.00    -0.166 F 
HETATM   37  F   UNL     1      -6.314   0.077 -30.565  1.00  0.00    -0.166 F 
ENDBRANCH   1  34
TORSDOF 8
ENDMDL
MODEL 5
REMARK VINA RESULT:      -7.8      2.739      3.761
REMARK  8 active torsions:
REMARK  status: ('A' for Active; 'I' for Inactive)
REMARK    1  A    between atoms: C_5  and  C_6 
REMARK       I    between atoms: C_6  and  N_7 
REMARK    2  A    between atoms: N_7  and  C_8 
REMARK    3  A    between atoms: C_8  and  N_9 
REMARK    4  A    between atoms: C_8  and  C_25 
REMARK    5  A    between atoms: C_8  and  C_29 
REMARK    6  A    between atoms: N_9  and  C_10 
REMARK    7  A    between atoms: C_20  and  C_21 
REMARK    8  A    between atoms: C_21  and  O_22 
ROOT
HETATM    1  C   UNL     1      -8.738   1.338 -32.852  1.00  0.00     0.307 C 
ENDROOT
BRANCH   1   2
HETATM    2  N   UNL     1      -7.714   0.286 -33.003  1.00  0.00    -0.315 N 
HETATM    3  C   UNL     1      -7.412  -0.271 -34.217  1.00  0.00     0.254 C 
HETATM    4  O   UNL     1      -7.917   0.106 -35.261  1.00  0.00    -0.268 OA
HETATM    5  H   UNL     1      -7.471  -0.222 -32.166  1.00  0.00     0.165 HD
BRANCH   3   6
HETATM    6  C   UNL     1      -6.446  -1.395 -34.185  1.00  0.00     0.032 A 
HETATM    7  C   UNL     1      -6.759  -2.632 -34.762  1.00  0.00     0.017 A 
HETATM    8  C   UNL     1      -5.834  -3.676 -34.713  1.00  0.00     0.007 A 
HETATM    9  C   UNL     1      -4.597  -3.498 -34.080  1.00  0.00    -0.062 A 
HETATM   10  C   UNL     1      -3.590  -4.611 -34.048  1.00  0.00     0.048 C 
HETATM   11  C   UNL     1      -4.290  -2.254 -33.512  1.00  0.00     0.007 A 
HETATM   12  C   UNL     1      -5.216  -1.210 -33.551  1.00  0.00     0.017 A 
ENDBRANCH   3   6
ENDBRANCH   1   2
BRANCH   1  13
HETATM   13  N   UNL     1      -8.690   1.561 -31.343  1.00  0.00    -0.342 N 
HETATM   14  H   UNL     1      -8.404   0.678 -30.902  1.00  0.00     0.163 HD
BRANCH  13  15
HETATM   15  C   UNL     1      -8.234   2.695 -30.729  1.00  0.00     0.089 A 
HETATM   16  S   UNL     1      -9.293   3.898 -30.114  1.00  0.00    -0.074 SA
HETATM   17  C   UNL     1      -8.037   4.806 -29.451  1.00  0.00     0.018 A 
HETATM   18  C   UNL     1      -6.804   4.227 -29.658  1.00  0.00    -0.023 A 
HETATM   19  C   UNL     1      -8.292   6.065 -28.694  1.00  0.00     0.281 C 
HETATM   20  C   UNL     1      -5.549   4.879 -29.137  1.00  0.00     0.068 C 
HETATM   21  C   UNL     1      -6.902   2.999 -30.430  1.00  0.00     0.080 A 
HETATM   22  C   UNL     1      -5.850   5.971 -28.093  1.00  0.00     0.239 C 
HETATM   23  N   UNL     1      -7.010   6.867 -28.509  1.00  0.00    -0.070 N 
HETATM   24  H   UNL     1      -7.189   7.501 -27.720  1.00  0.00     0.279 HD
HETATM   25  C   UNL     1      -6.699   7.745 -29.686  1.00  0.00     0.270 C 
BRANCH  21  26
HETATM   26  C   UNL     1      -5.735   2.200 -30.846  1.00  0.00     0.296 C 
HETATM   27  O   UNL     1      -5.594   1.027 -30.520  1.00  0.00    -0.259 OA
BRANCH  26  28
HETATM   28  O   UNL     1      -4.822   2.905 -31.576  1.00  0.00    -0.322 OA
HETATM   29  C   UNL     1      -3.460   2.539 -31.333  1.00  0.00     0.213 C 
ENDBRANCH  26  28
ENDBRANCH  21  26
ENDBRANCH  13  15
ENDBRANCH   1  13
BRANCH   1  30
HETATM   30  C   UNL     1      -8.575   2.619 -33.730  1.00  0.00     0.441 C 
HETATM   31  F   UNL     1      -9.112   2.454 -34.968  1.00  0.00    -0.166 F 
HETATM   32  F   UNL     1      -9.134   3.730 -33.211  1.00  0.00    -0.166 F 
HETATM   33  F   UNL     1      -7.260   2.912 -33.922  1.00  0.00    -0.166 F 
ENDBRANCH   1  30
BRANCH   1  34
HETATM   34  C   UNL     1     -10.183   0.864 -33.221  1.00  0.00     0.441 C 
HETATM   35  F   UNL     1     -10.427   0.727 -34.535  1.00  0.00    -0.166 F 
HETATM   36  F   UNL     1     -10.389  -0.367 -32.660  1.00  0.00    -0.166 F 
HETATM   37  F   UNL     1     -11.133   1.673 -32.700  1.00  0.00    -0.166 F 
ENDBRANCH   1  34
TORSDOF 8
ENDMDL
MODEL 6
REMARK VINA RESULT:      -7.8      2.973      5.418
REMARK  8 active torsions:
REMARK  status: ('A' for Active; 'I' for Inactive)
REMARK    1  A    between atoms: C_5  and  C_6 
REMARK       I    between atoms: C_6  and  N_7 
REMARK    2  A    between atoms: N_7  and  C_8 
REMARK    3  A    between atoms: C_8  and  N_9 
REMARK    4  A    between atoms: C_8  and  C_25 
REMARK    5  A    between atoms: C_8  and  C_29 
REMARK    6  A    between atoms: N_9  and  C_10 
REMARK    7  A    between atoms: C_20  and  C_21 
REMARK    8  A    between atoms: C_21  and  O_22 
ROOT
HETATM    1  C   UNL     1      -5.471   2.832 -32.637  1.00  0.00     0.307 C 
ENDROOT
BRANCH   1   2
HETATM    2  N   UNL     1      -5.675   1.497 -33.234  1.00  0.00    -0.315 N 
HETATM    3  C   UNL     1      -5.537   0.344 -32.509  1.00  0.00     0.254 C 
HETATM    4  O   UNL     1      -5.304   0.340 -31.311  1.00  0.00    -0.268 OA
HETATM    5  H   UNL     1      -5.611   1.444 -34.239  1.00  0.00     0.165 HD
BRANCH   3   6
HETATM    6  C   UNL     1      -5.661  -0.917 -33.278  1.00  0.00     0.032 A 
HETATM    7  C   UNL     1      -4.544  -1.729 -33.515  1.00  0.00     0.017 A 
HETATM    8  C   UNL     1      -4.686  -2.908 -34.249  1.00  0.00     0.007 A 
HETATM    9  C   UNL     1      -5.937  -3.280 -34.758  1.00  0.00    -0.062 A 
HETATM   10  C   UNL     1      -6.097  -4.561 -35.525  1.00  0.00     0.048 C 
HETATM   11  C   UNL     1      -7.049  -2.465 -34.509  1.00  0.00     0.007 A 
HETATM   12  C   UNL     1      -6.911  -1.280 -33.784  1.00  0.00     0.017 A 
ENDBRANCH   3   6
ENDBRANCH   1   2
BRANCH   1  13
HETATM   13  N   UNL     1      -6.611   2.862 -31.622  1.00  0.00    -0.342 N 
HETATM   14  H   UNL     1      -6.292   3.394 -30.803  1.00  0.00     0.163 HD
BRANCH  13  15
HETATM   15  C   UNL     1      -7.936   3.005 -31.931  1.00  0.00     0.089 A 
HETATM   16  S   UNL     1      -8.789   1.855 -32.877  1.00  0.00    -0.074 SA
HETATM   17  C   UNL     1     -10.267   2.643 -32.683  1.00  0.00     0.018 A 
HETATM   18  C   UNL     1     -10.161   3.772 -31.899  1.00  0.00    -0.023 A 
HETATM   19  C   UNL     1     -11.525   2.111 -33.278  1.00  0.00     0.281 C 
HETATM   20  C   UNL     1     -11.371   4.617 -31.597  1.00  0.00     0.068 C 
HETATM   21  C   UNL     1      -8.792   4.010 -31.471  1.00  0.00     0.080 A 
HETATM   22  C   UNL     1     -12.688   3.889 -31.928  1.00  0.00     0.239 C 
HETATM   23  N   UNL     1     -12.629   3.162 -33.266  1.00  0.00    -0.070 N 
HETATM   24  H   UNL     1     -13.510   2.642 -33.357  1.00  0.00     0.279 HD
HETATM   25  C   UNL     1     -12.567   4.085 -34.449  1.00  0.00     0.270 C 
BRANCH  21  26
HETATM   26  C   UNL     1      -8.378   5.175 -30.668  1.00  0.00     0.296 C 
HETATM   27  O   UNL     1      -8.393   6.316 -31.113  1.00  0.00    -0.259 OA
BRANCH  26  28
HETATM   28  O   UNL     1      -7.935   4.848 -29.418  1.00  0.00    -0.322 OA
HETATM   29  C   UNL     1      -7.875   5.948 -28.505  1.00  0.00     0.213 C 
ENDBRANCH  26  28
ENDBRANCH  21  26
ENDBRANCH  13  15
ENDBRANCH   1  13
BRANCH   1  30
HETATM   30  C   UNL     1      -4.051   3.145 -32.069  1.00  0.00     0.441 C 
HETATM   31  F   UNL     1      -3.933   2.766 -30.769  1.00  0.00    -0.166 F 
HETATM   32  F   UNL     1      -3.038   2.558 -32.737  1.00  0.00    -0.166 F 
HETATM   33  F   UNL     1      -3.799   4.482 -32.100  1.00  0.00    -0.166 F 
ENDBRANCH   1  30
BRANCH   1  34
HETATM   34  C   UNL     1      -5.694   4.009 -33.643  1.00  0.00     0.441 C 
HETATM   35  F   UNL     1      -4.635   4.324 -34.407  1.00  0.00    -0.166 F 
HETATM   36  F   UNL     1      -6.699   3.657 -34.503  1.00  0.00    -0.166 F 
HETATM   37  F   UNL     1      -6.115   5.136 -33.023  1.00  0.00    -0.166 F 
ENDBRANCH   1  34
TORSDOF 8
ENDMDL
MODEL 7
REMARK VINA RESULT:      -7.8      2.884      4.184
REMARK  8 active torsions:
REMARK  status: ('A' for Active; 'I' for Inactive)
REMARK    1  A    between atoms: C_5  and  C_6 
REMARK       I    between atoms: C_6  and  N_7 
REMARK    2  A    between atoms: N_7  and  C_8 
REMARK    3  A    between atoms: C_8  and  N_9 
REMARK    4  A    between atoms: C_8  and  C_25 
REMARK    5  A    between atoms: C_8  and  C_29 
REMARK    6  A    between atoms: N_9  and  C_10 
REMARK    7  A    between atoms: C_20  and  C_21 
REMARK    8  A    between atoms: C_21  and  O_22 
ROOT
HETATM    1  C   UNL     1      -6.587   3.513 -32.656  1.00  0.00     0.307 C 
ENDROOT
BRANCH   1   2
HETATM    2  N   UNL     1      -6.522   2.143 -33.201  1.00  0.00    -0.315 N 
HETATM    3  C   UNL     1      -6.325   1.048 -32.403  1.00  0.00     0.254 C 
HETATM    4  O   UNL     1      -6.258   1.119 -31.187  1.00  0.00    -0.268 OA
HETATM    5  H   UNL     1      -6.315   2.065 -34.185  1.00  0.00     0.165 HD
BRANCH   3   6
HETATM    6  C   UNL     1      -6.166  -0.244 -33.112  1.00  0.00     0.032 A 
HETATM    7  C   UNL     1      -4.912  -0.857 -33.223  1.00  0.00     0.017 A 
HETATM    8  C   UNL     1      -4.788  -2.070 -33.902  1.00  0.00     0.007 A 
HETATM    9  C   UNL     1      -5.910  -2.674 -34.484  1.00  0.00    -0.062 A 
HETATM   10  C   UNL     1      -5.785  -3.991 -35.193  1.00  0.00     0.048 C 
HETATM   11  C   UNL     1      -7.163  -2.056 -34.362  1.00  0.00     0.007 A 
HETATM   12  C   UNL     1      -7.289  -0.839 -33.691  1.00  0.00     0.017 A 
ENDBRANCH   3   6
ENDBRANCH   1   2
BRANCH   1  13
HETATM   13  N   UNL     1      -5.454   3.462 -31.634  1.00  0.00    -0.342 N 
HETATM   14  H   UNL     1      -4.963   2.568 -31.751  1.00  0.00     0.163 HD
BRANCH  13  15
HETATM   15  C   UNL     1      -4.662   4.522 -31.285  1.00  0.00     0.089 A 
HETATM   16  S   UNL     1      -5.158   5.704 -30.144  1.00  0.00    -0.074 SA
HETATM   17  C   UNL     1      -3.675   6.505 -30.180  1.00  0.00     0.018 A 
HETATM   18  C   UNL     1      -2.773   5.903 -31.030  1.00  0.00    -0.023 A 
HETATM   19  C   UNL     1      -3.408   7.702 -29.332  1.00  0.00     0.281 C 
HETATM   20  C   UNL     1      -1.384   6.461 -31.201  1.00  0.00     0.068 C 
HETATM   21  C   UNL     1      -3.348   4.751 -31.705  1.00  0.00     0.080 A 
HETATM   22  C   UNL     1      -1.020   7.469 -30.094  1.00  0.00     0.239 C 
HETATM   23  N   UNL     1      -2.157   8.439 -29.796  1.00  0.00    -0.070 N 
HETATM   24  H   UNL     1      -1.855   9.007 -28.995  1.00  0.00     0.279 HD
HETATM   25  C   UNL     1      -2.432   9.404 -30.912  1.00  0.00     0.270 C 
BRANCH  21  26
HETATM   26  C   UNL     1      -2.627   3.949 -32.711  1.00  0.00     0.296 C 
HETATM   27  O   UNL     1      -2.706   2.728 -32.755  1.00  0.00    -0.259 OA
BRANCH  26  28
HETATM   28  O   UNL     1      -1.837   4.694 -33.540  1.00  0.00    -0.322 OA
HETATM   29  C   UNL     1      -2.527   5.273 -34.652  1.00  0.00     0.213 C 
ENDBRANCH  26  28
ENDBRANCH  21  26
ENDBRANCH  13  15
ENDBRANCH   1  13
BRANCH   1  30
HETATM   30  C   UNL     1      -6.522   4.689 -33.681  1.00  0.00     0.441 C 
HETATM   31  F   UNL     1      -7.686   4.820 -34.371  1.00  0.00    -0.166 F 
HETATM   32  F   UNL     1      -6.256   5.893 -33.137  1.00  0.00    -0.166 F 
HETATM   33  F   UNL     1      -5.552   4.471 -34.609  1.00  0.00    -0.166 F 
ENDBRANCH   1  30
BRANCH   1  34
HETATM   34  C   UNL     1      -7.914   3.818 -31.884  1.00  0.00     0.441 C 
HETATM   35  F   UNL     1      -9.007   3.185 -32.343  1.00  0.00    -0.166 F 
HETATM   36  F   UNL     1      -7.757   3.422 -30.583  1.00  0.00    -0.166 F 
HETATM   37  F   UNL     1      -8.184   5.143 -31.838  1.00  0.00    -0.166 F 
ENDBRANCH   1  34
TORSDOF 8
ENDMDL
MODEL 8
REMARK VINA RESULT:      -7.7      5.290      7.900
REMARK  8 active torsions:
REMARK  status: ('A' for Active; 'I' for Inactive)
REMARK    1  A    between atoms: C_5  and  C_6 
REMARK       I    between atoms: C_6  and  N_7 
REMARK    2  A    between atoms: N_7  and  C_8 
REMARK    3  A    between atoms: C_8  and  N_9 
REMARK    4  A    between atoms: C_8  and  C_25 
REMARK    5  A    between atoms: C_8  and  C_29 
REMARK    6  A    between atoms: N_9  and  C_10 
REMARK    7  A    between atoms: C_20  and  C_21 
REMARK    8  A    between atoms: C_21  and  O_22 
ROOT
HETATM    1  C   UNL     1      -2.128   5.983 -31.941  1.00  0.00     0.307 C 
ENDROOT
BRANCH   1   2
HETATM    2  N   UNL     1      -3.169   4.998 -32.295  1.00  0.00    -0.315 N 
HETATM    3  C   UNL     1      -3.081   3.680 -31.933  1.00  0.00     0.254 C 
HETATM    4  O   UNL     1      -2.176   3.244 -31.241  1.00  0.00    -0.268 OA
HETATM    5  H   UNL     1      -3.776   5.247 -33.061  1.00  0.00     0.165 HD
BRANCH   3   6
HETATM    6  C   UNL     1      -4.146   2.796 -32.463  1.00  0.00     0.032 A 
HETATM    7  C   UNL     1      -5.275   3.328 -33.098  1.00  0.00     0.017 A 
HETATM    8  C   UNL     1      -6.267   2.474 -33.582  1.00  0.00     0.007 A 
HETATM    9  C   UNL     1      -6.146   1.087 -33.428  1.00  0.00    -0.062 A 
HETATM   10  C   UNL     1      -7.199   0.165 -33.970  1.00  0.00     0.048 C 
HETATM   11  C   UNL     1      -5.009   0.564 -32.797  1.00  0.00     0.007 A 
HETATM   12  C   UNL     1      -4.018   1.415 -32.304  1.00  0.00     0.017 A 
ENDBRANCH   3   6
ENDBRANCH   1   2
BRANCH   1  13
HETATM   13  N   UNL     1      -2.157   5.886 -30.418  1.00  0.00    -0.342 N 
HETATM   14  H   UNL     1      -2.116   4.891 -30.164  1.00  0.00     0.163 HD
BRANCH  13  15
HETATM   15  C   UNL     1      -1.507   6.733 -29.563  1.00  0.00     0.089 A 
HETATM   16  S   UNL     1       0.199   6.725 -29.379  1.00  0.00    -0.074 SA
HETATM   17  C   UNL     1       0.193   8.051 -28.338  1.00  0.00     0.018 A 
HETATM   18  C   UNL     1      -1.077   8.538 -28.115  1.00  0.00    -0.023 A 
HETATM   19  C   UNL     1       1.454   8.620 -27.783  1.00  0.00     0.281 C 
HETATM   20  C   UNL     1      -1.299   9.728 -27.217  1.00  0.00     0.068 C 
HETATM   21  C   UNL     1      -2.088   7.758 -28.809  1.00  0.00     0.080 A 
HETATM   22  C   UNL     1       0.006  10.494 -26.930  1.00  0.00     0.239 C 
HETATM   23  N   UNL     1       1.170   9.561 -26.618  1.00  0.00    -0.070 N 
HETATM   24  H   UNL     1       2.005  10.153 -26.528  1.00  0.00     0.279 HD
HETATM   25  C   UNL     1       1.028   8.839 -25.310  1.00  0.00     0.270 C 
BRANCH  21  26
HETATM   26  C   UNL     1      -3.535   8.020 -28.706  1.00  0.00     0.296 C 
HETATM   27  O   UNL     1      -4.036   9.083 -29.052  1.00  0.00    -0.259 OA
BRANCH  26  28
HETATM   28  O   UNL     1      -4.238   6.991 -28.146  1.00  0.00    -0.322 OA
HETATM   29  C   UNL     1      -4.368   7.068 -26.723  1.00  0.00     0.213 C 
ENDBRANCH  26  28
ENDBRANCH  21  26
ENDBRANCH  13  15
ENDBRANCH   1  13
BRANCH   1  30
HETATM   30  C   UNL     1      -0.726   5.803 -32.604  1.00  0.00     0.441 C 
HETATM   31  F   UNL     1      -0.825   5.298 -33.863  1.00  0.00    -0.166 F 
HETATM   32  F   UNL     1       0.000   6.936 -32.697  1.00  0.00    -0.166 F 
HETATM   33  F   UNL     1       0.035   4.923 -31.900  1.00  0.00    -0.166 F 
ENDBRANCH   1  30
BRANCH   1  34
HETATM   34  C   UNL     1      -2.496   7.452 -32.334  1.00  0.00     0.441 C 
HETATM   35  F   UNL     1      -1.648   8.397 -31.894  1.00  0.00    -0.166 F 
HETATM   36  F   UNL     1      -2.501   7.545 -33.700  1.00  0.00    -0.166 F 
HETATM   37  F   UNL     1      -3.744   7.789 -31.935  1.00  0.00    -0.166 F 
ENDBRANCH   1  34
TORSDOF 8
ENDMDL
MODEL 9
REMARK VINA RESULT:      -7.6      2.645      4.886
REMARK  8 active torsions:
REMARK  status: ('A' for Active; 'I' for Inactive)
REMARK    1  A    between atoms: C_5  and  C_6 
REMARK       I    between atoms: C_6  and  N_7 
REMARK    2  A    between atoms: N_7  and  C_8 
REMARK    3  A    between atoms: C_8  and  N_9 
REMARK    4  A    between atoms: C_8  and  C_25 
REMARK    5  A    between atoms: C_8  and  C_29 
REMARK    6  A    between atoms: N_9  and  C_10 
REMARK    7  A    between atoms: C_20  and  C_21 
REMARK    8  A    between atoms: C_21  and  O_22 
ROOT
HETATM    1  C   UNL     1      -7.292   2.149 -32.589  1.00  0.00     0.307 C 
ENDROOT
BRANCH   1   2
HETATM    2  N   UNL     1      -6.780   0.791 -32.856  1.00  0.00    -0.315 N 
HETATM    3  C   UNL     1      -6.527   0.342 -34.125  1.00  0.00     0.254 C 
HETATM    4  O   UNL     1      -6.641   1.051 -35.112  1.00  0.00    -0.268 OA
HETATM    5  H   UNL     1      -6.918   0.111 -32.124  1.00  0.00     0.165 HD
BRANCH   3   6
HETATM    6  C   UNL     1      -6.128  -1.081 -34.236  1.00  0.00     0.032 A 
HETATM    7  C   UNL     1      -7.046  -2.057 -34.642  1.00  0.00     0.017 A 
HETATM    8  C   UNL     1      -6.648  -3.392 -34.731  1.00  0.00     0.007 A 
HETATM    9  C   UNL     1      -5.337  -3.764 -34.407  1.00  0.00    -0.062 A 
HETATM   10  C   UNL     1      -4.898  -5.194 -34.527  1.00  0.00     0.048 C 
HETATM   11  C   UNL     1      -4.423  -2.778 -34.009  1.00  0.00     0.007 A 
HETATM   12  C   UNL     1      -4.820  -1.443 -33.910  1.00  0.00     0.017 A 
ENDBRANCH   3   6
ENDBRANCH   1   2
BRANCH   1  13
HETATM   13  N   UNL     1      -8.119   2.390 -33.849  1.00  0.00    -0.342 N 
HETATM   14  H   UNL     1      -8.294   1.479 -34.291  1.00  0.00     0.163 HD
BRANCH  13  15
HETATM   15  C   UNL     1      -9.136   3.298 -33.961  1.00  0.00     0.089 A 
HETATM   16  S   UNL     1      -8.856   4.989 -34.027  1.00  0.00    -0.074 SA
HETATM   17  C   UNL     1     -10.482   5.350 -34.286  1.00  0.00     0.018 A 
HETATM   18  C   UNL     1     -11.268   4.219 -34.343  1.00  0.00    -0.023 A 
HETATM   19  C   UNL     1     -10.957   6.751 -34.470  1.00  0.00     0.281 C 
HETATM   20  C   UNL     1     -12.754   4.323 -34.574  1.00  0.00     0.068 C 
HETATM   21  C   UNL     1     -10.494   3.007 -34.129  1.00  0.00     0.080 A 
HETATM   22  C   UNL     1     -13.167   5.716 -35.087  1.00  0.00     0.239 C 
HETATM   23  N   UNL     1     -12.472   6.843 -34.332  1.00  0.00    -0.070 N 
HETATM   24  H   UNL     1     -12.742   7.718 -34.798  1.00  0.00     0.279 HD
HETATM   25  C   UNL     1     -12.919   6.975 -32.905  1.00  0.00     0.270 C 
BRANCH  21  26
HETATM   26  C   UNL     1     -11.085   1.657 -34.083  1.00  0.00     0.296 C 
HETATM   27  O   UNL     1     -10.628   0.766 -33.378  1.00  0.00    -0.259 OA
BRANCH  26  28
HETATM   28  O   UNL     1     -12.142   1.494 -34.932  1.00  0.00    -0.322 OA
HETATM   29  C   UNL     1     -13.194   0.674 -34.415  1.00  0.00     0.213 C 
ENDBRANCH  26  28
ENDBRANCH  21  26
ENDBRANCH  13  15
ENDBRANCH   1  13
BRANCH   1  30
HETATM   30  C   UNL     1      -8.039   2.372 -31.236  1.00  0.00     0.441 C 
HETATM   31  F   UNL     1      -7.224   2.159 -30.169  1.00  0.00    -0.166 F 
HETATM   32  F   UNL     1      -8.565   3.604 -31.082  1.00  0.00    -0.166 F 
HETATM   33  F   UNL     1      -9.075   1.500 -31.104  1.00  0.00    -0.166 F 
ENDBRANCH   1  30
BRANCH   1  34
HETATM   34  C   UNL     1      -6.173   3.241 -32.534  1.00  0.00     0.441 C 
HETATM   35  F   UNL     1      -6.456   4.321 -31.787  1.00  0.00    -0.166 F 
HETATM   36  F   UNL     1      -5.049   2.680 -31.991  1.00  0.00    -0.166 F 
HETATM   37  F   UNL     1      -5.816   3.666 -33.768  1.00  0.00    -0.166 F 
ENDBRANCH   1  34
TORSDOF 8
ENDMDL
MODEL 10
REMARK VINA RESULT:      -7.6      5.581     10.166
REMARK  8 active torsions:
REMARK  status: ('A' for Active; 'I' for Inactive)
REMARK    1  A    between atoms: C_5  and  C_6 
REMARK       I    between atoms: C_6  and  N_7 
REMARK    2  A    between atoms: N_7  and  C_8 
REMARK    3  A    between atoms: C_8  and  N_9 
REMARK    4  A    between atoms: C_8  and  C_25 
REMARK    5  A    between atoms: C_8  and  C_29 
REMARK    6  A    between atoms: N_9  and  C_10 
REMARK    7  A    between atoms: C_20  and  C_21 
REMARK    8  A    between atoms: C_21  and  O_22 
ROOT
HETATM    1  C   UNL     1      -1.424   7.008 -30.974  1.00  0.00     0.307 C 
ENDROOT
BRANCH   1   2
HETATM    2  N   UNL     1      -0.752   7.714 -29.865  1.00  0.00    -0.315 N 
HETATM    3  C   UNL     1      -0.102   7.047 -28.862  1.00  0.00     0.254 C 
HETATM    4  O   UNL     1       0.025   5.834 -28.848  1.00  0.00    -0.268 OA
HETATM    5  H   UNL     1      -1.045   8.665 -29.700  1.00  0.00     0.165 HD
BRANCH   3   6
HETATM    6  C   UNL     1       0.421   7.892 -27.762  1.00  0.00     0.032 A 
HETATM    7  C   UNL     1      -0.076   9.184 -27.546  1.00  0.00     0.017 A 
HETATM    8  C   UNL     1       0.439   9.962 -26.508  1.00  0.00     0.007 A 
HETATM    9  C   UNL     1       1.458   9.463 -25.686  1.00  0.00    -0.062 A 
HETATM   10  C   UNL     1       1.995  10.288 -24.553  1.00  0.00     0.048 C 
HETATM   11  C   UNL     1       1.944   8.166 -25.906  1.00  0.00     0.007 A 
HETATM   12  C   UNL     1       1.438   7.388 -26.948  1.00  0.00     0.017 A 
ENDBRANCH   3   6
ENDBRANCH   1   2
BRANCH   1  13
HETATM   13  N   UNL     1      -2.236   5.975 -30.196  1.00  0.00    -0.342 N 
HETATM   14  H   UNL     1      -2.016   6.087 -29.198  1.00  0.00     0.163 HD
BRANCH  13  15
HETATM   15  C   UNL     1      -3.527   5.618 -30.473  1.00  0.00     0.089 A 
HETATM   16  S   UNL     1      -4.873   6.499 -29.875  1.00  0.00    -0.074 SA
HETATM   17  C   UNL     1      -5.989   5.561 -30.722  1.00  0.00     0.018 A 
HETATM   18  C   UNL     1      -5.384   4.581 -31.479  1.00  0.00    -0.023 A 
HETATM   19  C   UNL     1      -7.453   5.833 -30.658  1.00  0.00     0.281 C 
HETATM   20  C   UNL     1      -6.208   3.638 -32.319  1.00  0.00     0.068 C 
HETATM   21  C   UNL     1      -3.939   4.587 -31.323  1.00  0.00     0.080 A 
HETATM   22  C   UNL     1      -7.654   4.134 -32.503  1.00  0.00     0.239 C 
HETATM   23  N   UNL     1      -8.257   4.661 -31.207  1.00  0.00    -0.070 N 
HETATM   24  H   UNL     1      -9.180   5.044 -31.447  1.00  0.00     0.279 HD
HETATM   25  C   UNL     1      -8.503   3.594 -30.181  1.00  0.00     0.270 C 
BRANCH  21  26
HETATM   26  C   UNL     1      -3.043   3.614 -31.973  1.00  0.00     0.296 C 
HETATM   27  O   UNL     1      -2.669   3.739 -33.132  1.00  0.00    -0.259 OA
BRANCH  26  28
HETATM   28  O   UNL     1      -2.721   2.551 -31.177  1.00  0.00    -0.322 OA
HETATM   29  C   UNL     1      -3.406   1.338 -31.505  1.00  0.00     0.213 C 
ENDBRANCH  26  28
ENDBRANCH  21  26
ENDBRANCH  13  15
ENDBRANCH   1  13
BRANCH   1  30
HETATM   30  C   UNL     1      -2.233   7.882 -31.984  1.00  0.00     0.441 C 
HETATM   31  F   UNL     1      -3.060   8.753 -31.348  1.00  0.00    -0.166 F 
HETATM   32  F   UNL     1      -1.474   8.613 -32.826  1.00  0.00    -0.166 F 
HETATM   33  F   UNL     1      -3.028   7.106 -32.770  1.00  0.00    -0.166 F 
ENDBRANCH   1  30
BRANCH   1  34
HETATM   34  C   UNL     1      -0.440   6.236 -31.914  1.00  0.00     0.441 C 
HETATM   35  F   UNL     1      -0.803   6.178 -33.206  1.00  0.00    -0.166 F 
HETATM   36  F   UNL     1       0.772   6.869 -31.882  1.00  0.00    -0.166 F 
HETATM   37  F   UNL     1      -0.211   4.974 -31.484  1.00  0.00    -0.166 F 
ENDBRANCH   1  34
TORSDOF 8
ENDMDL
