MODEL 1
REMARK VINA RESULT:      -8.9      0.000      0.000
REMARK  3 active torsions:
REMARK  status: ('A' for Active; 'I' for Inactive)
REMARK    1  A    between atoms: C_6  and  N_7 
REMARK       I    between atoms: N_7  and  C_8 
REMARK    2  A    between atoms: C_8  and  C_9 
REMARK    3  A    between atoms: C_9  and  C_10 
ROOT
HETATM    1  C   UNL     1      -4.498   3.923 -32.178  1.00  0.00     0.286 C 
HETATM    2  N   UNL     1      -3.248   3.353 -32.837  1.00  0.00    -0.056 N 
HETATM    3  H   UNL     1      -2.945   2.567 -32.219  1.00  0.00     0.278 HD
HETATM    4  H   UNL     1      -3.470   2.917 -33.739  1.00  0.00     0.278 HD
HETATM    5  C   UNL     1      -2.102   4.317 -32.961  1.00  0.00     0.209 C 
HETATM    6  C   UNL     1      -1.812   4.965 -31.583  1.00  0.00     0.115 C 
HETATM    7  N   UNL     1      -3.015   5.446 -30.903  1.00  0.00    -0.353 N 
HETATM    8  C   UNL     1      -4.199   4.746 -30.912  1.00  0.00     0.249 C 
HETATM    9  O   UNL     1      -5.007   4.882 -30.001  1.00  0.00    -0.271 OA
HETATM   10  C   UNL     1      -2.398   5.329 -34.069  1.00  0.00     0.035 C 
HETATM   11  C   UNL     1      -1.299   6.383 -34.158  1.00  0.00     0.002 C 
HETATM   12  C   UNL     1      -1.097   7.081 -32.818  1.00  0.00     0.002 C 
HETATM   13  C   UNL     1      -0.768   6.083 -31.708  1.00  0.00     0.027 C 
HETATM   14  H   UNL     1      -2.883   5.949 -30.027  1.00  0.00     0.163 HD
ENDROOT
BRANCH   1  15
HETATM   15  C   UNL     1      -5.550   2.839 -31.917  1.00  0.00     0.146 C 
BRANCH  15  16
HETATM   16  C   UNL     1      -5.697   1.889 -33.086  1.00  0.00     0.224 C 
HETATM   17  N   UNL     1      -5.436   0.585 -32.740  1.00  0.00    -0.327 N 
HETATM   18  H   UNL     1      -4.797   0.457 -31.960  1.00  0.00     0.169 HD
HETATM   19  O   UNL     1      -6.088   2.326 -34.166  1.00  0.00    -0.273 OA
BRANCH  17  20
HETATM   20  C   UNL     1      -5.755  -0.613 -33.424  1.00  0.00     0.040 A 
HETATM   21  C   UNL     1      -7.040  -1.086 -33.744  1.00  0.00    -0.035 A 
HETATM   22  C   UNL     1      -7.159  -2.327 -34.411  1.00  0.00     0.015 A 
HETATM   23  C   UNL     1      -8.331  -0.404 -33.395  1.00  0.00     0.050 C 
HETATM   24  C   UNL     1      -6.047  -3.116 -34.723  1.00  0.00    -0.061 A 
HETATM   25  C   UNL     1      -6.218  -4.462 -35.363  1.00  0.00     0.048 C 
HETATM   26  C   UNL     1      -4.786  -2.662 -34.354  1.00  0.00     0.009 A 
HETATM   27  C   UNL     1      -4.645  -1.428 -33.716  1.00  0.00     0.030 A 
ENDBRANCH  17  20
ENDBRANCH  15  16
ENDBRANCH   1  15
TORSDOF 3
ENDMDL
MODEL 2
REMARK VINA RESULT:      -8.7      4.627      7.755
REMARK  3 active torsions:
REMARK  status: ('A' for Active; 'I' for Inactive)
REMARK    1  A    between atoms: C_6  and  N_7 
REMARK       I    between atoms: N_7  and  C_8 
REMARK    2  A    between atoms: C_8  and  C_9 
REMARK    3  A    between atoms: C_9  and  C_10 
ROOT
HETATM    1  C   UNL     1     -10.296   1.320 -33.875  1.00  0.00     0.286 C 
HETATM    2  N   UNL     1     -11.215   1.576 -35.064  1.00  0.00    -0.056 N 
HETATM    3  H   UNL     1     -10.806   2.403 -35.554  1.00  0.00     0.278 HD
HETATM    4  H   UNL     1     -11.167   0.809 -35.743  1.00  0.00     0.278 HD
HETATM    5  C   UNL     1     -12.637   1.904 -34.706  1.00  0.00     0.209 C 
HETATM    6  C   UNL     1     -12.664   3.054 -33.667  1.00  0.00     0.115 C 
HETATM    7  N   UNL     1     -11.728   2.857 -32.559  1.00  0.00    -0.353 N 
HETATM    8  C   UNL     1     -10.463   2.348 -32.742  1.00  0.00     0.249 C 
HETATM    9  O   UNL     1      -9.565   2.624 -31.957  1.00  0.00    -0.271 OA
HETATM   10  C   UNL     1     -13.356   0.637 -34.243  1.00  0.00     0.035 C 
HETATM   11  C   UNL     1     -14.776   0.949 -33.778  1.00  0.00     0.002 C 
HETATM   12  C   UNL     1     -14.775   2.010 -32.684  1.00  0.00     0.002 C 
HETATM   13  C   UNL     1     -14.087   3.294 -33.146  1.00  0.00     0.027 C 
HETATM   14  H   UNL     1     -11.752   3.542 -31.805  1.00  0.00     0.163 HD
ENDROOT
BRANCH   1  15
HETATM   15  C   UNL     1      -8.832   1.179 -34.305  1.00  0.00     0.146 C 
BRANCH  15  16
HETATM   16  C   UNL     1      -8.173  -0.044 -33.704  1.00  0.00     0.224 C 
HETATM   17  N   UNL     1      -7.314  -0.662 -34.580  1.00  0.00    -0.327 N 
HETATM   18  H   UNL     1      -7.528  -0.541 -35.566  1.00  0.00     0.169 HD
HETATM   19  O   UNL     1      -8.390  -0.322 -32.527  1.00  0.00    -0.273 OA
BRANCH  17  20
HETATM   20  C   UNL     1      -6.294  -1.612 -34.327  1.00  0.00     0.040 A 
HETATM   21  C   UNL     1      -5.070  -1.384 -33.674  1.00  0.00    -0.035 A 
HETATM   22  C   UNL     1      -4.162  -2.459 -33.540  1.00  0.00     0.015 A 
HETATM   23  C   UNL     1      -4.606  -0.063 -33.133  1.00  0.00     0.050 C 
HETATM   24  C   UNL     1      -4.422  -3.726 -34.072  1.00  0.00    -0.061 A 
HETATM   25  C   UNL     1      -3.401  -4.820 -33.976  1.00  0.00     0.048 C 
HETATM   26  C   UNL     1      -5.613  -3.925 -34.762  1.00  0.00     0.009 A 
HETATM   27  C   UNL     1      -6.534  -2.883 -34.885  1.00  0.00     0.030 A 
ENDBRANCH  17  20
ENDBRANCH  15  16
ENDBRANCH   1  15
TORSDOF 3
ENDMDL
MODEL 3
REMARK VINA RESULT:      -8.4      1.541      2.523
REMARK  3 active torsions:
REMARK  status: ('A' for Active; 'I' for Inactive)
REMARK    1  A    between atoms: C_6  and  N_7 
REMARK       I    between atoms: N_7  and  C_8 
REMARK    2  A    between atoms: C_8  and  C_9 
REMARK    3  A    between atoms: C_9  and  C_10 
ROOT
HETATM    1  C   UNL     1      -5.162   4.063 -32.233  1.00  0.00     0.286 C 
HETATM    2  N   UNL     1      -4.448   4.907 -31.183  1.00  0.00    -0.056 N 
HETATM    3  H   UNL     1      -5.140   5.637 -30.901  1.00  0.00     0.278 HD
HETATM    4  H   UNL     1      -4.267   4.364 -30.331  1.00  0.00     0.278 HD
HETATM    5  C   UNL     1      -3.207   5.602 -31.665  1.00  0.00     0.209 C 
HETATM    6  C   UNL     1      -3.520   6.394 -32.960  1.00  0.00     0.115 C 
HETATM    7  N   UNL     1      -4.274   5.619 -33.946  1.00  0.00    -0.353 N 
HETATM    8  C   UNL     1      -5.298   4.770 -33.593  1.00  0.00     0.249 C 
HETATM    9  O   UNL     1      -6.194   4.516 -34.388  1.00  0.00    -0.271 OA
HETATM   10  C   UNL     1      -2.076   4.585 -31.822  1.00  0.00     0.035 C 
HETATM   11  C   UNL     1      -0.826   5.238 -32.404  1.00  0.00     0.002 C 
HETATM   12  C   UNL     1      -1.132   5.927 -33.729  1.00  0.00     0.002 C 
HETATM   13  C   UNL     1      -2.239   6.970 -33.579  1.00  0.00     0.027 C 
HETATM   14  H   UNL     1      -4.447   6.060 -34.849  1.00  0.00     0.163 HD
ENDROOT
BRANCH   1  15
HETATM   15  C   UNL     1      -6.511   3.541 -31.726  1.00  0.00     0.146 C 
BRANCH  15  16
HETATM   16  C   UNL     1      -6.588   2.030 -31.756  1.00  0.00     0.224 C 
HETATM   17  N   UNL     1      -6.442   1.520 -33.023  1.00  0.00    -0.327 N 
HETATM   18  H   UNL     1      -6.731   2.134 -33.779  1.00  0.00     0.169 HD
HETATM   19  O   UNL     1      -6.694   1.415 -30.696  1.00  0.00    -0.273 OA
BRANCH  17  20
HETATM   20  C   UNL     1      -6.143   0.200 -33.438  1.00  0.00     0.040 A 
HETATM   21  C   UNL     1      -4.911  -0.467 -33.311  1.00  0.00    -0.035 A 
HETATM   22  C   UNL     1      -4.798  -1.784 -33.814  1.00  0.00     0.015 A 
HETATM   23  C   UNL     1      -3.662   0.118 -32.720  1.00  0.00     0.050 C 
HETATM   24  C   UNL     1      -5.854  -2.426 -34.468  1.00  0.00    -0.061 A 
HETATM   25  C   UNL     1      -5.672  -3.794 -35.055  1.00  0.00     0.048 C 
HETATM   26  C   UNL     1      -7.050  -1.737 -34.634  1.00  0.00     0.009 A 
HETATM   27  C   UNL     1      -7.190  -0.444 -34.124  1.00  0.00     0.030 A 
ENDBRANCH  17  20
ENDBRANCH  15  16
ENDBRANCH   1  15
TORSDOF 3
ENDMDL
MODEL 4
REMARK VINA RESULT:      -8.0      4.099      6.965
REMARK  3 active torsions:
REMARK  status: ('A' for Active; 'I' for Inactive)
REMARK    1  A    between atoms: C_6  and  N_7 
REMARK       I    between atoms: N_7  and  C_8 
REMARK    2  A    between atoms: C_8  and  C_9 
REMARK    3  A    between atoms: C_9  and  C_10 
ROOT
HETATM    1  C   UNL     1      -9.502   2.647 -32.330  1.00  0.00     0.286 C 
HETATM    2  N   UNL     1      -9.837   2.591 -33.816  1.00  0.00    -0.056 N 
HETATM    3  H   UNL     1      -9.616   3.543 -34.184  1.00  0.00     0.278 HD
HETATM    4  H   UNL     1      -9.206   1.955 -34.316  1.00  0.00     0.278 HD
HETATM    5  C   UNL     1     -11.276   2.294 -34.130  1.00  0.00     0.209 C 
HETATM    6  C   UNL     1     -12.195   3.263 -33.344  1.00  0.00     0.115 C 
HETATM    7  N   UNL     1     -11.834   3.387 -31.930  1.00  0.00    -0.353 N 
HETATM    8  C   UNL     1     -10.527   3.444 -31.504  1.00  0.00     0.249 C 
HETATM    9  O   UNL     1     -10.243   4.005 -30.453  1.00  0.00    -0.271 OA
HETATM   10  C   UNL     1     -11.566   0.816 -33.864  1.00  0.00     0.035 C 
HETATM   11  C   UNL     1     -13.042   0.498 -34.078  1.00  0.00     0.002 C 
HETATM   12  C   UNL     1     -13.928   1.394 -33.220  1.00  0.00     0.002 C 
HETATM   13  C   UNL     1     -13.671   2.874 -33.501  1.00  0.00     0.027 C 
HETATM   14  H   UNL     1     -12.446   3.952 -31.344  1.00  0.00     0.163 HD
ENDROOT
BRANCH   1  15
HETATM   15  C   UNL     1      -8.070   3.138 -32.086  1.00  0.00     0.146 C 
BRANCH  15  16
HETATM   16  C   UNL     1      -7.052   2.358 -32.890  1.00  0.00     0.224 C 
HETATM   17  N   UNL     1      -6.854   1.090 -32.399  1.00  0.00    -0.327 N 
HETATM   18  H   UNL     1      -7.026   0.972 -31.404  1.00  0.00     0.169 HD
HETATM   19  O   UNL     1      -6.572   2.866 -33.901  1.00  0.00    -0.273 OA
BRANCH  17  20
HETATM   20  C   UNL     1      -6.251  -0.034 -33.014  1.00  0.00     0.040 A 
HETATM   21  C   UNL     1      -6.642  -0.649 -34.216  1.00  0.00    -0.035 A 
HETATM   22  C   UNL     1      -5.929  -1.787 -34.659  1.00  0.00     0.015 A 
HETATM   23  C   UNL     1      -7.802  -0.230 -35.071  1.00  0.00     0.050 C 
HETATM   24  C   UNL     1      -4.879  -2.343 -33.921  1.00  0.00    -0.061 A 
HETATM   25  C   UNL     1      -4.196  -3.595 -34.385  1.00  0.00     0.048 C 
HETATM   26  C   UNL     1      -4.536  -1.757 -32.708  1.00  0.00     0.009 A 
HETATM   27  C   UNL     1      -5.212  -0.618 -32.264  1.00  0.00     0.030 A 
ENDBRANCH  17  20
ENDBRANCH  15  16
ENDBRANCH   1  15
TORSDOF 3
ENDMDL
MODEL 5
REMARK VINA RESULT:      -7.9      3.387      6.573
REMARK  3 active torsions:
REMARK  status: ('A' for Active; 'I' for Inactive)
REMARK    1  A    between atoms: C_6  and  N_7 
REMARK       I    between atoms: N_7  and  C_8 
REMARK    2  A    between atoms: C_8  and  C_9 
REMARK    3  A    between atoms: C_9  and  C_10 
ROOT
HETATM    1  C   UNL     1      -6.746   1.907 -33.086  1.00  0.00     0.286 C 
HETATM    2  N   UNL     1      -7.346   0.656 -32.456  1.00  0.00    -0.056 N 
HETATM    3  H   UNL     1      -7.432   0.875 -31.438  1.00  0.00     0.278 HD
HETATM    4  H   UNL     1      -8.307   0.501 -32.780  1.00  0.00     0.278 HD
HETATM    5  C   UNL     1      -6.513  -0.586 -32.596  1.00  0.00     0.209 C 
HETATM    6  C   UNL     1      -5.067  -0.305 -32.113  1.00  0.00     0.115 C 
HETATM    7  N   UNL     1      -4.507   0.936 -32.650  1.00  0.00    -0.353 N 
HETATM    8  C   UNL     1      -5.249   2.087 -32.776  1.00  0.00     0.249 C 
HETATM    9  O   UNL     1      -4.701   3.183 -32.759  1.00  0.00    -0.271 OA
HETATM   10  C   UNL     1      -6.593  -1.100 -34.034  1.00  0.00     0.035 C 
HETATM   11  C   UNL     1      -5.682  -2.306 -34.239  1.00  0.00     0.002 C 
HETATM   12  C   UNL     1      -4.243  -1.979 -33.853  1.00  0.00     0.002 C 
HETATM   13  C   UNL     1      -4.145  -1.495 -32.407  1.00  0.00     0.027 C 
HETATM   14  H   UNL     1      -3.534   1.139 -32.428  1.00  0.00     0.163 HD
ENDROOT
BRANCH   1  15
HETATM   15  C   UNL     1      -7.553   3.164 -32.743  1.00  0.00     0.146 C 
BRANCH  15  16
HETATM   16  C   UNL     1      -8.995   2.845 -32.409  1.00  0.00     0.224 C 
HETATM   17  N   UNL     1      -9.765   2.655 -33.530  1.00  0.00    -0.327 N 
HETATM   18  H   UNL     1      -9.455   3.144 -34.365  1.00  0.00     0.169 HD
HETATM   19  O   UNL     1      -9.321   2.715 -31.231  1.00  0.00    -0.273 OA
BRANCH  17  20
HETATM   20  C   UNL     1     -11.038   2.049 -33.661  1.00  0.00     0.040 A 
HETATM   21  C   UNL     1     -11.371   0.713 -33.377  1.00  0.00    -0.035 A 
HETATM   22  C   UNL     1     -12.700   0.282 -33.598  1.00  0.00     0.015 A 
HETATM   23  C   UNL     1     -10.415  -0.338 -32.893  1.00  0.00     0.050 C 
HETATM   24  C   UNL     1     -13.679   1.129 -34.128  1.00  0.00    -0.061 A 
HETATM   25  C   UNL     1     -15.058   0.615 -34.420  1.00  0.00     0.048 C 
HETATM   26  C   UNL     1     -13.325   2.433 -34.455  1.00  0.00     0.009 A 
HETATM   27  C   UNL     1     -12.024   2.884 -34.222  1.00  0.00     0.030 A 
ENDBRANCH  17  20
ENDBRANCH  15  16
ENDBRANCH   1  15
TORSDOF 3
ENDMDL
MODEL 6
REMARK VINA RESULT:      -7.8      5.396      8.329
REMARK  3 active torsions:
REMARK  status: ('A' for Active; 'I' for Inactive)
REMARK    1  A    between atoms: C_6  and  N_7 
REMARK       I    between atoms: N_7  and  C_8 
REMARK    2  A    between atoms: C_8  and  C_9 
REMARK    3  A    between atoms: C_9  and  C_10 
ROOT
HETATM    1  C   UNL     1      -9.049   2.842 -34.238  1.00  0.00     0.286 C 
HETATM    2  N   UNL     1      -9.562   1.436 -34.530  1.00  0.00    -0.056 N 
HETATM    3  H   UNL     1     -10.391   1.311 -33.907  1.00  0.00     0.278 HD
HETATM    4  H   UNL     1      -9.929   1.366 -35.485  1.00  0.00     0.278 HD
HETATM    5  C   UNL     1      -8.587   0.332 -34.235  1.00  0.00     0.209 C 
HETATM    6  C   UNL     1      -8.043   0.485 -32.791  1.00  0.00     0.115 C 
HETATM    7  N   UNL     1      -7.620   1.850 -32.472  1.00  0.00    -0.353 N 
HETATM    8  C   UNL     1      -8.324   2.957 -32.885  1.00  0.00     0.249 C 
HETATM    9  O   UNL     1      -8.260   4.004 -32.252  1.00  0.00    -0.271 OA
HETATM   10  C   UNL     1      -7.495   0.310 -35.306  1.00  0.00     0.035 C 
HETATM   11  C   UNL     1      -6.432  -0.736 -34.985  1.00  0.00     0.002 C 
HETATM   12  C   UNL     1      -5.837  -0.508 -33.600  1.00  0.00     0.002 C 
HETATM   13  C   UNL     1      -6.915  -0.517 -32.516  1.00  0.00     0.027 C 
HETATM   14  H   UNL     1      -7.185   1.999 -31.563  1.00  0.00     0.163 HD
ENDROOT
BRANCH   1  15
HETATM   15  C   UNL     1     -10.154   3.894 -34.382  1.00  0.00     0.146 C 
BRANCH  15  16
HETATM   16  C   UNL     1     -11.533   3.272 -34.446  1.00  0.00     0.224 C 
HETATM   17  N   UNL     1     -12.108   3.138 -33.205  1.00  0.00    -0.327 N 
HETATM   18  H   UNL     1     -11.459   3.041 -32.429  1.00  0.00     0.169 HD
HETATM   19  O   UNL     1     -12.026   3.023 -35.544  1.00  0.00    -0.273 OA
BRANCH  17  20
HETATM   20  C   UNL     1     -13.460   2.910 -32.855  1.00  0.00     0.040 A 
HETATM   21  C   UNL     1     -14.190   1.721 -33.033  1.00  0.00    -0.035 A 
HETATM   22  C   UNL     1     -15.549   1.694 -32.644  1.00  0.00     0.015 A 
HETATM   23  C   UNL     1     -13.663   0.462 -33.656  1.00  0.00     0.050 C 
HETATM   24  C   UNL     1     -16.200   2.821 -32.129  1.00  0.00    -0.061 A 
HETATM   25  C   UNL     1     -17.662   2.775 -31.798  1.00  0.00     0.048 C 
HETATM   26  C   UNL     1     -15.482   4.005 -32.006  1.00  0.00     0.009 A 
HETATM   27  C   UNL     1     -14.132   4.046 -32.364  1.00  0.00     0.030 A 
ENDBRANCH  17  20
ENDBRANCH  15  16
ENDBRANCH   1  15
TORSDOF 3
ENDMDL
MODEL 7
REMARK VINA RESULT:      -7.7      2.084      3.179
REMARK  3 active torsions:
REMARK  status: ('A' for Active; 'I' for Inactive)
REMARK    1  A    between atoms: C_6  and  N_7 
REMARK       I    between atoms: N_7  and  C_8 
REMARK    2  A    between atoms: C_8  and  C_9 
REMARK    3  A    between atoms: C_9  and  C_10 
ROOT
HETATM    1  C   UNL     1      -3.848   3.179 -31.205  1.00  0.00     0.286 C 
HETATM    2  N   UNL     1      -5.276   3.646 -31.459  1.00  0.00    -0.056 N 
HETATM    3  H   UNL     1      -5.308   3.894 -32.473  1.00  0.00     0.278 HD
HETATM    4  H   UNL     1      -5.944   2.874 -31.350  1.00  0.00     0.278 HD
HETATM    5  C   UNL     1      -5.699   4.852 -30.670  1.00  0.00     0.209 C 
HETATM    6  C   UNL     1      -4.657   5.986 -30.848  1.00  0.00     0.115 C 
HETATM    7  N   UNL     1      -3.274   5.534 -30.684  1.00  0.00    -0.353 N 
HETATM    8  C   UNL     1      -2.827   4.331 -31.177  1.00  0.00     0.249 C 
HETATM    9  O   UNL     1      -1.644   4.178 -31.459  1.00  0.00    -0.271 OA
HETATM   10  C   UNL     1      -5.937   4.456 -29.212  1.00  0.00     0.035 C 
HETATM   11  C   UNL     1      -6.274   5.675 -28.359  1.00  0.00     0.002 C 
HETATM   12  C   UNL     1      -5.186   6.739 -28.468  1.00  0.00     0.002 C 
HETATM   13  C   UNL     1      -4.962   7.168 -29.918  1.00  0.00     0.027 C 
HETATM   14  H   UNL     1      -2.547   6.247 -30.715  1.00  0.00     0.163 HD
ENDROOT
BRANCH   1  15
HETATM   15  C   UNL     1      -3.428   2.069 -32.175  1.00  0.00     0.146 C 
BRANCH  15  16
HETATM   16  C   UNL     1      -4.431   0.936 -32.218  1.00  0.00     0.224 C 
HETATM   17  N   UNL     1      -4.671   0.495 -33.496  1.00  0.00    -0.327 N 
HETATM   18  H   UNL     1      -4.538   1.183 -34.232  1.00  0.00     0.169 HD
HETATM   19  O   UNL     1      -4.864   0.481 -31.162  1.00  0.00    -0.273 OA
BRANCH  17  20
HETATM   20  C   UNL     1      -5.272  -0.709 -33.939  1.00  0.00     0.040 A 
HETATM   21  C   UNL     1      -6.630  -0.914 -34.242  1.00  0.00    -0.035 A 
HETATM   22  C   UNL     1      -7.048  -2.203 -34.645  1.00  0.00     0.015 A 
HETATM   23  C   UNL     1      -7.712   0.120 -34.129  1.00  0.00     0.050 C 
HETATM   24  C   UNL     1      -6.165  -3.286 -34.712  1.00  0.00    -0.061 A 
HETATM   25  C   UNL     1      -6.661  -4.655 -35.071  1.00  0.00     0.048 C 
HETATM   26  C   UNL     1      -4.836  -3.083 -34.360  1.00  0.00     0.009 A 
HETATM   27  C   UNL     1      -4.398  -1.812 -33.981  1.00  0.00     0.030 A 
ENDBRANCH  17  20
ENDBRANCH  15  16
ENDBRANCH   1  15
TORSDOF 3
ENDMDL
MODEL 8
REMARK VINA RESULT:      -7.7      2.788      4.144
REMARK  3 active torsions:
REMARK  status: ('A' for Active; 'I' for Inactive)
REMARK    1  A    between atoms: C_6  and  N_7 
REMARK       I    between atoms: N_7  and  C_8 
REMARK    2  A    between atoms: C_8  and  C_9 
REMARK    3  A    between atoms: C_9  and  C_10 
ROOT
HETATM    1  C   UNL     1      -5.161   3.239 -30.908  1.00  0.00     0.286 C 
HETATM    2  N   UNL     1      -6.366   2.782 -30.095  1.00  0.00    -0.056 N 
HETATM    3  H   UNL     1      -6.801   2.015 -30.655  1.00  0.00     0.278 HD
HETATM    4  H   UNL     1      -6.075   2.342 -29.214  1.00  0.00     0.278 HD
HETATM    5  C   UNL     1      -7.410   3.837 -29.861  1.00  0.00     0.209 C 
HETATM    6  C   UNL     1      -7.808   4.487 -31.211  1.00  0.00     0.115 C 
HETATM    7  N   UNL     1      -6.658   4.860 -32.037  1.00  0.00    -0.353 N 
HETATM    8  C   UNL     1      -5.541   4.065 -32.149  1.00  0.00     0.249 C 
HETATM    9  O   UNL     1      -4.837   4.123 -33.150  1.00  0.00    -0.271 OA
HETATM   10  C   UNL     1      -6.907   4.837 -28.819  1.00  0.00     0.035 C 
HETATM   11  C   UNL     1      -7.901   5.978 -28.628  1.00  0.00     0.002 C 
HETATM   12  C   UNL     1      -8.202   6.672 -29.952  1.00  0.00     0.002 C 
HETATM   13  C   UNL     1      -8.737   5.688 -30.993  1.00  0.00     0.027 C 
HETATM   14  H   UNL     1      -6.852   5.359 -32.903  1.00  0.00     0.163 HD
ENDROOT
BRANCH   1  15
HETATM   15  C   UNL     1      -4.236   2.069 -31.264  1.00  0.00     0.146 C 
BRANCH  15  16
HETATM   16  C   UNL     1      -5.003   0.790 -31.521  1.00  0.00     0.224 C 
HETATM   17  N   UNL     1      -5.170   0.538 -32.861  1.00  0.00    -0.327 N 
HETATM   18  H   UNL     1      -5.181   1.355 -33.465  1.00  0.00     0.169 HD
HETATM   19  O   UNL     1      -5.327   0.085 -30.568  1.00  0.00    -0.273 OA
BRANCH  17  20
HETATM   20  C   UNL     1      -5.534  -0.664 -33.516  1.00  0.00     0.040 A 
HETATM   21  C   UNL     1      -6.835  -1.092 -33.834  1.00  0.00    -0.035 A 
HETATM   22  C   UNL     1      -7.001  -2.345 -34.469  1.00  0.00     0.015 A 
HETATM   23  C   UNL     1      -8.099  -0.348 -33.514  1.00  0.00     0.050 C 
HETATM   24  C   UNL     1      -5.921  -3.187 -34.751  1.00  0.00    -0.061 A 
HETATM   25  C   UNL     1      -6.144  -4.541 -35.357  1.00  0.00     0.048 C 
HETATM   26  C   UNL     1      -4.644  -2.776 -34.384  1.00  0.00     0.009 A 
HETATM   27  C   UNL     1      -4.457  -1.532 -33.777  1.00  0.00     0.030 A 
ENDBRANCH  17  20
ENDBRANCH  15  16
ENDBRANCH   1  15
TORSDOF 3
ENDMDL
MODEL 9
REMARK VINA RESULT:      -7.6      3.632      5.424
REMARK  3 active torsions:
REMARK  status: ('A' for Active; 'I' for Inactive)
REMARK    1  A    between atoms: C_6  and  N_7 
REMARK       I    between atoms: N_7  and  C_8 
REMARK    2  A    between atoms: C_8  and  C_9 
REMARK    3  A    between atoms: C_9  and  C_10 
ROOT
HETATM    1  C   UNL     1      -7.165   2.875 -30.990  1.00  0.00     0.286 C 
HETATM    2  N   UNL     1      -8.516   2.174 -30.914  1.00  0.00    -0.056 N 
HETATM    3  H   UNL     1      -8.432   1.347 -31.548  1.00  0.00     0.278 HD
HETATM    4  H   UNL     1      -8.679   1.781 -29.980  1.00  0.00     0.278 HD
HETATM    5  C   UNL     1      -9.685   2.997 -31.375  1.00  0.00     0.209 C 
HETATM    6  C   UNL     1      -9.391   3.584 -32.779  1.00  0.00     0.115 C 
HETATM    7  N   UNL     1      -8.064   4.192 -32.888  1.00  0.00    -0.353 N 
HETATM    8  C   UNL     1      -6.947   3.636 -32.310  1.00  0.00     0.249 C 
HETATM    9  O   UNL     1      -5.835   3.851 -32.777  1.00  0.00    -0.271 OA
HETATM   10  C   UNL     1     -10.015   4.055 -30.321  1.00  0.00     0.035 C 
HETATM   11  C   UNL     1     -11.136   4.974 -30.798  1.00  0.00     0.002 C 
HETATM   12  C   UNL     1     -10.785   5.621 -32.133  1.00  0.00     0.002 C 
HETATM   13  C   UNL     1     -10.484   4.573 -33.204  1.00  0.00     0.027 C 
HETATM   14  H   UNL     1      -7.840   4.661 -33.764  1.00  0.00     0.163 HD
ENDROOT
BRANCH   1  15
HETATM   15  C   UNL     1      -6.007   1.919 -30.686  1.00  0.00     0.146 C 
BRANCH  15  16
HETATM   16  C   UNL     1      -6.312   0.497 -31.108  1.00  0.00     0.224 C 
HETATM   17  N   UNL     1      -6.062   0.279 -32.441  1.00  0.00    -0.327 N 
HETATM   18  H   UNL     1      -6.138   1.094 -33.042  1.00  0.00     0.169 HD
HETATM   19  O   UNL     1      -6.665  -0.316 -30.257  1.00  0.00    -0.273 OA
BRANCH  17  20
HETATM   20  C   UNL     1      -5.913  -0.941 -33.145  1.00  0.00     0.040 A 
HETATM   21  C   UNL     1      -4.720  -1.655 -33.355  1.00  0.00    -0.035 A 
HETATM   22  C   UNL     1      -4.767  -2.848 -34.112  1.00  0.00     0.015 A 
HETATM   23  C   UNL     1      -3.360  -1.236 -32.878  1.00  0.00     0.050 C 
HETATM   24  C   UNL     1      -5.951  -3.316 -34.693  1.00  0.00    -0.061 A 
HETATM   25  C   UNL     1      -5.947  -4.544 -35.554  1.00  0.00     0.048 C 
HETATM   26  C   UNL     1      -7.113  -2.573 -34.523  1.00  0.00     0.009 A 
HETATM   27  C   UNL     1      -7.092  -1.404 -33.759  1.00  0.00     0.030 A 
ENDBRANCH  17  20
ENDBRANCH  15  16
ENDBRANCH   1  15
TORSDOF 3
ENDMDL
MODEL 10
REMARK VINA RESULT:      -7.4      4.096      6.678
REMARK  3 active torsions:
REMARK  status: ('A' for Active; 'I' for Inactive)
REMARK    1  A    between atoms: C_6  and  N_7 
REMARK       I    between atoms: N_7  and  C_8 
REMARK    2  A    between atoms: C_8  and  C_9 
REMARK    3  A    between atoms: C_9  and  C_10 
ROOT
HETATM    1  C   UNL     1      -9.190   2.847 -32.299  1.00  0.00     0.286 C 
HETATM    2  N   UNL     1      -9.972   4.116 -31.981  1.00  0.00    -0.056 N 
HETATM    3  H   UNL     1     -10.308   3.994 -30.999  1.00  0.00     0.278 HD
HETATM    4  H   UNL     1      -9.356   4.936 -31.956  1.00  0.00     0.278 HD
HETATM    5  C   UNL     1     -11.170   4.358 -32.855  1.00  0.00     0.209 C 
HETATM    6  C   UNL     1     -12.064   3.092 -32.880  1.00  0.00     0.115 C 
HETATM    7  N   UNL     1     -11.314   1.856 -33.107  1.00  0.00    -0.353 N 
HETATM    8  C   UNL     1     -10.089   1.619 -32.527  1.00  0.00     0.249 C 
HETATM    9  O   UNL     1      -9.710   0.471 -32.326  1.00  0.00    -0.271 OA
HETATM   10  C   UNL     1     -10.712   4.817 -34.240  1.00  0.00     0.035 C 
HETATM   11  C   UNL     1     -11.898   4.978 -35.186  1.00  0.00     0.002 C 
HETATM   12  C   UNL     1     -12.708   3.690 -35.276  1.00  0.00     0.002 C 
HETATM   13  C   UNL     1     -13.200   3.238 -33.901  1.00  0.00     0.027 C 
HETATM   14  H   UNL     1     -11.854   0.998 -33.208  1.00  0.00     0.163 HD
ENDROOT
BRANCH   1  15
HETATM   15  C   UNL     1      -8.103   2.570 -31.254  1.00  0.00     0.146 C 
BRANCH  15  16
HETATM   16  C   UNL     1      -6.880   1.916 -31.861  1.00  0.00     0.224 C 
HETATM   17  N   UNL     1      -6.861   0.556 -31.669  1.00  0.00    -0.327 N 
HETATM   18  H   UNL     1      -7.354   0.221 -30.846  1.00  0.00     0.169 HD
HETATM   19  O   UNL     1      -6.089   2.605 -32.502  1.00  0.00    -0.273 OA
BRANCH  17  20
HETATM   20  C   UNL     1      -6.095  -0.439 -32.323  1.00  0.00     0.040 A 
HETATM   21  C   UNL     1      -4.757  -0.785 -32.059  1.00  0.00    -0.035 A 
HETATM   22  C   UNL     1      -4.150  -1.793 -32.842  1.00  0.00     0.015 A 
HETATM   23  C   UNL     1      -3.879  -0.137 -31.030  1.00  0.00     0.050 C 
HETATM   24  C   UNL     1      -4.820  -2.425 -33.895  1.00  0.00    -0.061 A 
HETATM   25  C   UNL     1      -4.117  -3.435 -34.753  1.00  0.00     0.048 C 
HETATM   26  C   UNL     1      -6.124  -2.037 -34.181  1.00  0.00     0.009 A 
HETATM   27  C   UNL     1      -6.750  -1.060 -33.404  1.00  0.00     0.030 A 
ENDBRANCH  17  20
ENDBRANCH  15  16
ENDBRANCH   1  15
TORSDOF 3
ENDMDL
