MODEL 1
REMARK VINA RESULT:      -9.1      0.000      0.000
REMARK  5 active torsions:
REMARK  status: ('A' for Active; 'I' for Inactive)
REMARK    1  A    between atoms: C_2  and  C_3 
REMARK    2  A    between atoms: C_14  and  C_17 
REMARK       I    between atoms: C_17  and  N_19 
REMARK    3  A    between atoms: N_19  and  C_20 
REMARK    4  A    between atoms: C_20  and  C_22 
REMARK    5  A    between atoms: C_26  and  O_27 
ROOT
HETATM    1  C   UNL     1      -4.110  -0.790 -33.176  1.00  0.00     0.162 C 
HETATM    2  O   UNL     1      -3.651  -2.011 -33.785  1.00  0.00    -0.339 OA
HETATM    3  C   UNL     1      -4.628  -2.886 -34.172  1.00  0.00     0.098 A 
HETATM    4  C   UNL     1      -4.278  -4.225 -34.279  1.00  0.00     0.153 A 
HETATM    5  N   UNL     1      -5.134  -5.203 -34.649  1.00  0.00    -0.270 NA
HETATM    6  C   UNL     1      -6.392  -4.816 -34.934  1.00  0.00     0.117 A 
HETATM    7  C   UNL     1      -6.830  -3.499 -34.876  1.00  0.00     0.034 A 
HETATM    8  C   UNL     1      -5.932  -2.492 -34.498  1.00  0.00     0.011 A 
HETATM    9  C   UNL     1      -6.276  -1.065 -34.432  1.00  0.00    -0.014 A 
HETATM   10  C   UNL     1      -7.440  -0.506 -34.977  1.00  0.00     0.014 A 
HETATM   11  C   UNL     1      -7.703   0.865 -34.867  1.00  0.00     0.018 A 
HETATM   12  C   UNL     1      -6.811   1.720 -34.210  1.00  0.00     0.032 A 
HETATM   13  C   UNL     1      -5.638   1.176 -33.679  1.00  0.00     0.027 A 
HETATM   14  C   UNL     1      -5.369  -0.204 -33.793  1.00  0.00    -0.017 A 
ENDROOT
BRANCH  12  15
HETATM   15  C   UNL     1      -7.187   3.165 -34.094  1.00  0.00     0.252 C 
HETATM   16  O   UNL     1      -6.350   4.034 -34.315  1.00  0.00    -0.268 OA
HETATM   17  N   UNL     1      -8.488   3.464 -33.758  1.00  0.00    -0.349 N 
HETATM   18  H   UNL     1      -9.158   2.745 -33.544  1.00  0.00     0.163 HD
BRANCH  17  19
HETATM   19  C   UNL     1      -8.977   4.835 -33.704  1.00  0.00     0.114 C 
HETATM   20  C   UNL     1      -8.915   5.376 -32.274  1.00  0.00     0.037 C 
BRANCH  19  21
HETATM   21  C   UNL     1     -10.354   4.873 -34.350  1.00  0.00    -0.033 A 
HETATM   22  C   UNL     1     -10.884   6.121 -34.721  1.00  0.00     0.009 A 
HETATM   23  C   UNL     1     -12.113   6.212 -35.372  1.00  0.00     0.003 A 
HETATM   24  C   UNL     1     -12.827   5.053 -35.664  1.00  0.00     0.037 A 
HETATM   25  C   UNL     1     -12.324   3.800 -35.309  1.00  0.00     0.068 A 
HETATM   26  C   UNL     1     -11.087   3.713 -34.664  1.00  0.00     0.046 A 
BRANCH  25  27
HETATM   27  O   UNL     1     -13.123   2.747 -35.661  1.00  0.00    -0.356 OA
HETATM   28  C   UNL     1     -13.105   1.611 -34.805  1.00  0.00     0.210 C 
ENDBRANCH  25  27
ENDBRANCH  19  21
ENDBRANCH  17  19
ENDBRANCH  12  15
BRANCH   1  29
HETATM   29  C   UNL     1      -4.265  -0.983 -31.657  1.00  0.00     0.033 C 
HETATM   30  C   UNL     1      -3.581   0.121 -30.861  1.00  0.00     0.008 C 
ENDBRANCH   1  29
TORSDOF 5
ENDMDL
MODEL 2
REMARK VINA RESULT:      -8.7      4.845      8.940
REMARK  5 active torsions:
REMARK  status: ('A' for Active; 'I' for Inactive)
REMARK    1  A    between atoms: C_2  and  C_3 
REMARK    2  A    between atoms: C_14  and  C_17 
REMARK       I    between atoms: C_17  and  N_19 
REMARK    3  A    between atoms: N_19  and  C_20 
REMARK    4  A    between atoms: C_20  and  C_22 
REMARK    5  A    between atoms: C_26  and  O_27 
ROOT
HETATM    1  C   UNL     1      -1.249   4.961 -32.463  1.00  0.00     0.162 C 
HETATM    2  O   UNL     1      -0.381   5.418 -31.409  1.00  0.00    -0.339 OA
HETATM    3  C   UNL     1      -0.928   6.318 -30.537  1.00  0.00     0.098 A 
HETATM    4  C   UNL     1      -0.054   7.152 -29.852  1.00  0.00     0.153 A 
HETATM    5  N   UNL     1      -0.448   8.089 -28.960  1.00  0.00    -0.270 NA
HETATM    6  C   UNL     1      -1.773   8.182 -28.741  1.00  0.00     0.117 A 
HETATM    7  C   UNL     1      -2.720   7.378 -29.362  1.00  0.00     0.034 A 
HETATM    8  C   UNL     1      -2.301   6.406 -30.279  1.00  0.00     0.011 A 
HETATM    9  C   UNL     1      -3.210   5.481 -30.972  1.00  0.00    -0.014 A 
HETATM   10  C   UNL     1      -4.551   5.279 -30.618  1.00  0.00     0.014 A 
HETATM   11  C   UNL     1      -5.360   4.385 -31.333  1.00  0.00     0.018 A 
HETATM   12  C   UNL     1      -4.852   3.665 -32.420  1.00  0.00     0.032 A 
HETATM   13  C   UNL     1      -3.510   3.847 -32.769  1.00  0.00     0.027 A 
HETATM   14  C   UNL     1      -2.694   4.743 -32.048  1.00  0.00    -0.017 A 
ENDROOT
BRANCH  12  15
HETATM   15  C   UNL     1      -5.792   2.765 -33.161  1.00  0.00     0.252 C 
HETATM   16  O   UNL     1      -6.129   3.043 -34.307  1.00  0.00    -0.268 OA
HETATM   17  N   UNL     1      -6.228   1.627 -32.520  1.00  0.00    -0.349 N 
HETATM   18  H   UNL     1      -5.974   1.425 -31.568  1.00  0.00     0.163 HD
BRANCH  17  19
HETATM   19  C   UNL     1      -7.072   0.643 -33.182  1.00  0.00     0.114 C 
HETATM   20  C   UNL     1      -8.346   0.389 -32.373  1.00  0.00     0.037 C 
BRANCH  19  21
HETATM   21  C   UNL     1      -6.229  -0.593 -33.462  1.00  0.00    -0.033 A 
HETATM   22  C   UNL     1      -6.592  -1.418 -34.541  1.00  0.00     0.009 A 
HETATM   23  C   UNL     1      -5.822  -2.528 -34.883  1.00  0.00     0.003 A 
HETATM   24  C   UNL     1      -4.674  -2.825 -34.152  1.00  0.00     0.037 A 
HETATM   25  C   UNL     1      -4.290  -2.021 -33.078  1.00  0.00     0.068 A 
HETATM   26  C   UNL     1      -5.060  -0.904 -32.744  1.00  0.00     0.046 A 
BRANCH  25  27
HETATM   27  O   UNL     1      -3.141  -2.422 -32.452  1.00  0.00    -0.356 OA
HETATM   28  C   UNL     1      -3.129  -3.737 -31.910  1.00  0.00     0.210 C 
ENDBRANCH  25  27
ENDBRANCH  19  21
ENDBRANCH  17  19
ENDBRANCH  12  15
BRANCH   1  29
HETATM   29  C   UNL     1      -1.147   5.902 -33.676  1.00  0.00     0.033 C 
HETATM   30  C   UNL     1      -1.423   5.182 -34.990  1.00  0.00     0.008 C 
ENDBRANCH   1  29
TORSDOF 5
ENDMDL
MODEL 3
REMARK VINA RESULT:      -8.6      4.113      7.052
REMARK  5 active torsions:
REMARK  status: ('A' for Active; 'I' for Inactive)
REMARK    1  A    between atoms: C_2  and  C_3 
REMARK    2  A    between atoms: C_14  and  C_17 
REMARK       I    between atoms: C_17  and  N_19 
REMARK    3  A    between atoms: N_19  and  C_20 
REMARK    4  A    between atoms: C_20  and  C_22 
REMARK    5  A    between atoms: C_26  and  O_27 
ROOT
HETATM    1  C   UNL     1      -7.734  -0.363 -33.483  1.00  0.00     0.162 C 
HETATM    2  O   UNL     1      -7.804  -1.793 -33.631  1.00  0.00    -0.339 OA
HETATM    3  C   UNL     1      -6.660  -2.402 -34.067  1.00  0.00     0.098 A 
HETATM    4  C   UNL     1      -6.794  -3.632 -34.698  1.00  0.00     0.153 A 
HETATM    5  N   UNL     1      -5.756  -4.350 -35.181  1.00  0.00    -0.270 NA
HETATM    6  C   UNL     1      -4.532  -3.814 -35.012  1.00  0.00     0.117 A 
HETATM    7  C   UNL     1      -4.297  -2.602 -34.375  1.00  0.00     0.034 A 
HETATM    8  C   UNL     1      -5.380  -1.869 -33.872  1.00  0.00     0.011 A 
HETATM    9  C   UNL     1      -5.248  -0.593 -33.156  1.00  0.00    -0.014 A 
HETATM   10  C   UNL     1      -4.038  -0.084 -32.663  1.00  0.00     0.014 A 
HETATM   11  C   UNL     1      -3.990   1.147 -31.997  1.00  0.00     0.018 A 
HETATM   12  C   UNL     1      -5.149   1.906 -31.801  1.00  0.00     0.032 A 
HETATM   13  C   UNL     1      -6.364   1.399 -32.273  1.00  0.00     0.027 A 
HETATM   14  C   UNL     1      -6.415   0.158 -32.940  1.00  0.00    -0.017 A 
ENDROOT
BRANCH  12  15
HETATM   15  C   UNL     1      -5.008   3.233 -31.120  1.00  0.00     0.252 C 
HETATM   16  O   UNL     1      -5.280   3.341 -29.929  1.00  0.00    -0.268 OA
HETATM   17  N   UNL     1      -4.547   4.292 -31.870  1.00  0.00    -0.349 N 
HETATM   18  H   UNL     1      -4.360   4.202 -32.854  1.00  0.00     0.163 HD
BRANCH  17  19
HETATM   19  C   UNL     1      -4.291   5.600 -31.284  1.00  0.00     0.114 C 
HETATM   20  C   UNL     1      -5.319   6.623 -31.772  1.00  0.00     0.037 C 
BRANCH  19  21
HETATM   21  C   UNL     1      -2.839   5.966 -31.554  1.00  0.00    -0.033 A 
HETATM   22  C   UNL     1      -2.563   7.213 -32.141  1.00  0.00     0.009 A 
HETATM   23  C   UNL     1      -1.249   7.627 -32.354  1.00  0.00     0.003 A 
HETATM   24  C   UNL     1      -0.193   6.800 -31.979  1.00  0.00     0.037 A 
HETATM   25  C   UNL     1      -0.440   5.557 -31.393  1.00  0.00     0.068 A 
HETATM   26  C   UNL     1      -1.759   5.149 -31.173  1.00  0.00     0.046 A 
BRANCH  25  27
HETATM   27  O   UNL     1       0.686   4.850 -31.068  1.00  0.00    -0.356 OA
HETATM   28  C   UNL     1       0.961   4.678 -29.684  1.00  0.00     0.210 C 
ENDBRANCH  25  27
ENDBRANCH  19  21
ENDBRANCH  17  19
ENDBRANCH  12  15
BRANCH   1  29
HETATM   29  C   UNL     1      -8.108   0.324 -34.809  1.00  0.00     0.033 C 
HETATM   30  C   UNL     1      -9.291   1.271 -34.657  1.00  0.00     0.008 C 
ENDBRANCH   1  29
TORSDOF 5
ENDMDL
MODEL 4
REMARK VINA RESULT:      -8.4      1.993      2.154
REMARK  5 active torsions:
REMARK  status: ('A' for Active; 'I' for Inactive)
REMARK    1  A    between atoms: C_2  and  C_3 
REMARK    2  A    between atoms: C_14  and  C_17 
REMARK       I    between atoms: C_17  and  N_19 
REMARK    3  A    between atoms: N_19  and  C_20 
REMARK    4  A    between atoms: C_20  and  C_22 
REMARK    5  A    between atoms: C_26  and  O_27 
ROOT
HETATM    1  C   UNL     1      -4.576  -0.168 -33.276  1.00  0.00     0.162 C 
HETATM    2  O   UNL     1      -4.023  -1.266 -34.026  1.00  0.00    -0.339 OA
HETATM    3  C   UNL     1      -4.869  -2.316 -34.253  1.00  0.00     0.098 A 
HETATM    4  C   UNL     1      -4.293  -3.556 -34.495  1.00  0.00     0.153 A 
HETATM    5  N   UNL     1      -4.999  -4.683 -34.736  1.00  0.00    -0.270 NA
HETATM    6  C   UNL     1      -6.340  -4.554 -34.744  1.00  0.00     0.117 A 
HETATM    7  C   UNL     1      -7.005  -3.353 -34.533  1.00  0.00     0.034 A 
HETATM    8  C   UNL     1      -6.263  -2.190 -34.292  1.00  0.00     0.011 A 
HETATM    9  C   UNL     1      -6.858  -0.862 -34.086  1.00  0.00    -0.014 A 
HETATM   10  C   UNL     1      -8.195  -0.544 -34.359  1.00  0.00     0.014 A 
HETATM   11  C   UNL     1      -8.693   0.745 -34.128  1.00  0.00     0.018 A 
HETATM   12  C   UNL     1      -7.869   1.756 -33.621  1.00  0.00     0.032 A 
HETATM   13  C   UNL     1      -6.528   1.454 -33.363  1.00  0.00     0.027 A 
HETATM   14  C   UNL     1      -6.025   0.157 -33.598  1.00  0.00    -0.017 A 
ENDROOT
BRANCH  12  15
HETATM   15  C   UNL     1      -8.487   3.094 -33.359  1.00  0.00     0.252 C 
HETATM   16  O   UNL     1      -8.339   4.005 -34.167  1.00  0.00    -0.268 OA
HETATM   17  N   UNL     1      -9.231   3.243 -32.209  1.00  0.00    -0.349 N 
HETATM   18  H   UNL     1      -9.318   2.501 -31.535  1.00  0.00     0.163 HD
BRANCH  17  19
HETATM   19  C   UNL     1      -9.944   4.475 -31.905  1.00  0.00     0.114 C 
HETATM   20  C   UNL     1      -9.324   5.176 -30.694  1.00  0.00     0.037 C 
BRANCH  19  21
HETATM   21  C   UNL     1     -11.424   4.145 -31.770  1.00  0.00    -0.033 A 
HETATM   22  C   UNL     1     -12.163   4.791 -30.764  1.00  0.00     0.009 A 
HETATM   23  C   UNL     1     -13.534   4.576 -30.634  1.00  0.00     0.003 A 
HETATM   24  C   UNL     1     -14.185   3.713 -31.512  1.00  0.00     0.037 A 
HETATM   25  C   UNL     1     -13.475   3.060 -32.521  1.00  0.00     0.068 A 
HETATM   26  C   UNL     1     -12.102   3.286 -32.654  1.00  0.00     0.046 A 
BRANCH  25  27
HETATM   27  O   UNL     1     -14.237   2.247 -33.316  1.00  0.00    -0.356 OA
HETATM   28  C   UNL     1     -15.494   1.833 -32.796  1.00  0.00     0.210 C 
ENDBRANCH  25  27
ENDBRANCH  19  21
ENDBRANCH  17  19
ENDBRANCH  12  15
BRANCH   1  29
HETATM   29  C   UNL     1      -4.374  -0.403 -31.768  1.00  0.00     0.033 C 
HETATM   30  C   UNL     1      -2.969  -0.891 -31.442  1.00  0.00     0.008 C 
ENDBRANCH   1  29
TORSDOF 5
ENDMDL
MODEL 5
REMARK VINA RESULT:      -8.1      4.872      8.832
REMARK  5 active torsions:
REMARK  status: ('A' for Active; 'I' for Inactive)
REMARK    1  A    between atoms: C_2  and  C_3 
REMARK    2  A    between atoms: C_14  and  C_17 
REMARK       I    between atoms: C_17  and  N_19 
REMARK    3  A    between atoms: N_19  and  C_20 
REMARK    4  A    between atoms: C_20  and  C_22 
REMARK    5  A    between atoms: C_26  and  O_27 
ROOT
HETATM    1  C   UNL     1      -4.228   6.967 -30.078  1.00  0.00     0.162 C 
HETATM    2  O   UNL     1      -3.166   7.881 -29.749  1.00  0.00    -0.339 OA
HETATM    3  C   UNL     1      -1.923   7.325 -29.620  1.00  0.00     0.098 A 
HETATM    4  C   UNL     1      -1.000   8.007 -28.839  1.00  0.00     0.153 A 
HETATM    5  N   UNL     1       0.265   7.582 -28.620  1.00  0.00    -0.270 NA
HETATM    6  C   UNL     1       0.617   6.429 -29.222  1.00  0.00     0.117 A 
HETATM    7  C   UNL     1      -0.229   5.690 -30.037  1.00  0.00     0.034 A 
HETATM    8  C   UNL     1      -1.536   6.143 -30.263  1.00  0.00     0.011 A 
HETATM    9  C   UNL     1      -2.506   5.460 -31.129  1.00  0.00    -0.014 A 
HETATM   10  C   UNL     1      -2.178   4.436 -32.029  1.00  0.00     0.014 A 
HETATM   11  C   UNL     1      -3.162   3.825 -32.818  1.00  0.00     0.018 A 
HETATM   12  C   UNL     1      -4.502   4.220 -32.733  1.00  0.00     0.032 A 
HETATM   13  C   UNL     1      -4.836   5.254 -31.852  1.00  0.00     0.027 A 
HETATM   14  C   UNL     1      -3.846   5.873 -31.060  1.00  0.00    -0.017 A 
ENDROOT
BRANCH  12  15
HETATM   15  C   UNL     1      -5.500   3.487 -33.575  1.00  0.00     0.252 C 
HETATM   16  O   UNL     1      -5.886   3.977 -34.631  1.00  0.00    -0.268 OA
HETATM   17  N   UNL     1      -5.934   2.259 -33.130  1.00  0.00    -0.349 N 
HETATM   18  H   UNL     1      -5.639   1.881 -32.246  1.00  0.00     0.163 HD
BRANCH  17  19
HETATM   19  C   UNL     1      -6.836   1.427 -33.915  1.00  0.00     0.114 C 
HETATM   20  C   UNL     1      -8.253   1.471 -33.339  1.00  0.00     0.037 C 
BRANCH  19  21
HETATM   21  C   UNL     1      -6.226   0.037 -34.023  1.00  0.00    -0.033 A 
HETATM   22  C   UNL     1      -4.916  -0.156 -33.551  1.00  0.00     0.009 A 
HETATM   23  C   UNL     1      -4.330  -1.420 -33.567  1.00  0.00     0.003 A 
HETATM   24  C   UNL     1      -5.049  -2.510 -34.053  1.00  0.00     0.037 A 
HETATM   25  C   UNL     1      -6.352  -2.346 -34.526  1.00  0.00     0.068 A 
HETATM   26  C   UNL     1      -6.939  -1.078 -34.500  1.00  0.00     0.046 A 
BRANCH  25  27
HETATM   27  O   UNL     1      -6.944  -3.498 -34.968  1.00  0.00    -0.356 OA
HETATM   28  C   UNL     1      -6.083  -4.590 -35.269  1.00  0.00     0.210 C 
ENDBRANCH  25  27
ENDBRANCH  19  21
ENDBRANCH  17  19
ENDBRANCH  12  15
BRANCH   1  29
HETATM   29  C   UNL     1      -4.838   6.380 -28.792  1.00  0.00     0.033 C 
HETATM   30  C   UNL     1      -5.036   7.436 -27.713  1.00  0.00     0.008 C 
ENDBRANCH   1  29
TORSDOF 5
ENDMDL
MODEL 6
REMARK VINA RESULT:      -8.0      2.804      4.811
REMARK  5 active torsions:
REMARK  status: ('A' for Active; 'I' for Inactive)
REMARK    1  A    between atoms: C_2  and  C_3 
REMARK    2  A    between atoms: C_14  and  C_17 
REMARK       I    between atoms: C_17  and  N_19 
REMARK    3  A    between atoms: N_19  and  C_20 
REMARK    4  A    between atoms: C_20  and  C_22 
REMARK    5  A    between atoms: C_26  and  O_27 
ROOT
HETATM    1  C   UNL     1      -6.275  -1.179 -32.857  1.00  0.00     0.162 C 
HETATM    2  O   UNL     1      -5.202  -1.139 -31.897  1.00  0.00    -0.339 OA
HETATM    3  C   UNL     1      -4.615   0.082 -31.713  1.00  0.00     0.098 A 
HETATM    4  C   UNL     1      -3.315   0.096 -31.228  1.00  0.00     0.153 A 
HETATM    5  N   UNL     1      -2.607   1.224 -30.996  1.00  0.00    -0.270 NA
HETATM    6  C   UNL     1      -3.239   2.386 -31.253  1.00  0.00     0.117 A 
HETATM    7  C   UNL     1      -4.544   2.472 -31.719  1.00  0.00     0.034 A 
HETATM    8  C   UNL     1      -5.271   1.296 -31.949  1.00  0.00     0.011 A 
HETATM    9  C   UNL     1      -6.665   1.268 -32.412  1.00  0.00    -0.014 A 
HETATM   10  C   UNL     1      -7.514   2.384 -32.431  1.00  0.00     0.014 A 
HETATM   11  C   UNL     1      -8.832   2.280 -32.896  1.00  0.00     0.018 A 
HETATM   12  C   UNL     1      -9.341   1.060 -33.353  1.00  0.00     0.032 A 
HETATM   13  C   UNL     1      -8.508  -0.062 -33.321  1.00  0.00     0.027 A 
HETATM   14  C   UNL     1      -7.182   0.039 -32.850  1.00  0.00    -0.017 A 
ENDROOT
BRANCH  12  15
HETATM   15  C   UNL     1     -10.744   1.042 -33.877  1.00  0.00     0.252 C 
HETATM   16  O   UNL     1     -11.528   0.180 -33.494  1.00  0.00    -0.268 OA
HETATM   17  N   UNL     1     -11.109   2.026 -34.767  1.00  0.00    -0.349 N 
HETATM   18  H   UNL     1     -10.449   2.708 -35.102  1.00  0.00     0.163 HD
BRANCH  17  19
HETATM   19  C   UNL     1     -12.471   2.150 -35.268  1.00  0.00     0.114 C 
HETATM   20  C   UNL     1     -12.551   3.216 -36.362  1.00  0.00     0.037 C 
BRANCH  19  21
HETATM   21  C   UNL     1     -13.395   2.374 -34.080  1.00  0.00    -0.033 A 
HETATM   22  C   UNL     1     -14.490   1.509 -33.913  1.00  0.00     0.009 A 
HETATM   23  C   UNL     1     -15.333   1.628 -32.810  1.00  0.00     0.003 A 
HETATM   24  C   UNL     1     -15.090   2.613 -31.855  1.00  0.00     0.037 A 
HETATM   25  C   UNL     1     -14.008   3.484 -31.996  1.00  0.00     0.068 A 
HETATM   26  C   UNL     1     -13.159   3.355 -33.099  1.00  0.00     0.046 A 
BRANCH  25  27
HETATM   27  O   UNL     1     -13.881   4.398 -30.985  1.00  0.00    -0.356 OA
HETATM   28  C   UNL     1     -12.564   4.844 -30.683  1.00  0.00     0.210 C 
ENDBRANCH  25  27
ENDBRANCH  19  21
ENDBRANCH  17  19
ENDBRANCH  12  15
BRANCH   1  29
HETATM   29  C   UNL     1      -5.715  -1.455 -34.264  1.00  0.00     0.033 C 
HETATM   30  C   UNL     1      -6.212  -2.777 -34.836  1.00  0.00     0.008 C 
ENDBRANCH   1  29
TORSDOF 5
ENDMDL
MODEL 7
REMARK VINA RESULT:      -8.0      6.181      9.343
REMARK  5 active torsions:
REMARK  status: ('A' for Active; 'I' for Inactive)
REMARK    1  A    between atoms: C_2  and  C_3 
REMARK    2  A    between atoms: C_14  and  C_17 
REMARK       I    between atoms: C_17  and  N_19 
REMARK    3  A    between atoms: N_19  and  C_20 
REMARK    4  A    between atoms: C_20  and  C_22 
REMARK    5  A    between atoms: C_26  and  O_27 
ROOT
HETATM    1  C   UNL     1      -4.693   0.788 -32.616  1.00  0.00     0.162 C 
HETATM    2  O   UNL     1      -6.006   0.492 -33.126  1.00  0.00    -0.339 OA
HETATM    3  C   UNL     1      -7.045   1.108 -32.484  1.00  0.00     0.098 A 
HETATM    4  C   UNL     1      -8.293   0.505 -32.570  1.00  0.00     0.153 A 
HETATM    5  N   UNL     1      -9.411   0.996 -31.990  1.00  0.00    -0.270 NA
HETATM    6  C   UNL     1      -9.268   2.147 -31.304  1.00  0.00     0.117 A 
HETATM    7  C   UNL     1      -8.067   2.832 -31.181  1.00  0.00     0.034 A 
HETATM    8  C   UNL     1      -6.916   2.318 -31.792  1.00  0.00     0.011 A 
HETATM    9  C   UNL     1      -5.601   2.972 -31.754  1.00  0.00    -0.014 A 
HETATM   10  C   UNL     1      -5.387   4.293 -31.336  1.00  0.00     0.014 A 
HETATM   11  C   UNL     1      -4.100   4.847 -31.318  1.00  0.00     0.018 A 
HETATM   12  C   UNL     1      -2.989   4.098 -31.719  1.00  0.00     0.032 A 
HETATM   13  C   UNL     1      -3.193   2.785 -32.155  1.00  0.00     0.027 A 
HETATM   14  C   UNL     1      -4.489   2.228 -32.178  1.00  0.00    -0.017 A 
ENDROOT
BRANCH  12  15
HETATM   15  C   UNL     1      -1.641   4.745 -31.628  1.00  0.00     0.252 C 
HETATM   16  O   UNL     1      -1.019   5.009 -32.652  1.00  0.00    -0.268 OA
HETATM   17  N   UNL     1      -1.157   5.043 -30.374  1.00  0.00    -0.349 N 
HETATM   18  H   UNL     1      -1.659   4.791 -29.539  1.00  0.00     0.163 HD
BRANCH  17  19
HETATM   19  C   UNL     1       0.101   5.750 -30.179  1.00  0.00     0.114 C 
HETATM   20  C   UNL     1       1.147   4.831 -29.545  1.00  0.00     0.037 C 
BRANCH  19  21
HETATM   21  C   UNL     1      -0.188   7.028 -29.405  1.00  0.00    -0.033 A 
HETATM   22  C   UNL     1      -1.474   7.590 -29.500  1.00  0.00     0.009 A 
HETATM   23  C   UNL     1      -1.814   8.724 -28.764  1.00  0.00     0.003 A 
HETATM   24  C   UNL     1      -0.873   9.309 -27.920  1.00  0.00     0.037 A 
HETATM   25  C   UNL     1       0.409   8.770 -27.805  1.00  0.00     0.068 A 
HETATM   26  C   UNL     1       0.744   7.627 -28.538  1.00  0.00     0.046 A 
BRANCH  25  27
HETATM   27  O   UNL     1       1.230   9.437 -26.937  1.00  0.00    -0.356 OA
HETATM   28  C   UNL     1       0.627   9.980 -25.769  1.00  0.00     0.210 C 
ENDBRANCH  25  27
ENDBRANCH  19  21
ENDBRANCH  17  19
ENDBRANCH  12  15
BRANCH   1  29
HETATM   29  C   UNL     1      -4.327  -0.199 -31.492  1.00  0.00     0.033 C 
HETATM   30  C   UNL     1      -2.985  -0.878 -31.732  1.00  0.00     0.008 C 
ENDBRANCH   1  29
TORSDOF 5
ENDMDL
MODEL 8
REMARK VINA RESULT:      -8.0      4.087      8.743
REMARK  5 active torsions:
REMARK  status: ('A' for Active; 'I' for Inactive)
REMARK    1  A    between atoms: C_2  and  C_3 
REMARK    2  A    between atoms: C_14  and  C_17 
REMARK       I    between atoms: C_17  and  N_19 
REMARK    3  A    between atoms: N_19  and  C_20 
REMARK    4  A    between atoms: C_20  and  C_22 
REMARK    5  A    between atoms: C_26  and  O_27 
ROOT
HETATM    1  C   UNL     1      -3.938   6.473 -32.822  1.00  0.00     0.162 C 
HETATM    2  O   UNL     1      -2.631   7.076 -32.830  1.00  0.00    -0.339 OA
HETATM    3  C   UNL     1      -1.712   6.510 -31.990  1.00  0.00     0.098 A 
HETATM    4  C   UNL     1      -0.653   7.308 -31.576  1.00  0.00     0.153 A 
HETATM    5  N   UNL     1       0.330   6.888 -30.749  1.00  0.00    -0.270 NA
HETATM    6  C   UNL     1       0.251   5.610 -30.331  1.00  0.00     0.117 A 
HETATM    7  C   UNL     1      -0.757   4.732 -30.708  1.00  0.00     0.034 A 
HETATM    8  C   UNL     1      -1.767   5.176 -31.571  1.00  0.00     0.011 A 
HETATM    9  C   UNL     1      -2.863   4.327 -32.060  1.00  0.00    -0.014 A 
HETATM   10  C   UNL     1      -2.895   2.931 -31.941  1.00  0.00     0.014 A 
HETATM   11  C   UNL     1      -3.981   2.189 -32.424  1.00  0.00     0.018 A 
HETATM   12  C   UNL     1      -5.066   2.820 -33.043  1.00  0.00     0.032 A 
HETATM   13  C   UNL     1      -5.036   4.211 -33.183  1.00  0.00     0.027 A 
HETATM   14  C   UNL     1      -3.941   4.959 -32.700  1.00  0.00    -0.017 A 
ENDROOT
BRANCH  12  15
HETATM   15  C   UNL     1      -6.209   1.963 -33.491  1.00  0.00     0.252 C 
HETATM   16  O   UNL     1      -7.259   2.484 -33.853  1.00  0.00    -0.268 OA
HETATM   17  N   UNL     1      -6.022   0.599 -33.501  1.00  0.00    -0.349 N 
HETATM   18  H   UNL     1      -5.170   0.179 -33.170  1.00  0.00     0.163 HD
BRANCH  17  19
HETATM   19  C   UNL     1      -7.038  -0.317 -34.001  1.00  0.00     0.114 C 
HETATM   20  C   UNL     1      -8.295  -0.260 -33.131  1.00  0.00     0.037 C 
BRANCH  19  21
HETATM   21  C   UNL     1      -6.409  -1.696 -34.134  1.00  0.00    -0.033 A 
HETATM   22  C   UNL     1      -7.138  -2.703 -34.791  1.00  0.00     0.009 A 
HETATM   23  C   UNL     1      -6.587  -3.966 -34.998  1.00  0.00     0.003 A 
HETATM   24  C   UNL     1      -5.296  -4.239 -34.553  1.00  0.00     0.037 A 
HETATM   25  C   UNL     1      -4.549  -3.257 -33.900  1.00  0.00     0.068 A 
HETATM   26  C   UNL     1      -5.101  -1.988 -33.703  1.00  0.00     0.046 A 
BRANCH  25  27
HETATM   27  O   UNL     1      -3.295  -3.656 -33.523  1.00  0.00    -0.356 OA
HETATM   28  C   UNL     1      -3.066  -3.823 -32.129  1.00  0.00     0.210 C 
ENDBRANCH  25  27
ENDBRANCH  19  21
ENDBRANCH  17  19
ENDBRANCH  12  15
BRANCH   1  29
HETATM   29  C   UNL     1      -4.815   7.127 -31.739  1.00  0.00     0.033 C 
HETATM   30  C   UNL     1      -6.297   7.078 -32.089  1.00  0.00     0.008 C 
ENDBRANCH   1  29
TORSDOF 5
ENDMDL
MODEL 9
REMARK VINA RESULT:      -7.9      7.401     11.087
REMARK  5 active torsions:
REMARK  status: ('A' for Active; 'I' for Inactive)
REMARK    1  A    between atoms: C_2  and  C_3 
REMARK    2  A    between atoms: C_14  and  C_17 
REMARK       I    between atoms: C_17  and  N_19 
REMARK    3  A    between atoms: N_19  and  C_20 
REMARK    4  A    between atoms: C_20  and  C_22 
REMARK    5  A    between atoms: C_26  and  O_27 
ROOT
HETATM    1  C   UNL     1      -2.396   8.096 -27.598  1.00  0.00     0.162 C 
HETATM    2  O   UNL     1      -1.779   9.129 -26.808  1.00  0.00    -0.339 OA
HETATM    3  C   UNL     1      -0.458   8.942 -26.512  1.00  0.00     0.098 A 
HETATM    4  C   UNL     1       0.040   9.586 -25.387  1.00  0.00     0.153 A 
HETATM    5  N   UNL     1       1.323   9.496 -24.971  1.00  0.00    -0.270 NA
HETATM    6  C   UNL     1       2.141   8.735 -25.724  1.00  0.00     0.117 A 
HETATM    7  C   UNL     1       1.740   8.072 -26.876  1.00  0.00     0.034 A 
HETATM    8  C   UNL     1       0.409   8.178 -27.302  1.00  0.00     0.011 A 
HETATM    9  C   UNL     1      -0.118   7.545 -28.519  1.00  0.00    -0.014 A 
HETATM   10  C   UNL     1       0.679   6.985 -29.528  1.00  0.00     0.014 A 
HETATM   11  C   UNL     1       0.102   6.391 -30.658  1.00  0.00     0.018 A 
HETATM   12  C   UNL     1      -1.287   6.339 -30.815  1.00  0.00     0.032 A 
HETATM   13  C   UNL     1      -2.090   6.911 -29.823  1.00  0.00     0.027 A 
HETATM   14  C   UNL     1      -1.511   7.514 -28.687  1.00  0.00    -0.017 A 
ENDROOT
BRANCH  12  15
HETATM   15  C   UNL     1      -1.827   5.646 -32.028  1.00  0.00     0.252 C 
HETATM   16  O   UNL     1      -1.088   5.413 -32.979  1.00  0.00    -0.268 OA
HETATM   17  N   UNL     1      -3.152   5.270 -32.015  1.00  0.00    -0.349 N 
HETATM   18  H   UNL     1      -3.759   5.496 -31.245  1.00  0.00     0.163 HD
BRANCH  17  19
HETATM   19  C   UNL     1      -3.751   4.514 -33.105  1.00  0.00     0.114 C 
HETATM   20  C   UNL     1      -4.824   5.344 -33.814  1.00  0.00     0.037 C 
BRANCH  19  21
HETATM   21  C   UNL     1      -4.230   3.180 -32.551  1.00  0.00    -0.033 A 
HETATM   22  C   UNL     1      -5.586   2.842 -32.701  1.00  0.00     0.009 A 
HETATM   23  C   UNL     1      -6.068   1.608 -32.269  1.00  0.00     0.003 A 
HETATM   24  C   UNL     1      -5.196   0.692 -31.685  1.00  0.00     0.037 A 
HETATM   25  C   UNL     1      -3.845   1.001 -31.526  1.00  0.00     0.068 A 
HETATM   26  C   UNL     1      -3.364   2.237 -31.968  1.00  0.00     0.046 A 
BRANCH  25  27
HETATM   27  O   UNL     1      -3.101   0.010 -30.944  1.00  0.00    -0.356 OA
HETATM   28  C   UNL     1      -2.556  -0.978 -31.809  1.00  0.00     0.210 C 
ENDBRANCH  25  27
ENDBRANCH  19  21
ENDBRANCH  17  19
ENDBRANCH  12  15
BRANCH   1  29
HETATM   29  C   UNL     1      -2.958   6.994 -26.682  1.00  0.00     0.033 C 
HETATM   30  C   UNL     1      -4.431   6.713 -26.952  1.00  0.00     0.008 C 
ENDBRANCH   1  29
TORSDOF 5
ENDMDL
MODEL 10
REMARK VINA RESULT:      -7.9      5.078      8.154
REMARK  5 active torsions:
REMARK  status: ('A' for Active; 'I' for Inactive)
REMARK    1  A    between atoms: C_2  and  C_3 
REMARK    2  A    between atoms: C_14  and  C_17 
REMARK       I    between atoms: C_17  and  N_19 
REMARK    3  A    between atoms: N_19  and  C_20 
REMARK    4  A    between atoms: C_20  and  C_22 
REMARK    5  A    between atoms: C_26  and  O_27 
ROOT
HETATM    1  C   UNL     1      -3.674   0.227 -32.169  1.00  0.00     0.162 C 
HETATM    2  O   UNL     1      -3.882  -0.837 -33.118  1.00  0.00    -0.339 OA
HETATM    3  C   UNL     1      -5.122  -0.888 -33.690  1.00  0.00     0.098 A 
HETATM    4  C   UNL     1      -5.545  -2.115 -34.185  1.00  0.00     0.153 A 
HETATM    5  N   UNL     1      -6.743  -2.319 -34.776  1.00  0.00    -0.270 NA
HETATM    6  C   UNL     1      -7.545  -1.241 -34.883  1.00  0.00     0.117 A 
HETATM    7  C   UNL     1      -7.201   0.028 -34.438  1.00  0.00     0.034 A 
HETATM    8  C   UNL     1      -5.953   0.230 -33.833  1.00  0.00     0.011 A 
HETATM    9  C   UNL     1      -5.473   1.533 -33.352  1.00  0.00    -0.014 A 
HETATM   10  C   UNL     1      -6.072   2.761 -33.665  1.00  0.00     0.014 A 
HETATM   11  C   UNL     1      -5.561   3.964 -33.161  1.00  0.00     0.018 A 
HETATM   12  C   UNL     1      -4.434   3.976 -32.332  1.00  0.00     0.032 A 
HETATM   13  C   UNL     1      -3.818   2.758 -32.029  1.00  0.00     0.027 A 
HETATM   14  C   UNL     1      -4.329   1.546 -32.538  1.00  0.00    -0.017 A 
ENDROOT
BRANCH  12  15
HETATM   15  C   UNL     1      -3.976   5.298 -31.796  1.00  0.00     0.252 C 
HETATM   16  O   UNL     1      -4.722   5.960 -31.083  1.00  0.00    -0.268 OA
HETATM   17  N   UNL     1      -2.702   5.712 -32.114  1.00  0.00    -0.349 N 
HETATM   18  H   UNL     1      -2.109   5.178 -32.728  1.00  0.00     0.163 HD
BRANCH  17  19
HETATM   19  C   UNL     1      -2.130   6.937 -31.574  1.00  0.00     0.114 C 
HETATM   20  C   UNL     1      -1.515   7.785 -32.688  1.00  0.00     0.037 C 
BRANCH  19  21
HETATM   21  C   UNL     1      -1.176   6.559 -30.449  1.00  0.00    -0.033 A 
HETATM   22  C   UNL     1      -0.347   5.437 -30.625  1.00  0.00     0.009 A 
HETATM   23  C   UNL     1       0.589   5.082 -29.656  1.00  0.00     0.003 A 
HETATM   24  C   UNL     1       0.712   5.848 -28.499  1.00  0.00     0.037 A 
HETATM   25  C   UNL     1      -0.096   6.969 -28.301  1.00  0.00     0.068 A 
HETATM   26  C   UNL     1      -1.028   7.327 -29.279  1.00  0.00     0.046 A 
BRANCH  25  27
HETATM   27  O   UNL     1       0.133   7.633 -27.127  1.00  0.00    -0.356 OA
HETATM   28  C   UNL     1       1.437   7.523 -26.569  1.00  0.00     0.210 C 
ENDBRANCH  25  27
ENDBRANCH  19  21
ENDBRANCH  17  19
ENDBRANCH  12  15
BRANCH   1  29
HETATM   29  C   UNL     1      -4.090  -0.233 -30.760  1.00  0.00     0.033 C 
HETATM   30  C   UNL     1      -5.410   0.383 -30.317  1.00  0.00     0.008 C 
ENDBRANCH   1  29
TORSDOF 5
ENDMDL
