MODEL 1
REMARK VINA RESULT:      -7.9      0.000      0.000
REMARK  7 active torsions:
REMARK  status: ('A' for Active; 'I' for Inactive)
REMARK    1  A    between atoms: C_2  and  C_3 
REMARK    2  A    between atoms: C_3  and  N_4 
REMARK    3  A    between atoms: N_4  and  C_5 
REMARK    4  A    between atoms: C_7  and  N_8 
REMARK    5  A    between atoms: N_8  and  C_9 
REMARK    6  A    between atoms: C_9  and  C_10 
REMARK    7  A    between atoms: C_13  and  O_14 
ROOT
HETATM    1  C   UNL     1      -6.419  -0.892 -34.257  1.00  0.00     0.119 A 
HETATM    2  N   UNL     1      -5.648   0.056 -33.692  1.00  0.00    -0.207 NA
HETATM    3  C   UNL     1      -4.459  -0.313 -33.199  1.00  0.00     0.181 A 
HETATM    4  N   UNL     1      -4.022  -1.569 -33.224  1.00  0.00    -0.330 N 
HETATM    5  H   UNL     1      -3.154  -1.779 -32.747  1.00  0.00     0.168 HD
HETATM    6  C   UNL     1      -4.725  -2.538 -33.818  1.00  0.00     0.048 A 
HETATM    7  C   UNL     1      -5.978  -2.227 -34.382  1.00  0.00     0.031 A 
HETATM    8  C   UNL     1      -4.214  -3.843 -33.875  1.00  0.00     0.030 A 
HETATM    9  C   UNL     1      -4.939  -4.851 -34.508  1.00  0.00     0.002 A 
HETATM   10  C   UNL     1      -6.172  -4.563 -35.084  1.00  0.00     0.001 A 
HETATM   11  C   UNL     1      -6.691  -3.267 -35.024  1.00  0.00     0.017 A 
ENDROOT
BRANCH   3  12
HETATM   12  N   UNL     1      -3.720   0.672 -32.565  1.00  0.00    -0.258 NA
HETATM   13  H   UNL     1      -3.185   0.180 -31.845  1.00  0.00     0.130 HD
BRANCH  12  14
HETATM   14  C   UNL     1      -4.441   1.807 -31.991  1.00  0.00     0.134 C 
BRANCH  14  15
HETATM   15  C   UNL     1      -4.018   3.090 -32.666  1.00  0.00    -0.045 A 
HETATM   16  C   UNL     1      -2.727   3.602 -32.494  1.00  0.00     0.011 A 
HETATM   17  C   UNL     1      -2.374   4.821 -33.080  1.00  0.00     0.037 A 
HETATM   18  C   UNL     1      -3.289   5.536 -33.857  1.00  0.00     0.068 A 
HETATM   19  C   UNL     1      -4.569   5.021 -34.049  1.00  0.00     0.037 A 
HETATM   20  C   UNL     1      -4.928   3.804 -33.463  1.00  0.00     0.011 A 
BRANCH  18  21
HETATM   21  O   UNL     1      -2.817   6.715 -34.358  1.00  0.00    -0.356 OA
HETATM   22  C   UNL     1      -1.822   7.390 -33.593  1.00  0.00     0.210 C 
ENDBRANCH  18  21
ENDBRANCH  14  15
ENDBRANCH  12  14
ENDBRANCH   3  12
BRANCH   1  23
HETATM   23  N   UNL     1      -7.673  -0.526 -34.772  1.00  0.00    -0.277 NA
HETATM   24  H   UNL     1      -8.384  -1.198 -34.488  1.00  0.00     0.129 HD
BRANCH  23  25
HETATM   25  C   UNL     1      -8.108   0.846 -34.502  1.00  0.00     0.093 C 
BRANCH  25  26
HETATM   26  C   UNL     1      -9.560   0.830 -34.020  1.00  0.00     0.010 C 
HETATM   27  C   UNL     1      -9.719  -0.000 -32.758  1.00  0.00     0.006 C 
ENDBRANCH  25  26
ENDBRANCH  23  25
ENDBRANCH   1  23
TORSDOF 7
ENDMDL
MODEL 2
REMARK VINA RESULT:      -7.6      3.897      6.432
REMARK  7 active torsions:
REMARK  status: ('A' for Active; 'I' for Inactive)
REMARK    1  A    between atoms: C_2  and  C_3 
REMARK    2  A    between atoms: C_3  and  N_4 
REMARK    3  A    between atoms: N_4  and  C_5 
REMARK    4  A    between atoms: C_7  and  N_8 
REMARK    5  A    between atoms: N_8  and  C_9 
REMARK    6  A    between atoms: C_9  and  C_10 
REMARK    7  A    between atoms: C_13  and  O_14 
ROOT
HETATM    1  C   UNL     1      -6.504  -1.243 -33.677  1.00  0.00     0.119 A 
HETATM    2  N   UNL     1      -7.708  -0.682 -33.457  1.00  0.00    -0.207 NA
HETATM    3  C   UNL     1      -7.832   0.150 -32.415  1.00  0.00     0.181 A 
HETATM    4  N   UNL     1      -6.831   0.426 -31.585  1.00  0.00    -0.330 N 
HETATM    5  H   UNL     1      -7.033   0.991 -30.769  1.00  0.00     0.168 HD
HETATM    6  C   UNL     1      -5.604  -0.064 -31.788  1.00  0.00     0.048 A 
HETATM    7  C   UNL     1      -5.384  -0.931 -32.877  1.00  0.00     0.031 A 
HETATM    8  C   UNL     1      -4.556   0.287 -30.925  1.00  0.00     0.030 A 
HETATM    9  C   UNL     1      -3.272  -0.210 -31.145  1.00  0.00     0.002 A 
HETATM   10  C   UNL     1      -3.030  -1.057 -32.223  1.00  0.00     0.001 A 
HETATM   11  C   UNL     1      -4.072  -1.416 -33.082  1.00  0.00     0.017 A 
ENDROOT
BRANCH   3  12
HETATM   12  N   UNL     1      -9.099   0.658 -32.176  1.00  0.00    -0.258 NA
HETATM   13  H   UNL     1      -9.232   0.573 -31.165  1.00  0.00     0.130 HD
BRANCH  12  14
HETATM   14  C   UNL     1     -10.222   0.063 -32.898  1.00  0.00     0.134 C 
BRANCH  14  15
HETATM   15  C   UNL     1     -10.928   1.113 -33.723  1.00  0.00    -0.045 A 
HETATM   16  C   UNL     1     -10.256   2.264 -34.152  1.00  0.00     0.011 A 
HETATM   17  C   UNL     1     -10.943   3.250 -34.864  1.00  0.00     0.037 A 
HETATM   18  C   UNL     1     -12.296   3.100 -35.176  1.00  0.00     0.068 A 
HETATM   19  C   UNL     1     -12.965   1.947 -34.770  1.00  0.00     0.037 A 
HETATM   20  C   UNL     1     -12.284   0.959 -34.056  1.00  0.00     0.011 A 
BRANCH  18  21
HETATM   21  O   UNL     1     -12.846   4.144 -35.864  1.00  0.00    -0.356 OA
HETATM   22  C   UNL     1     -12.576   5.454 -35.372  1.00  0.00     0.210 C 
ENDBRANCH  18  21
ENDBRANCH  14  15
ENDBRANCH  12  14
ENDBRANCH   3  12
BRANCH   1  23
HETATM   23  N   UNL     1      -6.357  -2.126 -34.760  1.00  0.00    -0.277 NA
HETATM   24  H   UNL     1      -5.377  -2.197 -35.030  1.00  0.00     0.129 HD
BRANCH  23  25
HETATM   25  C   UNL     1      -6.955  -3.452 -34.599  1.00  0.00     0.093 C 
BRANCH  25  26
HETATM   26  C   UNL     1      -6.075  -4.491 -35.295  1.00  0.00     0.010 C 
HETATM   27  C   UNL     1      -4.935  -4.946 -34.399  1.00  0.00     0.006 C 
ENDBRANCH  25  26
ENDBRANCH  23  25
ENDBRANCH   1  23
TORSDOF 7
ENDMDL
MODEL 3
REMARK VINA RESULT:      -7.5      4.094      7.639
REMARK  7 active torsions:
REMARK  status: ('A' for Active; 'I' for Inactive)
REMARK    1  A    between atoms: C_2  and  C_3 
REMARK    2  A    between atoms: C_3  and  N_4 
REMARK    3  A    between atoms: N_4  and  C_5 
REMARK    4  A    between atoms: C_7  and  N_8 
REMARK    5  A    between atoms: N_8  and  C_9 
REMARK    6  A    between atoms: C_9  and  C_10 
REMARK    7  A    between atoms: C_13  and  O_14 
ROOT
HETATM    1  C   UNL     1      -6.375   0.213 -31.751  1.00  0.00     0.119 A 
HETATM    2  N   UNL     1      -7.632   0.683 -31.635  1.00  0.00    -0.207 NA
HETATM    3  C   UNL     1      -8.546   0.257 -32.517  1.00  0.00     0.181 A 
HETATM    4  N   UNL     1      -8.262  -0.586 -33.504  1.00  0.00    -0.330 N 
HETATM    5  H   UNL     1      -8.988  -0.785 -34.182  1.00  0.00     0.168 HD
HETATM    6  C   UNL     1      -7.045  -1.123 -33.633  1.00  0.00     0.048 A 
HETATM    7  C   UNL     1      -6.031  -0.743 -32.730  1.00  0.00     0.031 A 
HETATM    8  C   UNL     1      -6.790  -2.051 -34.653  1.00  0.00     0.030 A 
HETATM    9  C   UNL     1      -5.525  -2.623 -34.778  1.00  0.00     0.002 A 
HETATM   10  C   UNL     1      -4.512  -2.273 -33.889  1.00  0.00     0.001 A 
HETATM   11  C   UNL     1      -4.758  -1.343 -32.875  1.00  0.00     0.017 A 
ENDROOT
BRANCH   3  12
HETATM   12  N   UNL     1      -9.811   0.812 -32.412  1.00  0.00    -0.258 NA
HETATM   13  H   UNL     1     -10.403   0.058 -32.057  1.00  0.00     0.130 HD
BRANCH  12  14
HETATM   14  C   UNL     1     -10.397   1.411 -33.610  1.00  0.00     0.134 C 
BRANCH  14  15
HETATM   15  C   UNL     1     -11.897   1.517 -33.461  1.00  0.00    -0.045 A 
HETATM   16  C   UNL     1     -12.716   0.392 -33.603  1.00  0.00     0.011 A 
HETATM   17  C   UNL     1     -14.105   0.522 -33.519  1.00  0.00     0.037 A 
HETATM   18  C   UNL     1     -14.696   1.764 -33.275  1.00  0.00     0.068 A 
HETATM   19  C   UNL     1     -13.884   2.885 -33.111  1.00  0.00     0.037 A 
HETATM   20  C   UNL     1     -12.495   2.761 -33.197  1.00  0.00     0.011 A 
BRANCH  18  21
HETATM   21  O   UNL     1     -16.061   1.751 -33.230  1.00  0.00    -0.356 OA
HETATM   22  C   UNL     1     -16.677   2.419 -32.133  1.00  0.00     0.210 C 
ENDBRANCH  18  21
ENDBRANCH  14  15
ENDBRANCH  12  14
ENDBRANCH   3  12
BRANCH   1  23
HETATM   23  N   UNL     1      -5.401   0.654 -30.842  1.00  0.00    -0.277 NA
HETATM   24  H   UNL     1      -4.630  -0.009 -30.796  1.00  0.00     0.129 HD
BRANCH  23  25
HETATM   25  C   UNL     1      -4.909   2.020 -31.034  1.00  0.00     0.093 C 
BRANCH  25  26
HETATM   26  C   UNL     1      -3.555   1.974 -31.745  1.00  0.00     0.010 C 
HETATM   27  C   UNL     1      -2.957   3.362 -31.895  1.00  0.00     0.006 C 
ENDBRANCH  25  26
ENDBRANCH  23  25
ENDBRANCH   1  23
TORSDOF 7
ENDMDL
MODEL 4
REMARK VINA RESULT:      -7.3      2.304      2.906
REMARK  7 active torsions:
REMARK  status: ('A' for Active; 'I' for Inactive)
REMARK    1  A    between atoms: C_2  and  C_3 
REMARK    2  A    between atoms: C_3  and  N_4 
REMARK    3  A    between atoms: N_4  and  C_5 
REMARK    4  A    between atoms: C_7  and  N_8 
REMARK    5  A    between atoms: N_8  and  C_9 
REMARK    6  A    between atoms: C_9  and  C_10 
REMARK    7  A    between atoms: C_13  and  O_14 
ROOT
HETATM    1  C   UNL     1      -6.313  -0.960 -34.119  1.00  0.00     0.119 A 
HETATM    2  N   UNL     1      -5.453  -0.057 -33.611  1.00  0.00    -0.207 NA
HETATM    3  C   UNL     1      -4.239  -0.485 -33.241  1.00  0.00     0.181 A 
HETATM    4  N   UNL     1      -3.859  -1.755 -33.334  1.00  0.00    -0.330 N 
HETATM    5  H   UNL     1      -2.959  -2.011 -32.946  1.00  0.00     0.168 HD
HETATM    6  C   UNL     1      -4.655  -2.681 -33.878  1.00  0.00     0.048 A 
HETATM    7  C   UNL     1      -5.942  -2.308 -34.313  1.00  0.00     0.031 A 
HETATM    8  C   UNL     1      -4.206  -4.003 -34.010  1.00  0.00     0.030 A 
HETATM    9  C   UNL     1      -5.029  -4.967 -34.592  1.00  0.00     0.002 A 
HETATM   10  C   UNL     1      -6.298  -4.617 -35.041  1.00  0.00     0.001 A 
HETATM   11  C   UNL     1      -6.754  -3.303 -34.905  1.00  0.00     0.017 A 
ENDROOT
BRANCH   3  12
HETATM   12  N   UNL     1      -3.403   0.455 -32.660  1.00  0.00    -0.258 NA
HETATM   13  H   UNL     1      -2.458   0.176 -32.935  1.00  0.00     0.130 HD
BRANCH  12  14
HETATM   14  C   UNL     1      -3.488   0.646 -31.214  1.00  0.00     0.134 C 
BRANCH  14  15
HETATM   15  C   UNL     1      -4.495   1.724 -30.887  1.00  0.00    -0.045 A 
HETATM   16  C   UNL     1      -4.208   3.073 -31.120  1.00  0.00     0.011 A 
HETATM   17  C   UNL     1      -5.129   4.058 -30.756  1.00  0.00     0.037 A 
HETATM   18  C   UNL     1      -6.353   3.716 -30.176  1.00  0.00     0.068 A 
HETATM   19  C   UNL     1      -6.654   2.373 -29.961  1.00  0.00     0.037 A 
HETATM   20  C   UNL     1      -5.735   1.385 -30.319  1.00  0.00     0.011 A 
BRANCH  18  21
HETATM   21  O   UNL     1      -7.153   4.777 -29.858  1.00  0.00    -0.356 OA
HETATM   22  C   UNL     1      -7.089   5.256 -28.518  1.00  0.00     0.210 C 
ENDBRANCH  18  21
ENDBRANCH  14  15
ENDBRANCH  12  14
ENDBRANCH   3  12
BRANCH   1  23
HETATM   23  N   UNL     1      -7.594  -0.533 -34.504  1.00  0.00    -0.277 NA
HETATM   24  H   UNL     1      -8.229  -1.326 -34.572  1.00  0.00     0.129 HD
BRANCH  23  25
HETATM   25  C   UNL     1      -8.184   0.545 -33.707  1.00  0.00     0.093 C 
BRANCH  25  26
HETATM   26  C   UNL     1      -9.376  -0.002 -32.921  1.00  0.00     0.010 C 
HETATM   27  C   UNL     1     -10.679   0.643 -33.364  1.00  0.00     0.006 C 
ENDBRANCH  25  26
ENDBRANCH  23  25
ENDBRANCH   1  23
TORSDOF 7
ENDMDL
MODEL 5
REMARK VINA RESULT:      -7.3     14.671     16.417
REMARK  7 active torsions:
REMARK  status: ('A' for Active; 'I' for Inactive)
REMARK    1  A    between atoms: C_2  and  C_3 
REMARK    2  A    between atoms: C_3  and  N_4 
REMARK    3  A    between atoms: N_4  and  C_5 
REMARK    4  A    between atoms: C_7  and  N_8 
REMARK    5  A    between atoms: N_8  and  C_9 
REMARK    6  A    between atoms: C_9  and  C_10 
REMARK    7  A    between atoms: C_13  and  O_14 
ROOT
HETATM    1  C   UNL     1      -3.810 -12.446 -38.294  1.00  0.00     0.119 A 
HETATM    2  N   UNL     1      -3.689 -12.678 -36.973  1.00  0.00    -0.207 NA
HETATM    3  C   UNL     1      -4.808 -12.895 -36.269  1.00  0.00     0.181 A 
HETATM    4  N   UNL     1      -6.022 -12.870 -36.811  1.00  0.00    -0.330 N 
HETATM    5  H   UNL     1      -6.820 -12.952 -36.193  1.00  0.00     0.168 HD
HETATM    6  C   UNL     1      -6.193 -12.696 -38.125  1.00  0.00     0.048 A 
HETATM    7  C   UNL     1      -5.063 -12.484 -38.941  1.00  0.00     0.031 A 
HETATM    8  C   UNL     1      -7.482 -12.728 -38.676  1.00  0.00     0.030 A 
HETATM    9  C   UNL     1      -7.661 -12.562 -40.049  1.00  0.00     0.002 A 
HETATM   10  C   UNL     1      -6.559 -12.364 -40.875  1.00  0.00     0.001 A 
HETATM   11  C   UNL     1      -5.272 -12.324 -40.331  1.00  0.00     0.017 A 
ENDROOT
BRANCH   3  12
HETATM   12  N   UNL     1      -4.656 -13.063 -34.902  1.00  0.00    -0.258 NA
HETATM   13  H   UNL     1      -4.254 -13.997 -34.793  1.00  0.00     0.130 HD
BRANCH  12  14
HETATM   14  C   UNL     1      -5.838 -12.904 -34.057  1.00  0.00     0.134 C 
BRANCH  14  15
HETATM   15  C   UNL     1      -6.068 -14.155 -33.241  1.00  0.00    -0.045 A 
HETATM   16  C   UNL     1      -7.060 -15.075 -33.599  1.00  0.00     0.011 A 
HETATM   17  C   UNL     1      -7.296 -16.195 -32.798  1.00  0.00     0.037 A 
HETATM   18  C   UNL     1      -6.541 -16.426 -31.645  1.00  0.00     0.068 A 
HETATM   19  C   UNL     1      -5.538 -15.524 -31.296  1.00  0.00     0.037 A 
HETATM   20  C   UNL     1      -5.300 -14.401 -32.091  1.00  0.00     0.011 A 
BRANCH  18  21
HETATM   21  O   UNL     1      -6.885 -17.550 -30.950  1.00  0.00    -0.356 OA
HETATM   22  C   UNL     1      -6.546 -17.582 -29.567  1.00  0.00     0.210 C 
ENDBRANCH  18  21
ENDBRANCH  14  15
ENDBRANCH  12  14
ENDBRANCH   3  12
BRANCH   1  23
HETATM   23  N   UNL     1      -2.649 -12.208 -39.047  1.00  0.00    -0.277 NA
HETATM   24  H   UNL     1      -2.665 -11.267 -39.438  1.00  0.00     0.129 HD
BRANCH  23  25
HETATM   25  C   UNL     1      -1.376 -12.476 -38.376  1.00  0.00     0.093 C 
BRANCH  25  26
HETATM   26  C   UNL     1      -0.757 -13.749 -38.955  1.00  0.00     0.010 C 
HETATM   27  C   UNL     1      -0.908 -13.805 -40.466  1.00  0.00     0.006 C 
ENDBRANCH  25  26
ENDBRANCH  23  25
ENDBRANCH   1  23
TORSDOF 7
ENDMDL
MODEL 6
REMARK VINA RESULT:      -7.3     14.999     17.126
REMARK  7 active torsions:
REMARK  status: ('A' for Active; 'I' for Inactive)
REMARK    1  A    between atoms: C_2  and  C_3 
REMARK    2  A    between atoms: C_3  and  N_4 
REMARK    3  A    between atoms: N_4  and  C_5 
REMARK    4  A    between atoms: C_7  and  N_8 
REMARK    5  A    between atoms: N_8  and  C_9 
REMARK    6  A    between atoms: C_9  and  C_10 
REMARK    7  A    between atoms: C_13  and  O_14 
ROOT
HETATM    1  C   UNL     1      -3.908 -13.308 -40.578  1.00  0.00     0.119 A 
HETATM    2  N   UNL     1      -5.051 -12.808 -40.072  1.00  0.00    -0.207 NA
HETATM    3  C   UNL     1      -5.116 -12.603 -38.750  1.00  0.00     0.181 A 
HETATM    4  N   UNL     1      -4.116 -12.889 -37.922  1.00  0.00    -0.330 N 
HETATM    5  H   UNL     1      -4.280 -12.791 -36.928  1.00  0.00     0.168 HD
HETATM    6  C   UNL     1      -2.943 -13.338 -38.378  1.00  0.00     0.048 A 
HETATM    7  C   UNL     1      -2.785 -13.560 -39.761  1.00  0.00     0.031 A 
HETATM    8  C   UNL     1      -1.889 -13.581 -37.485  1.00  0.00     0.030 A 
HETATM    9  C   UNL     1      -0.659 -14.034 -37.961  1.00  0.00     0.002 A 
HETATM   10  C   UNL     1      -0.477 -14.247 -39.324  1.00  0.00     0.001 A 
HETATM   11  C   UNL     1      -1.526 -14.014 -40.218  1.00  0.00     0.017 A 
ENDROOT
BRANCH   3  12
HETATM   12  N   UNL     1      -6.329 -12.153 -38.253  1.00  0.00    -0.258 NA
HETATM   13  H   UNL     1      -6.085 -11.416 -37.587  1.00  0.00     0.130 HD
BRANCH  12  14
HETATM   14  C   UNL     1      -7.224 -13.132 -37.640  1.00  0.00     0.134 C 
BRANCH  14  15
HETATM   15  C   UNL     1      -8.358 -13.464 -38.581  1.00  0.00    -0.045 A 
HETATM   16  C   UNL     1      -9.092 -12.452 -39.209  1.00  0.00     0.011 A 
HETATM   17  C   UNL     1     -10.175 -12.780 -40.029  1.00  0.00     0.037 A 
HETATM   18  C   UNL     1     -10.531 -14.113 -40.251  1.00  0.00     0.068 A 
HETATM   19  C   UNL     1      -9.790 -15.125 -39.644  1.00  0.00     0.037 A 
HETATM   20  C   UNL     1      -8.709 -14.803 -38.821  1.00  0.00     0.011 A 
BRANCH  18  21
HETATM   21  O   UNL     1     -11.615 -14.290 -41.062  1.00  0.00    -0.356 OA
HETATM   22  C   UNL     1     -11.647 -15.479 -41.846  1.00  0.00     0.210 C 
ENDBRANCH  18  21
ENDBRANCH  14  15
ENDBRANCH  12  14
ENDBRANCH   3  12
BRANCH   1  23
HETATM   23  N   UNL     1      -3.823 -13.539 -41.960  1.00  0.00    -0.277 NA
HETATM   24  H   UNL     1      -2.980 -14.065 -42.183  1.00  0.00     0.129 HD
BRANCH  23  25
HETATM   25  C   UNL     1      -5.000 -14.143 -42.588  1.00  0.00     0.093 C 
BRANCH  25  26
HETATM   26  C   UNL     1      -4.550 -15.074 -43.715  1.00  0.00     0.010 C 
HETATM   27  C   UNL     1      -3.154 -15.619 -43.463  1.00  0.00     0.006 C 
ENDBRANCH  25  26
ENDBRANCH  23  25
ENDBRANCH   1  23
TORSDOF 7
ENDMDL
MODEL 7
REMARK VINA RESULT:      -7.1     14.831     16.784
REMARK  7 active torsions:
REMARK  status: ('A' for Active; 'I' for Inactive)
REMARK    1  A    between atoms: C_2  and  C_3 
REMARK    2  A    between atoms: C_3  and  N_4 
REMARK    3  A    between atoms: N_4  and  C_5 
REMARK    4  A    between atoms: C_7  and  N_8 
REMARK    5  A    between atoms: N_8  and  C_9 
REMARK    6  A    between atoms: C_9  and  C_10 
REMARK    7  A    between atoms: C_13  and  O_14 
ROOT
HETATM    1  C   UNL     1      -4.739 -12.967 -40.497  1.00  0.00     0.119 A 
HETATM    2  N   UNL     1      -3.724 -12.929 -39.613  1.00  0.00    -0.207 NA
HETATM    3  C   UNL     1      -4.019 -12.687 -38.329  1.00  0.00     0.181 A 
HETATM    4  N   UNL     1      -5.257 -12.463 -37.899  1.00  0.00    -0.330 N 
HETATM    5  H   UNL     1      -5.382 -12.195 -36.931  1.00  0.00     0.168 HD
HETATM    6  C   UNL     1      -6.304 -12.540 -38.725  1.00  0.00     0.048 A 
HETATM    7  C   UNL     1      -6.082 -12.814 -40.090  1.00  0.00     0.031 A 
HETATM    8  C   UNL     1      -7.604 -12.351 -38.232  1.00  0.00     0.030 A 
HETATM    9  C   UNL     1      -8.699 -12.447 -39.090  1.00  0.00     0.002 A 
HETATM   10  C   UNL     1      -8.503 -12.730 -40.438  1.00  0.00     0.001 A 
HETATM   11  C   UNL     1      -7.210 -12.912 -40.937  1.00  0.00     0.017 A 
ENDROOT
BRANCH   3  12
HETATM   12  N   UNL     1      -2.947 -12.587 -37.457  1.00  0.00    -0.258 NA
HETATM   13  H   UNL     1      -2.169 -12.250 -38.031  1.00  0.00     0.130 HD
BRANCH  12  14
HETATM   14  C   UNL     1      -2.559 -13.781 -36.709  1.00  0.00     0.134 C 
BRANCH  14  15
HETATM   15  C   UNL     1      -1.250 -14.323 -37.231  1.00  0.00    -0.045 A 
HETATM   16  C   UNL     1      -0.625 -15.414 -36.616  1.00  0.00     0.011 A 
HETATM   17  C   UNL     1       0.614 -15.863 -37.078  1.00  0.00     0.037 A 
HETATM   18  C   UNL     1       1.240 -15.250 -38.166  1.00  0.00     0.068 A 
HETATM   19  C   UNL     1       0.613 -14.177 -38.797  1.00  0.00     0.037 A 
HETATM   20  C   UNL     1      -0.625 -13.722 -38.336  1.00  0.00     0.011 A 
BRANCH  18  21
HETATM   21  O   UNL     1       2.451 -15.780 -38.505  1.00  0.00    -0.356 OA
HETATM   22  C   UNL     1       2.513 -17.194 -38.671  1.00  0.00     0.210 C 
ENDBRANCH  18  21
ENDBRANCH  14  15
ENDBRANCH  12  14
ENDBRANCH   3  12
BRANCH   1  23
HETATM   23  N   UNL     1      -4.450 -13.211 -41.849  1.00  0.00    -0.277 NA
HETATM   24  H   UNL     1      -4.075 -12.373 -42.290  1.00  0.00     0.129 HD
BRANCH  23  25
HETATM   25  C   UNL     1      -3.606 -14.375 -42.130  1.00  0.00     0.093 C 
BRANCH  25  26
HETATM   26  C   UNL     1      -4.045 -15.011 -43.450  1.00  0.00     0.010 C 
HETATM   27  C   UNL     1      -5.481 -15.501 -43.381  1.00  0.00     0.006 C 
ENDBRANCH  25  26
ENDBRANCH  23  25
ENDBRANCH   1  23
TORSDOF 7
ENDMDL
MODEL 8
REMARK VINA RESULT:      -7.1      3.298      6.464
REMARK  7 active torsions:
REMARK  status: ('A' for Active; 'I' for Inactive)
REMARK    1  A    between atoms: C_2  and  C_3 
REMARK    2  A    between atoms: C_3  and  N_4 
REMARK    3  A    between atoms: N_4  and  C_5 
REMARK    4  A    between atoms: C_7  and  N_8 
REMARK    5  A    between atoms: N_8  and  C_9 
REMARK    6  A    between atoms: C_9  and  C_10 
REMARK    7  A    between atoms: C_13  and  O_14 
ROOT
HETATM    1  C   UNL     1      -6.240   0.357 -31.705  1.00  0.00     0.119 A 
HETATM    2  N   UNL     1      -7.506   0.785 -31.539  1.00  0.00    -0.207 NA
HETATM    3  C   UNL     1      -8.445   0.300 -32.362  1.00  0.00     0.181 A 
HETATM    4  N   UNL     1      -8.179  -0.562 -33.338  1.00  0.00    -0.330 N 
HETATM    5  H   UNL     1      -8.929  -0.807 -33.973  1.00  0.00     0.168 HD
HETATM    6  C   UNL     1      -6.950  -1.058 -33.512  1.00  0.00     0.048 A 
HETATM    7  C   UNL     1      -5.908  -0.615 -32.673  1.00  0.00     0.031 A 
HETATM    8  C   UNL     1      -6.711  -2.006 -34.517  1.00  0.00     0.030 A 
HETATM    9  C   UNL     1      -5.433  -2.536 -34.689  1.00  0.00     0.002 A 
HETATM   10  C   UNL     1      -4.392  -2.123 -33.863  1.00  0.00     0.001 A 
HETATM   11  C   UNL     1      -4.622  -1.173 -32.865  1.00  0.00     0.017 A 
ENDROOT
BRANCH   3  12
HETATM   12  N   UNL     1      -9.724   0.812 -32.210  1.00  0.00    -0.258 NA
HETATM   13  H   UNL     1     -10.015   0.524 -31.272  1.00  0.00     0.130 HD
BRANCH  12  14
HETATM   14  C   UNL     1     -10.731   0.445 -33.202  1.00  0.00     0.134 C 
BRANCH  14  15
HETATM   15  C   UNL     1     -11.334   1.685 -33.820  1.00  0.00    -0.045 A 
HETATM   16  C   UNL     1     -12.100   1.609 -34.988  1.00  0.00     0.011 A 
HETATM   17  C   UNL     1     -12.598   2.774 -35.575  1.00  0.00     0.037 A 
HETATM   18  C   UNL     1     -12.361   4.026 -35.002  1.00  0.00     0.068 A 
HETATM   19  C   UNL     1     -11.616   4.106 -33.827  1.00  0.00     0.037 A 
HETATM   20  C   UNL     1     -11.112   2.944 -33.237  1.00  0.00     0.011 A 
BRANCH  18  21
HETATM   21  O   UNL     1     -12.895   5.081 -35.685  1.00  0.00    -0.356 OA
HETATM   22  C   UNL     1     -12.314   6.361 -35.452  1.00  0.00     0.210 C 
ENDBRANCH  18  21
ENDBRANCH  14  15
ENDBRANCH  12  14
ENDBRANCH   3  12
BRANCH   1  23
HETATM   23  N   UNL     1      -5.239   0.860 -30.858  1.00  0.00    -0.277 NA
HETATM   24  H   UNL     1      -4.435   0.235 -30.846  1.00  0.00     0.129 HD
BRANCH  23  25
HETATM   25  C   UNL     1      -4.824   2.244 -31.099  1.00  0.00     0.093 C 
BRANCH  25  26
HETATM   26  C   UNL     1      -3.466   2.249 -31.803  1.00  0.00     0.010 C 
HETATM   27  C   UNL     1      -2.816   3.621 -31.750  1.00  0.00     0.006 C 
ENDBRANCH  25  26
ENDBRANCH  23  25
ENDBRANCH   1  23
TORSDOF 7
ENDMDL
MODEL 9
REMARK VINA RESULT:      -7.1      2.077      2.790
REMARK  7 active torsions:
REMARK  status: ('A' for Active; 'I' for Inactive)
REMARK    1  A    between atoms: C_2  and  C_3 
REMARK    2  A    between atoms: C_3  and  N_4 
REMARK    3  A    between atoms: N_4  and  C_5 
REMARK    4  A    between atoms: C_7  and  N_8 
REMARK    5  A    between atoms: N_8  and  C_9 
REMARK    6  A    between atoms: C_9  and  C_10 
REMARK    7  A    between atoms: C_13  and  O_14 
ROOT
HETATM    1  C   UNL     1      -8.034   1.016 -31.746  1.00  0.00     0.119 A 
HETATM    2  N   UNL     1      -7.409   1.843 -30.886  1.00  0.00    -0.207 NA
HETATM    3  C   UNL     1      -6.076   1.753 -30.787  1.00  0.00     0.181 A 
HETATM    4  N   UNL     1      -5.355   0.877 -31.479  1.00  0.00    -0.330 N 
HETATM    5  H   UNL     1      -4.365   0.812 -31.276  1.00  0.00     0.168 HD
HETATM    6  C   UNL     1      -5.920   0.071 -32.383  1.00  0.00     0.048 A 
HETATM    7  C   UNL     1      -7.317   0.118 -32.565  1.00  0.00     0.031 A 
HETATM    8  C   UNL     1      -5.126  -0.807 -33.136  1.00  0.00     0.030 A 
HETATM    9  C   UNL     1      -5.712  -1.637 -34.090  1.00  0.00     0.002 A 
HETATM   10  C   UNL     1      -7.088  -1.596 -34.296  1.00  0.00     0.001 A 
HETATM   11  C   UNL     1      -7.885  -0.730 -33.543  1.00  0.00     0.017 A 
ENDROOT
BRANCH   3  12
HETATM   12  N   UNL     1      -5.471   2.569 -29.845  1.00  0.00    -0.258 NA
HETATM   13  H   UNL     1      -5.948   2.358 -28.965  1.00  0.00     0.130 HD
BRANCH  12  14
HETATM   14  C   UNL     1      -5.455   4.009 -30.094  1.00  0.00     0.134 C 
BRANCH  14  15
HETATM   15  C   UNL     1      -4.780   4.304 -31.413  1.00  0.00    -0.045 A 
HETATM   16  C   UNL     1      -3.416   4.052 -31.596  1.00  0.00     0.011 A 
HETATM   17  C   UNL     1      -2.798   4.386 -32.804  1.00  0.00     0.037 A 
HETATM   18  C   UNL     1      -3.528   4.956 -33.850  1.00  0.00     0.068 A 
HETATM   19  C   UNL     1      -4.891   5.189 -33.681  1.00  0.00     0.037 A 
HETATM   20  C   UNL     1      -5.513   4.860 -32.475  1.00  0.00     0.011 A 
BRANCH  18  21
HETATM   21  O   UNL     1      -2.799   5.244 -34.968  1.00  0.00    -0.356 OA
HETATM   22  C   UNL     1      -1.384   5.312 -34.816  1.00  0.00     0.210 C 
ENDBRANCH  18  21
ENDBRANCH  14  15
ENDBRANCH  12  14
ENDBRANCH   3  12
BRANCH   1  23
HETATM   23  N   UNL     1      -9.432   1.089 -31.858  1.00  0.00    -0.277 NA
HETATM   24  H   UNL     1      -9.872   0.884 -30.963  1.00  0.00     0.129 HD
BRANCH  23  25
HETATM   25  C   UNL     1      -9.971   2.321 -32.439  1.00  0.00     0.093 C 
BRANCH  25  26
HETATM   26  C   UNL     1     -10.196   2.117 -33.937  1.00  0.00     0.010 C 
HETATM   27  C   UNL     1     -11.454   1.308 -34.208  1.00  0.00     0.006 C 
ENDBRANCH  25  26
ENDBRANCH  23  25
ENDBRANCH   1  23
TORSDOF 7
ENDMDL
MODEL 10
REMARK VINA RESULT:      -6.9      3.571      7.258
REMARK  7 active torsions:
REMARK  status: ('A' for Active; 'I' for Inactive)
REMARK    1  A    between atoms: C_2  and  C_3 
REMARK    2  A    between atoms: C_3  and  N_4 
REMARK    3  A    between atoms: N_4  and  C_5 
REMARK    4  A    between atoms: C_7  and  N_8 
REMARK    5  A    between atoms: N_8  and  C_9 
REMARK    6  A    between atoms: C_9  and  C_10 
REMARK    7  A    between atoms: C_13  and  O_14 
ROOT
HETATM    1  C   UNL     1      -5.074   2.485 -31.654  1.00  0.00     0.119 A 
HETATM    2  N   UNL     1      -6.315   3.000 -31.742  1.00  0.00    -0.207 NA
HETATM    3  C   UNL     1      -7.219   2.338 -32.476  1.00  0.00     0.181 A 
HETATM    4  N   UNL     1      -6.939   1.216 -33.132  1.00  0.00    -0.330 N 
HETATM    5  H   UNL     1      -7.652   0.829 -33.738  1.00  0.00     0.168 HD
HETATM    6  C   UNL     1      -5.739   0.635 -33.036  1.00  0.00     0.048 A 
HETATM    7  C   UNL     1      -4.737   1.257 -32.263  1.00  0.00     0.031 A 
HETATM    8  C   UNL     1      -5.489  -0.577 -33.696  1.00  0.00     0.030 A 
HETATM    9  C   UNL     1      -4.243  -1.191 -33.583  1.00  0.00     0.002 A 
HETATM   10  C   UNL     1      -3.244  -0.601 -32.815  1.00  0.00     0.001 A 
HETATM   11  C   UNL     1      -3.484   0.610 -32.161  1.00  0.00     0.017 A 
ENDROOT
BRANCH   3  12
HETATM   12  N   UNL     1      -8.466   2.929 -32.603  1.00  0.00    -0.258 NA
HETATM   13  H   UNL     1      -9.122   2.249 -32.212  1.00  0.00     0.130 HD
BRANCH  12  14
HETATM   14  C   UNL     1      -8.890   3.354 -33.935  1.00  0.00     0.134 C 
BRANCH  14  15
HETATM   15  C   UNL     1     -10.287   2.856 -34.222  1.00  0.00    -0.045 A 
HETATM   16  C   UNL     1     -10.780   1.699 -33.607  1.00  0.00     0.011 A 
HETATM   17  C   UNL     1     -12.053   1.223 -33.931  1.00  0.00     0.037 A 
HETATM   18  C   UNL     1     -12.859   1.897 -34.852  1.00  0.00     0.068 A 
HETATM   19  C   UNL     1     -12.382   3.061 -35.451  1.00  0.00     0.037 A 
HETATM   20  C   UNL     1     -11.109   3.540 -35.134  1.00  0.00     0.011 A 
BRANCH  18  21
HETATM   21  O   UNL     1     -14.073   1.317 -35.084  1.00  0.00    -0.356 OA
HETATM   22  C   UNL     1     -14.634   0.548 -34.024  1.00  0.00     0.210 C 
ENDBRANCH  18  21
ENDBRANCH  14  15
ENDBRANCH  12  14
ENDBRANCH   3  12
BRANCH   1  23
HETATM   23  N   UNL     1      -4.110   3.169 -30.896  1.00  0.00    -0.277 NA
HETATM   24  H   UNL     1      -3.278   2.593 -30.776  1.00  0.00     0.129 HD
BRANCH  23  25
HETATM   25  C   UNL     1      -3.757   4.512 -31.361  1.00  0.00     0.093 C 
BRANCH  25  26
HETATM   26  C   UNL     1      -2.338   4.492 -31.932  1.00  0.00     0.010 C 
HETATM   27  C   UNL     1      -2.346   4.257 -33.433  1.00  0.00     0.006 C 
ENDBRANCH  25  26
ENDBRANCH  23  25
ENDBRANCH   1  23
TORSDOF 7
ENDMDL
