MODEL 1
REMARK VINA RESULT:      -8.7      0.000      0.000
REMARK  5 active torsions:
REMARK  status: ('A' for Active; 'I' for Inactive)
REMARK    1  A    between atoms: C_3  and  N_4 
REMARK       I    between atoms: N_4  and  C_5 
REMARK       I    between atoms: C_5  and  N_6 
REMARK    2  A    between atoms: N_6  and  C_7 
REMARK    3  A    between atoms: C_7  and  C_8 
REMARK    4  A    between atoms: C_16  and  N_17 
REMARK       I    between atoms: N_17  and  C_18 
REMARK    5  A    between atoms: C_18  and  C_19 
ROOT
HETATM    1  C   UNL     1      -5.569   4.634 -30.460  1.00  0.00     0.050 C 
HETATM    2  C   UNL     1      -4.990   3.268 -30.717  1.00  0.00    -0.035 A 
HETATM    3  C   UNL     1      -3.949   3.054 -31.638  1.00  0.00     0.044 A 
HETATM    4  C   UNL     1      -3.429   1.756 -31.834  1.00  0.00     0.059 A 
HETATM    5  C   UNL     1      -3.965   0.664 -31.151  1.00  0.00     0.037 A 
HETATM    6  C   UNL     1      -5.037   0.887 -30.274  1.00  0.00     0.030 A 
HETATM    7  C   UNL     1      -5.539   2.170 -30.053  1.00  0.00     0.011 A 
ENDROOT
BRANCH   3   8
HETATM    8  N   UNL     1      -3.399   4.170 -32.297  1.00  0.00    -0.308 N 
HETATM    9  C   UNL     1      -2.373   4.993 -31.943  1.00  0.00     0.321 C 
HETATM   10  N   UNL     1      -1.571   4.585 -30.927  1.00  0.00    -0.336 N 
HETATM   11  O   UNL     1      -2.138   5.996 -32.616  1.00  0.00    -0.247 OA
HETATM   12  H   UNL     1      -1.617   3.612 -30.652  1.00  0.00     0.164 HD
HETATM   13  H   UNL     1      -3.699   4.350 -33.245  1.00  0.00     0.170 HD
BRANCH  10  14
HETATM   14  C   UNL     1      -0.292   5.219 -30.721  1.00  0.00     0.202 C 
BRANCH  14  15
HETATM   15  C   UNL     1      -0.335   5.988 -29.444  1.00  0.00     0.121 A 
HETATM   16  N   UNL     1      -0.876   7.176 -29.239  1.00  0.00    -0.244 NA
HETATM   17  C   UNL     1      -0.659   7.460 -27.917  1.00  0.00     0.135 A 
HETATM   18  C   UNL     1       0.009   6.431 -27.301  1.00  0.00     0.109 A 
HETATM   19  N   UNL     1       0.204   5.496 -28.279  1.00  0.00    -0.352 N 
HETATM   20  H   UNL     1       0.658   4.599 -28.170  1.00  0.00     0.166 HD
ENDBRANCH  14  15
ENDBRANCH  10  14
ENDBRANCH   3   8
BRANCH   5  21
HETATM   21  N   UNL     1      -3.495  -0.661 -31.184  1.00  0.00    -0.323 N 
HETATM   22  C   UNL     1      -3.612  -1.725 -32.038  1.00  0.00     0.256 C 
HETATM   23  O   UNL     1      -2.827  -2.668 -31.899  1.00  0.00    -0.267 OA
HETATM   24  H   UNL     1      -2.798  -0.888 -30.483  1.00  0.00     0.169 HD
BRANCH  22  25
HETATM   25  C   UNL     1      -4.631  -1.845 -33.090  1.00  0.00     0.032 A 
HETATM   26  C   UNL     1      -5.825  -1.123 -33.031  1.00  0.00     0.017 A 
HETATM   27  C   UNL     1      -6.827  -1.376 -33.970  1.00  0.00     0.001 A 
HETATM   28  C   UNL     1      -6.648  -2.351 -34.951  1.00  0.00     0.000 A 
HETATM   29  C   UNL     1      -5.467  -3.089 -34.994  1.00  0.00     0.001 A 
HETATM   30  C   UNL     1      -4.462  -2.844 -34.059  1.00  0.00     0.017 A 
ENDBRANCH  22  25
ENDBRANCH   5  21
TORSDOF 5
ENDMDL
MODEL 2
REMARK VINA RESULT:      -8.6      3.171      4.158
REMARK  5 active torsions:
REMARK  status: ('A' for Active; 'I' for Inactive)
REMARK    1  A    between atoms: C_3  and  N_4 
REMARK       I    between atoms: N_4  and  C_5 
REMARK       I    between atoms: C_5  and  N_6 
REMARK    2  A    between atoms: N_6  and  C_7 
REMARK    3  A    between atoms: C_7  and  C_8 
REMARK    4  A    between atoms: C_16  and  N_17 
REMARK       I    between atoms: N_17  and  C_18 
REMARK    5  A    between atoms: C_18  and  C_19 
ROOT
HETATM    1  C   UNL     1      -9.410   1.648 -32.180  1.00  0.00     0.050 C 
HETATM    2  C   UNL     1      -7.955   1.284 -32.037  1.00  0.00    -0.035 A 
HETATM    3  C   UNL     1      -6.941   1.940 -32.759  1.00  0.00     0.044 A 
HETATM    4  C   UNL     1      -5.590   1.572 -32.580  1.00  0.00     0.059 A 
HETATM    5  C   UNL     1      -5.244   0.529 -31.720  1.00  0.00     0.037 A 
HETATM    6  C   UNL     1      -6.272  -0.149 -31.048  1.00  0.00     0.030 A 
HETATM    7  C   UNL     1      -7.607   0.225 -31.196  1.00  0.00     0.011 A 
ENDROOT
BRANCH   3   8
HETATM    8  N   UNL     1      -7.304   3.009 -33.598  1.00  0.00    -0.308 N 
HETATM    9  C   UNL     1      -6.925   4.317 -33.584  1.00  0.00     0.321 C 
HETATM   10  N   UNL     1      -5.859   4.648 -32.811  1.00  0.00    -0.336 N 
HETATM   11  O   UNL     1      -7.469   5.117 -34.344  1.00  0.00    -0.247 OA
HETATM   12  H   UNL     1      -5.263   3.898 -32.485  1.00  0.00     0.164 HD
HETATM   13  H   UNL     1      -7.829   2.792 -34.434  1.00  0.00     0.170 HD
BRANCH  10  14
HETATM   14  C   UNL     1      -5.200   5.916 -32.998  1.00  0.00     0.202 C 
BRANCH  14  15
HETATM   15  C   UNL     1      -3.832   5.674 -33.541  1.00  0.00     0.121 A 
HETATM   16  N   UNL     1      -3.420   5.839 -34.786  1.00  0.00    -0.244 NA
HETATM   17  C   UNL     1      -2.097   5.486 -34.789  1.00  0.00     0.135 A 
HETATM   18  C   UNL     1      -1.689   5.115 -33.532  1.00  0.00     0.109 A 
HETATM   19  N   UNL     1      -2.798   5.245 -32.743  1.00  0.00    -0.352 N 
HETATM   20  H   UNL     1      -2.853   5.064 -31.750  1.00  0.00     0.166 HD
ENDBRANCH  14  15
ENDBRANCH  10  14
ENDBRANCH   3   8
BRANCH   5  21
HETATM   21  N   UNL     1      -3.943   0.114 -31.383  1.00  0.00    -0.323 N 
HETATM   22  C   UNL     1      -3.098  -0.889 -31.776  1.00  0.00     0.256 C 
HETATM   23  O   UNL     1      -1.904  -0.792 -31.475  1.00  0.00    -0.267 OA
HETATM   24  H   UNL     1      -3.425   0.759 -30.797  1.00  0.00     0.169 HD
BRANCH  22  25
HETATM   25  C   UNL     1      -3.515  -2.097 -32.503  1.00  0.00     0.032 A 
HETATM   26  C   UNL     1      -3.107  -3.368 -32.094  1.00  0.00     0.017 A 
HETATM   27  C   UNL     1      -3.400  -4.474 -32.895  1.00  0.00     0.001 A 
HETATM   28  C   UNL     1      -4.082  -4.313 -34.102  1.00  0.00     0.000 A 
HETATM   29  C   UNL     1      -4.466  -3.041 -34.522  1.00  0.00     0.001 A 
HETATM   30  C   UNL     1      -4.174  -1.932 -33.729  1.00  0.00     0.017 A 
ENDBRANCH  22  25
ENDBRANCH   5  21
TORSDOF 5
ENDMDL
MODEL 3
REMARK VINA RESULT:      -8.3      3.413      6.116
REMARK  5 active torsions:
REMARK  status: ('A' for Active; 'I' for Inactive)
REMARK    1  A    between atoms: C_3  and  N_4 
REMARK       I    between atoms: N_4  and  C_5 
REMARK       I    between atoms: C_5  and  N_6 
REMARK    2  A    between atoms: N_6  and  C_7 
REMARK    3  A    between atoms: C_7  and  C_8 
REMARK    4  A    between atoms: C_16  and  N_17 
REMARK       I    between atoms: N_17  and  C_18 
REMARK    5  A    between atoms: C_18  and  C_19 
ROOT
HETATM    1  C   UNL     1      -4.579   4.746 -31.787  1.00  0.00     0.050 C 
HETATM    2  C   UNL     1      -4.294   3.284 -31.566  1.00  0.00    -0.035 A 
HETATM    3  C   UNL     1      -4.888   2.551 -30.522  1.00  0.00     0.044 A 
HETATM    4  C   UNL     1      -4.600   1.178 -30.364  1.00  0.00     0.059 A 
HETATM    5  C   UNL     1      -3.694   0.539 -31.210  1.00  0.00     0.037 A 
HETATM    6  C   UNL     1      -3.071   1.296 -32.214  1.00  0.00     0.030 A 
HETATM    7  C   UNL     1      -3.370   2.647 -32.396  1.00  0.00     0.011 A 
ENDROOT
BRANCH   3   8
HETATM    8  N   UNL     1      -5.823   3.204 -29.696  1.00  0.00    -0.308 N 
HETATM    9  C   UNL     1      -7.159   3.408 -29.857  1.00  0.00     0.321 C 
HETATM   10  N   UNL     1      -7.785   2.696 -30.828  1.00  0.00    -0.336 N 
HETATM   11  O   UNL     1      -7.766   4.122 -29.060  1.00  0.00    -0.247 OA
HETATM   12  H   UNL     1      -7.300   1.894 -31.211  1.00  0.00     0.164 HD
HETATM   13  H   UNL     1      -5.523   3.468 -28.767  1.00  0.00     0.170 HD
BRANCH  10  14
HETATM   14  C   UNL     1      -9.224   2.603 -30.840  1.00  0.00     0.202 C 
BRANCH  14  15
HETATM   15  C   UNL     1      -9.665   2.104 -32.174  1.00  0.00     0.121 A 
HETATM   16  N   UNL     1      -8.937   1.468 -33.075  1.00  0.00    -0.244 NA
HETATM   17  C   UNL     1      -9.779   1.222 -34.127  1.00  0.00     0.135 A 
HETATM   18  C   UNL     1     -11.039   1.700 -33.863  1.00  0.00     0.109 A 
HETATM   19  N   UNL     1     -10.959   2.252 -32.615  1.00  0.00    -0.352 N 
HETATM   20  H   UNL     1     -11.712   2.688 -32.102  1.00  0.00     0.166 HD
ENDBRANCH  14  15
ENDBRANCH  10  14
ENDBRANCH   3   8
BRANCH   5  21
HETATM   21  N   UNL     1      -3.378  -0.831 -31.222  1.00  0.00    -0.323 N 
HETATM   22  C   UNL     1      -3.622  -1.889 -32.057  1.00  0.00     0.256 C 
HETATM   23  O   UNL     1      -2.949  -2.913 -31.906  1.00  0.00    -0.267 OA
HETATM   24  H   UNL     1      -2.707  -1.124 -30.521  1.00  0.00     0.169 HD
BRANCH  22  25
HETATM   25  C   UNL     1      -4.655  -1.909 -33.102  1.00  0.00     0.032 A 
HETATM   26  C   UNL     1      -5.828  -1.161 -32.979  1.00  0.00     0.017 A 
HETATM   27  C   UNL     1      -6.847  -1.322 -33.920  1.00  0.00     0.001 A 
HETATM   28  C   UNL     1      -6.705  -2.232 -34.968  1.00  0.00     0.000 A 
HETATM   29  C   UNL     1      -5.545  -2.996 -35.076  1.00  0.00     0.001 A 
HETATM   30  C   UNL     1      -4.524  -2.843 -34.139  1.00  0.00     0.017 A 
ENDBRANCH  22  25
ENDBRANCH   5  21
TORSDOF 5
ENDMDL
MODEL 4
REMARK VINA RESULT:      -8.2      2.805      8.824
REMARK  5 active torsions:
REMARK  status: ('A' for Active; 'I' for Inactive)
REMARK    1  A    between atoms: C_3  and  N_4 
REMARK       I    between atoms: N_4  and  C_5 
REMARK       I    between atoms: C_5  and  N_6 
REMARK    2  A    between atoms: N_6  and  C_7 
REMARK    3  A    between atoms: C_7  and  C_8 
REMARK    4  A    between atoms: C_16  and  N_17 
REMARK       I    between atoms: N_17  and  C_18 
REMARK    5  A    between atoms: C_18  and  C_19 
ROOT
HETATM    1  C   UNL     1      -4.774   1.403 -30.939  1.00  0.00     0.050 C 
HETATM    2  C   UNL     1      -4.356   2.645 -31.681  1.00  0.00    -0.035 A 
HETATM    3  C   UNL     1      -5.259   3.399 -32.453  1.00  0.00     0.044 A 
HETATM    4  C   UNL     1      -4.823   4.565 -33.120  1.00  0.00     0.059 A 
HETATM    5  C   UNL     1      -3.487   4.962 -33.059  1.00  0.00     0.037 A 
HETATM    6  C   UNL     1      -2.589   4.170 -32.327  1.00  0.00     0.030 A 
HETATM    7  C   UNL     1      -3.016   3.033 -31.642  1.00  0.00     0.011 A 
ENDROOT
BRANCH   3   8
HETATM    8  N   UNL     1      -6.609   3.002 -32.480  1.00  0.00    -0.308 N 
HETATM    9  C   UNL     1      -7.290   2.231 -33.372  1.00  0.00     0.321 C 
HETATM   10  N   UNL     1      -6.557   1.517 -34.264  1.00  0.00    -0.336 N 
HETATM   11  O   UNL     1      -8.510   2.113 -33.268  1.00  0.00    -0.247 OA
HETATM   12  H   UNL     1      -5.569   1.401 -34.076  1.00  0.00     0.164 HD
HETATM   13  H   UNL     1      -7.170   3.193 -31.661  1.00  0.00     0.170 HD
BRANCH  10  14
HETATM   14  C   UNL     1      -7.170   0.441 -35.002  1.00  0.00     0.202 C 
BRANCH  14  15
HETATM   15  C   UNL     1      -6.446  -0.828 -34.697  1.00  0.00     0.121 A 
HETATM   16  N   UNL     1      -6.804  -2.056 -35.030  1.00  0.00    -0.244 NA
HETATM   17  C   UNL     1      -5.828  -2.875 -34.527  1.00  0.00     0.135 A 
HETATM   18  C   UNL     1      -4.856  -2.142 -33.893  1.00  0.00     0.109 A 
HETATM   19  N   UNL     1      -5.255  -0.840 -34.013  1.00  0.00    -0.352 N 
HETATM   20  H   UNL     1      -4.763  -0.027 -33.667  1.00  0.00     0.166 HD
ENDBRANCH  14  15
ENDBRANCH  10  14
ENDBRANCH   3   8
BRANCH   5  21
HETATM   21  N   UNL     1      -2.934   6.137 -33.599  1.00  0.00    -0.323 N 
HETATM   22  C   UNL     1      -1.961   7.026 -33.229  1.00  0.00     0.256 C 
HETATM   23  O   UNL     1      -1.529   7.803 -34.086  1.00  0.00    -0.267 OA
HETATM   24  H   UNL     1      -3.213   6.346 -34.551  1.00  0.00     0.169 HD
BRANCH  22  25
HETATM   25  C   UNL     1      -1.414   7.150 -31.870  1.00  0.00     0.032 A 
HETATM   26  C   UNL     1      -2.111   7.824 -30.865  1.00  0.00     0.017 A 
HETATM   27  C   UNL     1      -1.494   8.047 -29.632  1.00  0.00     0.001 A 
HETATM   28  C   UNL     1      -0.186   7.616 -29.407  1.00  0.00     0.000 A 
HETATM   29  C   UNL     1       0.518   6.967 -30.420  1.00  0.00     0.001 A 
HETATM   30  C   UNL     1      -0.091   6.742 -31.653  1.00  0.00     0.017 A 
ENDBRANCH  22  25
ENDBRANCH   5  21
TORSDOF 5
ENDMDL
MODEL 5
REMARK VINA RESULT:      -8.1     16.021     18.362
REMARK  5 active torsions:
REMARK  status: ('A' for Active; 'I' for Inactive)
REMARK    1  A    between atoms: C_3  and  N_4 
REMARK       I    between atoms: N_4  and  C_5 
REMARK       I    between atoms: C_5  and  N_6 
REMARK    2  A    between atoms: N_6  and  C_7 
REMARK    3  A    between atoms: C_7  and  C_8 
REMARK    4  A    between atoms: C_16  and  N_17 
REMARK       I    between atoms: N_17  and  C_18 
REMARK    5  A    between atoms: C_18  and  C_19 
ROOT
HETATM    1  C   UNL     1      -2.620 -14.552 -41.825  1.00  0.00     0.050 C 
HETATM    2  C   UNL     1      -3.941 -13.911 -41.491  1.00  0.00    -0.035 A 
HETATM    3  C   UNL     1      -4.116 -13.093 -40.360  1.00  0.00     0.044 A 
HETATM    4  C   UNL     1      -5.372 -12.504 -40.097  1.00  0.00     0.059 A 
HETATM    5  C   UNL     1      -6.464 -12.756 -40.927  1.00  0.00     0.037 A 
HETATM    6  C   UNL     1      -6.286 -13.616 -42.021  1.00  0.00     0.030 A 
HETATM    7  C   UNL     1      -5.043 -14.180 -42.305  1.00  0.00     0.011 A 
ENDROOT
BRANCH   3   8
HETATM    8  N   UNL     1      -2.997 -12.825 -39.551  1.00  0.00    -0.308 N 
HETATM    9  C   UNL     1      -2.847 -12.872 -38.198  1.00  0.00     0.321 C 
HETATM   10  N   UNL     1      -3.823 -13.490 -37.486  1.00  0.00    -0.336 N 
HETATM   11  O   UNL     1      -1.803 -12.471 -37.687  1.00  0.00    -0.247 OA
HETATM   12  H   UNL     1      -4.471 -14.082 -37.990  1.00  0.00     0.164 HD
HETATM   13  H   UNL     1      -2.106 -12.694 -40.011  1.00  0.00     0.170 HD
BRANCH  10  14
HETATM   14  C   UNL     1      -3.583 -13.873 -36.117  1.00  0.00     0.202 C 
BRANCH  14  15
HETATM   15  C   UNL     1      -4.834 -13.669 -35.331  1.00  0.00     0.121 A 
HETATM   16  N   UNL     1      -5.980 -14.313 -35.464  1.00  0.00    -0.244 NA
HETATM   17  C   UNL     1      -6.821 -13.772 -34.527  1.00  0.00     0.135 A 
HETATM   18  C   UNL     1      -6.179 -12.797 -33.804  1.00  0.00     0.109 A 
HETATM   19  N   UNL     1      -4.914 -12.744 -34.317  1.00  0.00    -0.352 N 
HETATM   20  H   UNL     1      -4.166 -12.139 -34.008  1.00  0.00     0.166 HD
ENDBRANCH  14  15
ENDBRANCH  10  14
ENDBRANCH   3   8
BRANCH   5  21
HETATM   21  N   UNL     1      -7.742 -12.174 -40.834  1.00  0.00    -0.323 N 
HETATM   22  C   UNL     1      -8.947 -12.528 -40.289  1.00  0.00     0.256 C 
HETATM   23  O   UNL     1      -9.798 -11.646 -40.142  1.00  0.00    -0.267 OA
HETATM   24  H   UNL     1      -7.794 -11.204 -41.125  1.00  0.00     0.169 HD
BRANCH  22  25
HETATM   25  C   UNL     1      -9.317 -13.895 -39.896  1.00  0.00     0.032 A 
HETATM   26  C   UNL     1      -8.708 -14.529 -38.810  1.00  0.00     0.017 A 
HETATM   27  C   UNL     1      -8.979 -15.876 -38.561  1.00  0.00     0.001 A 
HETATM   28  C   UNL     1      -9.838 -16.591 -39.396  1.00  0.00     0.000 A 
HETATM   29  C   UNL     1     -10.425 -15.965 -40.495  1.00  0.00     0.001 A 
HETATM   30  C   UNL     1     -10.157 -14.621 -40.751  1.00  0.00     0.017 A 
ENDBRANCH  22  25
ENDBRANCH   5  21
TORSDOF 5
ENDMDL
MODEL 6
REMARK VINA RESULT:      -8.1      7.039      9.504
REMARK  5 active torsions:
REMARK  status: ('A' for Active; 'I' for Inactive)
REMARK    1  A    between atoms: C_3  and  N_4 
REMARK       I    between atoms: N_4  and  C_5 
REMARK       I    between atoms: C_5  and  N_6 
REMARK    2  A    between atoms: N_6  and  C_7 
REMARK    3  A    between atoms: C_7  and  C_8 
REMARK    4  A    between atoms: C_16  and  N_17 
REMARK       I    between atoms: N_17  and  C_18 
REMARK    5  A    between atoms: C_18  and  C_19 
ROOT
HETATM    1  C   UNL     1     -10.795   4.070 -35.344  1.00  0.00     0.050 C 
HETATM    2  C   UNL     1     -10.174   3.206 -34.278  1.00  0.00    -0.035 A 
HETATM    3  C   UNL     1     -10.732   1.975 -33.888  1.00  0.00     0.044 A 
HETATM    4  C   UNL     1     -10.104   1.194 -32.893  1.00  0.00     0.059 A 
HETATM    5  C   UNL     1      -8.951   1.647 -32.255  1.00  0.00     0.037 A 
HETATM    6  C   UNL     1      -8.436   2.901 -32.618  1.00  0.00     0.030 A 
HETATM    7  C   UNL     1      -9.033   3.667 -33.620  1.00  0.00     0.011 A 
ENDROOT
BRANCH   3   8
HETATM    8  N   UNL     1     -11.879   1.517 -34.563  1.00  0.00    -0.308 N 
HETATM    9  C   UNL     1     -13.152   1.325 -34.122  1.00  0.00     0.321 C 
HETATM   10  N   UNL     1     -13.479   1.859 -32.917  1.00  0.00    -0.336 N 
HETATM   11  O   UNL     1     -13.979   0.792 -34.860  1.00  0.00    -0.247 OA
HETATM   12  H   UNL     1     -12.861   2.559 -32.529  1.00  0.00     0.164 HD
HETATM   13  H   UNL     1     -11.825   1.425 -35.569  1.00  0.00     0.170 HD
BRANCH  10  14
HETATM   14  C   UNL     1     -14.865   1.989 -32.540  1.00  0.00     0.202 C 
BRANCH  14  15
HETATM   15  C   UNL     1     -15.130   3.406 -32.155  1.00  0.00     0.121 A 
HETATM   16  N   UNL     1     -14.259   4.292 -31.705  1.00  0.00    -0.244 NA
HETATM   17  C   UNL     1     -14.975   5.440 -31.490  1.00  0.00     0.135 A 
HETATM   18  C   UNL     1     -16.294   5.260 -31.825  1.00  0.00     0.109 A 
HETATM   19  N   UNL     1     -16.381   3.965 -32.254  1.00  0.00    -0.352 N 
HETATM   20  H   UNL     1     -17.213   3.499 -32.590  1.00  0.00     0.166 HD
ENDBRANCH  14  15
ENDBRANCH  10  14
ENDBRANCH   3   8
BRANCH   5  21
HETATM   21  N   UNL     1      -8.178   0.942 -31.314  1.00  0.00    -0.323 N 
HETATM   22  C   UNL     1      -7.080   0.126 -31.357  1.00  0.00     0.256 C 
HETATM   23  O   UNL     1      -6.484  -0.099 -30.299  1.00  0.00    -0.267 OA
HETATM   24  H   UNL     1      -8.378   1.160 -30.344  1.00  0.00     0.169 HD
BRANCH  22  25
HETATM   25  C   UNL     1      -6.575  -0.533 -32.570  1.00  0.00     0.032 A 
HETATM   26  C   UNL     1      -7.446  -1.026 -33.544  1.00  0.00     0.017 A 
HETATM   27  C   UNL     1      -6.934  -1.776 -34.606  1.00  0.00     0.001 A 
HETATM   28  C   UNL     1      -5.568  -2.045 -34.688  1.00  0.00     0.000 A 
HETATM   29  C   UNL     1      -4.703  -1.575 -33.702  1.00  0.00     0.001 A 
HETATM   30  C   UNL     1      -5.207  -0.828 -32.638  1.00  0.00     0.017 A 
ENDBRANCH  22  25
ENDBRANCH   5  21
TORSDOF 5
ENDMDL
MODEL 7
REMARK VINA RESULT:      -8.1      4.253      6.804
REMARK  5 active torsions:
REMARK  status: ('A' for Active; 'I' for Inactive)
REMARK    1  A    between atoms: C_3  and  N_4 
REMARK       I    between atoms: N_4  and  C_5 
REMARK       I    between atoms: C_5  and  N_6 
REMARK    2  A    between atoms: N_6  and  C_7 
REMARK    3  A    between atoms: C_7  and  C_8 
REMARK    4  A    between atoms: C_16  and  N_17 
REMARK       I    between atoms: N_17  and  C_18 
REMARK    5  A    between atoms: C_18  and  C_19 
ROOT
HETATM    1  C   UNL     1      -5.801   3.926 -32.244  1.00  0.00     0.050 C 
HETATM    2  C   UNL     1      -5.229   2.570 -31.924  1.00  0.00    -0.035 A 
HETATM    3  C   UNL     1      -5.920   1.629 -31.139  1.00  0.00     0.044 A 
HETATM    4  C   UNL     1      -5.348   0.365 -30.878  1.00  0.00     0.059 A 
HETATM    5  C   UNL     1      -4.077   0.047 -31.356  1.00  0.00     0.037 A 
HETATM    6  C   UNL     1      -3.379   1.016 -32.093  1.00  0.00     0.030 A 
HETATM    7  C   UNL     1      -3.948   2.257 -32.381  1.00  0.00     0.011 A 
ENDROOT
BRANCH   3   8
HETATM    8  N   UNL     1      -7.213   1.954 -30.690  1.00  0.00    -0.308 N 
HETATM    9  C   UNL     1      -8.431   1.739 -31.259  1.00  0.00     0.321 C 
HETATM   10  N   UNL     1      -8.485   0.878 -32.307  1.00  0.00    -0.336 N 
HETATM   11  O   UNL     1      -9.438   2.224 -30.745  1.00  0.00    -0.247 OA
HETATM   12  H   UNL     1      -7.691   0.268 -32.456  1.00  0.00     0.164 HD
HETATM   13  H   UNL     1      -7.310   2.290 -29.741  1.00  0.00     0.170 HD
BRANCH  10  14
HETATM   14  C   UNL     1      -9.754   0.347 -32.739  1.00  0.00     0.202 C 
BRANCH  14  15
HETATM   15  C   UNL     1     -10.536   1.436 -33.392  1.00  0.00     0.121 A 
HETATM   16  N   UNL     1     -10.208   2.126 -34.470  1.00  0.00    -0.244 NA
HETATM   17  C   UNL     1     -11.236   3.008 -34.673  1.00  0.00     0.135 A 
HETATM   18  C   UNL     1     -12.211   2.847 -33.720  1.00  0.00     0.109 A 
HETATM   19  N   UNL     1     -11.760   1.840 -32.913  1.00  0.00    -0.352 N 
HETATM   20  H   UNL     1     -12.238   1.454 -32.111  1.00  0.00     0.166 HD
ENDBRANCH  14  15
ENDBRANCH  10  14
ENDBRANCH   3   8
BRANCH   5  21
HETATM   21  N   UNL     1      -3.424  -1.194 -31.245  1.00  0.00    -0.323 N 
HETATM   22  C   UNL     1      -3.289  -2.308 -32.030  1.00  0.00     0.256 C 
HETATM   23  O   UNL     1      -2.400  -3.116 -31.742  1.00  0.00    -0.267 OA
HETATM   24  H   UNL     1      -2.788  -1.277 -30.459  1.00  0.00     0.169 HD
BRANCH  22  25
HETATM   25  C   UNL     1      -4.151  -2.633 -33.175  1.00  0.00     0.032 A 
HETATM   26  C   UNL     1      -5.106  -1.729 -33.645  1.00  0.00     0.017 A 
HETATM   27  C   UNL     1      -6.004  -2.133 -34.636  1.00  0.00     0.001 A 
HETATM   28  C   UNL     1      -5.960  -3.431 -35.145  1.00  0.00     0.000 A 
HETATM   29  C   UNL     1      -5.023  -4.340 -34.657  1.00  0.00     0.001 A 
HETATM   30  C   UNL     1      -4.125  -3.945 -33.666  1.00  0.00     0.017 A 
ENDBRANCH  22  25
ENDBRANCH   5  21
TORSDOF 5
ENDMDL
MODEL 8
REMARK VINA RESULT:      -8.0      1.859      2.870
REMARK  5 active torsions:
REMARK  status: ('A' for Active; 'I' for Inactive)
REMARK    1  A    between atoms: C_3  and  N_4 
REMARK       I    between atoms: N_4  and  C_5 
REMARK       I    between atoms: C_5  and  N_6 
REMARK    2  A    between atoms: N_6  and  C_7 
REMARK    3  A    between atoms: C_7  and  C_8 
REMARK    4  A    between atoms: C_16  and  N_17 
REMARK       I    between atoms: N_17  and  C_18 
REMARK    5  A    between atoms: C_18  and  C_19 
ROOT
HETATM    1  C   UNL     1      -2.446   5.843 -34.375  1.00  0.00     0.050 C 
HETATM    2  C   UNL     1      -3.028   4.880 -33.373  1.00  0.00    -0.035 A 
HETATM    3  C   UNL     1      -2.316   4.456 -32.236  1.00  0.00     0.044 A 
HETATM    4  C   UNL     1      -2.910   3.563 -31.318  1.00  0.00     0.059 A 
HETATM    5  C   UNL     1      -4.189   3.055 -31.545  1.00  0.00     0.037 A 
HETATM    6  C   UNL     1      -4.865   3.447 -32.711  1.00  0.00     0.030 A 
HETATM    7  C   UNL     1      -4.298   4.352 -33.609  1.00  0.00     0.011 A 
ENDROOT
BRANCH   3   8
HETATM    8  N   UNL     1      -1.039   5.001 -32.006  1.00  0.00    -0.308 N 
HETATM    9  C   UNL     1      -0.661   6.132 -31.349  1.00  0.00     0.321 C 
HETATM   10  N   UNL     1      -1.596   6.746 -30.579  1.00  0.00    -0.336 N 
HETATM   11  O   UNL     1       0.516   6.488 -31.377  1.00  0.00    -0.247 OA
HETATM   12  H   UNL     1      -2.427   6.221 -30.339  1.00  0.00     0.164 HD
HETATM   13  H   UNL     1      -0.237   4.430 -32.238  1.00  0.00     0.170 HD
BRANCH  10  14
HETATM   14  C   UNL     1      -1.193   7.732 -29.607  1.00  0.00     0.202 C 
BRANCH  14  15
HETATM   15  C   UNL     1      -1.118   7.086 -28.265  1.00  0.00     0.121 A 
HETATM   16  N   UNL     1      -0.060   6.536 -27.697  1.00  0.00    -0.244 NA
HETATM   17  C   UNL     1      -0.488   6.079 -26.479  1.00  0.00     0.135 A 
HETATM   18  C   UNL     1      -1.818   6.365 -26.292  1.00  0.00     0.109 A 
HETATM   19  N   UNL     1      -2.208   7.012 -27.431  1.00  0.00    -0.352 N 
HETATM   20  H   UNL     1      -3.129   7.378 -27.628  1.00  0.00     0.166 HD
ENDBRANCH  14  15
ENDBRANCH  10  14
ENDBRANCH   3   8
BRANCH   5  21
HETATM   21  N   UNL     1      -4.932   2.231 -30.681  1.00  0.00    -0.323 N 
HETATM   22  C   UNL     1      -5.376   0.935 -30.698  1.00  0.00     0.256 C 
HETATM   23  O   UNL     1      -5.765   0.442 -29.635  1.00  0.00    -0.267 OA
HETATM   24  H   UNL     1      -5.096   2.614 -29.756  1.00  0.00     0.169 HD
BRANCH  22  25
HETATM   25  C   UNL     1      -5.457   0.095 -31.901  1.00  0.00     0.032 A 
HETATM   26  C   UNL     1      -6.684  -0.196 -32.502  1.00  0.00     0.017 A 
HETATM   27  C   UNL     1      -6.732  -1.116 -33.551  1.00  0.00     0.001 A 
HETATM   28  C   UNL     1      -5.571  -1.753 -33.989  1.00  0.00     0.000 A 
HETATM   29  C   UNL     1      -4.351  -1.481 -33.372  1.00  0.00     0.001 A 
HETATM   30  C   UNL     1      -4.295  -0.565 -32.322  1.00  0.00     0.017 A 
ENDBRANCH  22  25
ENDBRANCH   5  21
TORSDOF 5
ENDMDL
MODEL 9
REMARK VINA RESULT:      -8.0      2.812      3.854
REMARK  5 active torsions:
REMARK  status: ('A' for Active; 'I' for Inactive)
REMARK    1  A    between atoms: C_3  and  N_4 
REMARK       I    between atoms: N_4  and  C_5 
REMARK       I    between atoms: C_5  and  N_6 
REMARK    2  A    between atoms: N_6  and  C_7 
REMARK    3  A    between atoms: C_7  and  C_8 
REMARK    4  A    between atoms: C_16  and  N_17 
REMARK       I    between atoms: N_17  and  C_18 
REMARK    5  A    between atoms: C_18  and  C_19 
ROOT
HETATM    1  C   UNL     1      -2.193   5.444 -34.597  1.00  0.00     0.050 C 
HETATM    2  C   UNL     1      -3.386   4.831 -33.912  1.00  0.00    -0.035 A 
HETATM    3  C   UNL     1      -3.284   4.160 -32.679  1.00  0.00     0.044 A 
HETATM    4  C   UNL     1      -4.435   3.614 -32.070  1.00  0.00     0.059 A 
HETATM    5  C   UNL     1      -5.678   3.693 -32.698  1.00  0.00     0.037 A 
HETATM    6  C   UNL     1      -5.753   4.319 -33.951  1.00  0.00     0.030 A 
HETATM    7  C   UNL     1      -4.628   4.887 -34.548  1.00  0.00     0.011 A 
ENDROOT
BRANCH   3   8
HETATM    8  N   UNL     1      -2.029   4.116 -32.045  1.00  0.00    -0.308 N 
HETATM    9  C   UNL     1      -1.414   5.015 -31.228  1.00  0.00     0.321 C 
HETATM   10  N   UNL     1      -2.176   6.020 -30.726  1.00  0.00    -0.336 N 
HETATM   11  O   UNL     1      -0.249   4.826 -30.882  1.00  0.00    -0.247 OA
HETATM   12  H   UNL     1      -3.181   5.921 -30.779  1.00  0.00     0.164 HD
HETATM   13  H   UNL     1      -1.521   3.242 -32.071  1.00  0.00     0.170 HD
BRANCH  10  14
HETATM   14  C   UNL     1      -1.696   6.799 -29.611  1.00  0.00     0.202 C 
BRANCH  14  15
HETATM   15  C   UNL     1      -2.845   7.121 -28.717  1.00  0.00     0.121 A 
HETATM   16  N   UNL     1      -2.922   8.097 -27.828  1.00  0.00    -0.244 NA
HETATM   17  C   UNL     1      -4.163   7.983 -27.259  1.00  0.00     0.135 A 
HETATM   18  C   UNL     1      -4.858   6.937 -27.813  1.00  0.00     0.109 A 
HETATM   19  N   UNL     1      -4.014   6.400 -28.745  1.00  0.00    -0.352 N 
HETATM   20  H   UNL     1      -4.211   5.616 -29.352  1.00  0.00     0.166 HD
ENDBRANCH  14  15
ENDBRANCH  10  14
ENDBRANCH   3   8
BRANCH   5  21
HETATM   21  N   UNL     1      -6.913   3.271 -32.173  1.00  0.00    -0.323 N 
HETATM   22  C   UNL     1      -7.631   2.105 -32.163  1.00  0.00     0.256 C 
HETATM   23  O   UNL     1      -8.561   2.004 -31.357  1.00  0.00    -0.267 OA
HETATM   24  H   UNL     1      -7.356   3.926 -31.537  1.00  0.00     0.169 HD
BRANCH  22  25
HETATM   25  C   UNL     1      -7.398   0.973 -33.071  1.00  0.00     0.032 A 
HETATM   26  C   UNL     1      -6.611  -0.115 -32.689  1.00  0.00     0.017 A 
HETATM   27  C   UNL     1      -6.293  -1.097 -33.630  1.00  0.00     0.001 A 
HETATM   28  C   UNL     1      -6.744  -0.988 -34.946  1.00  0.00     0.000 A 
HETATM   29  C   UNL     1      -7.508   0.111 -35.333  1.00  0.00     0.001 A 
HETATM   30  C   UNL     1      -7.827   1.096 -34.400  1.00  0.00     0.017 A 
ENDBRANCH  22  25
ENDBRANCH   5  21
TORSDOF 5
ENDMDL
MODEL 10
REMARK VINA RESULT:      -7.9      1.416      1.697
REMARK  5 active torsions:
REMARK  status: ('A' for Active; 'I' for Inactive)
REMARK    1  A    between atoms: C_3  and  N_4 
REMARK       I    between atoms: N_4  and  C_5 
REMARK       I    between atoms: C_5  and  N_6 
REMARK    2  A    between atoms: N_6  and  C_7 
REMARK    3  A    between atoms: C_7  and  C_8 
REMARK    4  A    between atoms: C_16  and  N_17 
REMARK       I    between atoms: N_17  and  C_18 
REMARK    5  A    between atoms: C_18  and  C_19 
ROOT
HETATM    1  C   UNL     1      -7.146   4.367 -30.151  1.00  0.00     0.050 C 
HETATM    2  C   UNL     1      -6.224   3.218 -30.461  1.00  0.00    -0.035 A 
HETATM    3  C   UNL     1      -5.176   3.324 -31.394  1.00  0.00     0.044 A 
HETATM    4  C   UNL     1      -4.330   2.221 -31.641  1.00  0.00     0.059 A 
HETATM    5  C   UNL     1      -4.543   1.003 -30.998  1.00  0.00     0.037 A 
HETATM    6  C   UNL     1      -5.623   0.898 -30.109  1.00  0.00     0.030 A 
HETATM    7  C   UNL     1      -6.448   1.989 -29.837  1.00  0.00     0.011 A 
ENDROOT
BRANCH   3   8
HETATM    8  N   UNL     1      -4.956   4.569 -32.012  1.00  0.00    -0.308 N 
HETATM    9  C   UNL     1      -4.449   5.730 -31.514  1.00  0.00     0.321 C 
HETATM   10  N   UNL     1      -3.828   5.671 -30.308  1.00  0.00    -0.336 N 
HETATM   11  O   UNL     1      -4.461   6.747 -32.206  1.00  0.00    -0.247 OA
HETATM   12  H   UNL     1      -3.562   4.759 -29.960  1.00  0.00     0.164 HD
HETATM   13  H   UNL     1      -5.059   4.619 -33.017  1.00  0.00     0.170 HD
BRANCH  10  14
HETATM   14  C   UNL     1      -2.987   6.760 -29.876  1.00  0.00     0.202 C 
BRANCH  14  15
HETATM   15  C   UNL     1      -1.587   6.492 -30.314  1.00  0.00     0.121 A 
HETATM   16  N   UNL     1      -0.869   7.185 -31.180  1.00  0.00    -0.244 NA
HETATM   17  C   UNL     1       0.342   6.550 -31.252  1.00  0.00     0.135 A 
HETATM   18  C   UNL     1       0.373   5.465 -30.411  1.00  0.00     0.109 A 
HETATM   19  N   UNL     1      -0.856   5.441 -29.813  1.00  0.00    -0.352 N 
HETATM   20  H   UNL     1      -1.174   4.775 -29.122  1.00  0.00     0.166 HD
ENDBRANCH  14  15
ENDBRANCH  10  14
ENDBRANCH   3   8
BRANCH   5  21
HETATM   21  N   UNL     1      -3.734  -0.145 -31.082  1.00  0.00    -0.323 N 
HETATM   22  C   UNL     1      -3.603  -1.194 -31.952  1.00  0.00     0.256 C 
HETATM   23  O   UNL     1      -2.586  -1.890 -31.872  1.00  0.00    -0.267 OA
HETATM   24  H   UNL     1      -2.966  -0.180 -30.421  1.00  0.00     0.169 HD
BRANCH  22  25
HETATM   25  C   UNL     1      -4.605  -1.577 -32.957  1.00  0.00     0.032 A 
HETATM   26  C   UNL     1      -5.887  -1.024 -32.951  1.00  0.00     0.017 A 
HETATM   27  C   UNL     1      -6.854  -1.522 -33.828  1.00  0.00     0.001 A 
HETATM   28  C   UNL     1      -6.550  -2.573 -34.693  1.00  0.00     0.000 A 
HETATM   29  C   UNL     1      -5.278  -3.142 -34.680  1.00  0.00     0.001 A 
HETATM   30  C   UNL     1      -4.308  -2.652 -33.806  1.00  0.00     0.017 A 
ENDBRANCH  22  25
ENDBRANCH   5  21
TORSDOF 5
ENDMDL
