MODEL 1
REMARK VINA RESULT:      -8.6      0.000      0.000
REMARK  8 active torsions:
REMARK  status: ('A' for Active; 'I' for Inactive)
REMARK    1  A    between atoms: O_2  and  C_3 
REMARK    2  A    between atoms: C_4  and  N_5 
REMARK    3  A    between atoms: N_5  and  C_6 
REMARK    4  A    between atoms: C_6  and  N_7 
REMARK    5  A    between atoms: N_7  and  N_8 
REMARK       I    between atoms: N_8  and  C_9 
REMARK    6  A    between atoms: C_9  and  C_10 
REMARK    7  A    between atoms: N_13  and  C_15 
REMARK    8  A    between atoms: C_15  and  C_16 
ROOT
HETATM    1  N   UNL     1      -5.022   3.135 -30.112  1.00  0.00    -0.268 N 
HETATM    2  C   UNL     1      -5.905   2.696 -31.076  1.00  0.00     0.240 C 
HETATM    3  O   UNL     1      -5.941   3.170 -32.209  1.00  0.00    -0.271 OA
HETATM    4  H   UNL     1      -4.790   2.607 -29.276  1.00  0.00     0.190 HD
ENDROOT
BRANCH   1   5
HETATM    5  N   UNL     1      -4.134   4.183 -30.449  1.00  0.00    -0.274 N 
HETATM    6  H   UNL     1      -3.512   3.962 -31.227  1.00  0.00     0.189 HD
BRANCH   5   7
HETATM    7  C   UNL     1      -4.557   5.500 -30.449  1.00  0.00     0.191 C 
HETATM    8  S   UNL     1      -5.499   6.230 -29.268  1.00  0.00    -0.039 SA
BRANCH   7   9
HETATM    9  N   UNL     1      -4.214   6.244 -31.542  1.00  0.00    -0.330 N 
HETATM   10  H   UNL     1      -4.495   7.222 -31.504  1.00  0.00     0.168 HD
BRANCH   9  11
HETATM   11  C   UNL     1      -3.477   5.921 -32.703  1.00  0.00     0.068 A 
HETATM   12  C   UNL     1      -2.075   5.816 -32.567  1.00  0.00     0.095 A 
HETATM   13  C   UNL     1      -1.301   5.436 -33.666  1.00  0.00     0.039 A 
HETATM   14  C   UNL     1      -1.910   5.157 -34.890  1.00  0.00     0.003 A 
HETATM   15  C   UNL     1      -3.293   5.248 -35.021  1.00  0.00     0.002 A 
HETATM   16  C   UNL     1      -4.077   5.626 -33.930  1.00  0.00     0.032 A 
BRANCH  12  17
HETATM   17  O   UNL     1      -1.578   6.103 -31.318  1.00  0.00    -0.354 OA
HETATM   18  C   UNL     1      -0.612   5.198 -30.791  1.00  0.00     0.210 C 
ENDBRANCH  12  17
ENDBRANCH   9  11
ENDBRANCH   7   9
ENDBRANCH   5   7
ENDBRANCH   1   5
BRANCH   2  19
HETATM   19  C   UNL     1      -6.858   1.572 -30.654  1.00  0.00     0.082 C 
HETATM   20  C   UNL     1      -6.062   0.272 -30.453  1.00  0.00     0.042 C 
HETATM   21  C   UNL     1      -5.466  -0.231 -31.768  1.00  0.00     0.236 C 
HETATM   22  N   UNL     1      -6.560  -0.432 -32.797  1.00  0.00    -0.067 N 
HETATM   23  H   UNL     1      -7.122  -1.231 -32.483  1.00  0.00     0.280 HD
HETATM   24  C   UNL     1      -7.469   0.756 -32.976  1.00  0.00     0.236 C 
HETATM   25  C   UNL     1      -7.984   1.282 -31.646  1.00  0.00     0.042 C 
BRANCH  22  26
HETATM   26  C   UNL     1      -5.989  -0.820 -34.157  1.00  0.00     0.273 C 
BRANCH  26  27
HETATM   27  C   UNL     1      -5.725  -2.290 -34.320  1.00  0.00    -0.033 A 
HETATM   28  C   UNL     1      -6.739  -3.158 -34.747  1.00  0.00     0.009 A 
HETATM   29  C   UNL     1      -6.481  -4.523 -34.892  1.00  0.00     0.001 A 
HETATM   30  C   UNL     1      -5.214  -5.029 -34.608  1.00  0.00     0.000 A 
HETATM   31  C   UNL     1      -4.201  -4.175 -34.183  1.00  0.00     0.001 A 
HETATM   32  C   UNL     1      -4.452  -2.812 -34.038  1.00  0.00     0.009 A 
ENDBRANCH  26  27
ENDBRANCH  22  26
ENDBRANCH   2  19
TORSDOF 8
ENDMDL
MODEL 2
REMARK VINA RESULT:      -8.5      1.763      2.065
REMARK  8 active torsions:
REMARK  status: ('A' for Active; 'I' for Inactive)
REMARK    1  A    between atoms: O_2  and  C_3 
REMARK    2  A    between atoms: C_4  and  N_5 
REMARK    3  A    between atoms: N_5  and  C_6 
REMARK    4  A    between atoms: C_6  and  N_7 
REMARK    5  A    between atoms: N_7  and  N_8 
REMARK       I    between atoms: N_8  and  C_9 
REMARK    6  A    between atoms: C_9  and  C_10 
REMARK    7  A    between atoms: N_13  and  C_15 
REMARK    8  A    between atoms: C_15  and  C_16 
ROOT
HETATM    1  N   UNL     1      -6.067   2.477 -30.813  1.00  0.00    -0.268 N 
HETATM    2  C   UNL     1      -6.918   2.548 -31.896  1.00  0.00     0.240 C 
HETATM    3  O   UNL     1      -6.727   3.308 -32.842  1.00  0.00    -0.271 OA
HETATM    4  H   UNL     1      -6.048   1.700 -30.160  1.00  0.00     0.190 HD
ENDROOT
BRANCH   1   5
HETATM    5  N   UNL     1      -4.938   3.329 -30.796  1.00  0.00    -0.274 N 
HETATM    6  H   UNL     1      -4.914   3.964 -29.997  1.00  0.00     0.189 HD
BRANCH   5   7
HETATM    7  C   UNL     1      -3.688   2.859 -31.154  1.00  0.00     0.191 C 
HETATM    8  S   UNL     1      -3.303   1.268 -31.520  1.00  0.00    -0.039 SA
BRANCH   7   9
HETATM    9  N   UNL     1      -2.675   3.775 -31.153  1.00  0.00    -0.330 N 
HETATM   10  H   UNL     1      -2.117   3.802 -30.302  1.00  0.00     0.168 HD
BRANCH   9  11
HETATM   11  C   UNL     1      -2.211   4.662 -32.151  1.00  0.00     0.068 A 
HETATM   12  C   UNL     1      -1.545   5.829 -31.715  1.00  0.00     0.095 A 
HETATM   13  C   UNL     1      -1.008   6.709 -32.657  1.00  0.00     0.039 A 
HETATM   14  C   UNL     1      -1.125   6.436 -34.021  1.00  0.00     0.003 A 
HETATM   15  C   UNL     1      -1.771   5.279 -34.450  1.00  0.00     0.002 A 
HETATM   16  C   UNL     1      -2.310   4.392 -33.518  1.00  0.00     0.032 A 
BRANCH  12  17
HETATM   17  O   UNL     1      -1.476   5.999 -30.353  1.00  0.00    -0.354 OA
HETATM   18  C   UNL     1      -0.184   5.904 -29.761  1.00  0.00     0.210 C 
ENDBRANCH  12  17
ENDBRANCH   9  11
ENDBRANCH   7   9
ENDBRANCH   5   7
ENDBRANCH   1   5
BRANCH   2  19
HETATM   19  C   UNL     1      -8.136   1.618 -31.856  1.00  0.00     0.082 C 
HETATM   20  C   UNL     1      -7.687   0.200 -31.472  1.00  0.00     0.042 C 
HETATM   21  C   UNL     1      -6.794  -0.418 -32.546  1.00  0.00     0.236 C 
HETATM   22  N   UNL     1      -7.511  -0.432 -33.881  1.00  0.00    -0.067 N 
HETATM   23  H   UNL     1      -8.275  -1.114 -33.802  1.00  0.00     0.280 HD
HETATM   24  C   UNL     1      -8.092   0.897 -34.287  1.00  0.00     0.236 C 
HETATM   25  C   UNL     1      -8.911   1.523 -33.171  1.00  0.00     0.042 C 
BRANCH  22  26
HETATM   26  C   UNL     1      -6.605  -0.933 -35.001  1.00  0.00     0.273 C 
BRANCH  26  27
HETATM   27  C   UNL     1      -6.030  -2.301 -34.765  1.00  0.00    -0.033 A 
HETATM   28  C   UNL     1      -4.699  -2.460 -34.356  1.00  0.00     0.009 A 
HETATM   29  C   UNL     1      -4.176  -3.737 -34.144  1.00  0.00     0.001 A 
HETATM   30  C   UNL     1      -4.975  -4.861 -34.341  1.00  0.00     0.000 A 
HETATM   31  C   UNL     1      -6.298  -4.715 -34.748  1.00  0.00     0.001 A 
HETATM   32  C   UNL     1      -6.826  -3.442 -34.961  1.00  0.00     0.009 A 
ENDBRANCH  26  27
ENDBRANCH  22  26
ENDBRANCH   2  19
TORSDOF 8
ENDMDL
MODEL 3
REMARK VINA RESULT:      -8.5      4.150      7.228
REMARK  8 active torsions:
REMARK  status: ('A' for Active; 'I' for Inactive)
REMARK    1  A    between atoms: O_2  and  C_3 
REMARK    2  A    between atoms: C_4  and  N_5 
REMARK    3  A    between atoms: N_5  and  C_6 
REMARK    4  A    between atoms: C_6  and  N_7 
REMARK    5  A    between atoms: N_7  and  N_8 
REMARK       I    between atoms: N_8  and  C_9 
REMARK    6  A    between atoms: C_9  and  C_10 
REMARK    7  A    between atoms: N_13  and  C_15 
REMARK    8  A    between atoms: C_15  and  C_16 
ROOT
HETATM    1  N   UNL     1      -8.630   1.546 -31.129  1.00  0.00    -0.268 N 
HETATM    2  C   UNL     1      -7.471   2.283 -31.018  1.00  0.00     0.240 C 
HETATM    3  O   UNL     1      -7.401   3.466 -31.343  1.00  0.00    -0.271 OA
HETATM    4  H   UNL     1      -8.792   0.671 -30.641  1.00  0.00     0.190 HD
ENDROOT
BRANCH   1   5
HETATM    5  N   UNL     1      -9.779   2.185 -31.652  1.00  0.00    -0.274 N 
HETATM    6  H   UNL     1      -9.903   3.143 -31.322  1.00  0.00     0.189 HD
BRANCH   5   7
HETATM    7  C   UNL     1     -10.148   2.014 -32.973  1.00  0.00     0.191 C 
HETATM    8  S   UNL     1      -9.263   1.202 -34.144  1.00  0.00    -0.039 SA
BRANCH   7   9
HETATM    9  N   UNL     1     -11.315   2.611 -33.357  1.00  0.00    -0.330 N 
HETATM   10  H   UNL     1     -11.207   3.508 -33.828  1.00  0.00     0.168 HD
BRANCH   9  11
HETATM   11  C   UNL     1     -12.659   2.183 -33.278  1.00  0.00     0.068 A 
HETATM   12  C   UNL     1     -13.526   2.934 -32.456  1.00  0.00     0.095 A 
HETATM   13  C   UNL     1     -14.880   2.597 -32.389  1.00  0.00     0.039 A 
HETATM   14  C   UNL     1     -15.373   1.525 -33.135  1.00  0.00     0.003 A 
HETATM   15  C   UNL     1     -14.521   0.792 -33.955  1.00  0.00     0.002 A 
HETATM   16  C   UNL     1     -13.167   1.120 -34.031  1.00  0.00     0.032 A 
BRANCH  12  17
HETATM   17  O   UNL     1     -12.942   3.974 -31.771  1.00  0.00    -0.354 OA
HETATM   18  C   UNL     1     -13.476   4.274 -30.486  1.00  0.00     0.210 C 
ENDBRANCH  12  17
ENDBRANCH   9  11
ENDBRANCH   7   9
ENDBRANCH   5   7
ENDBRANCH   1   5
BRANCH   2  19
HETATM   19  C   UNL     1      -6.250   1.538 -30.465  1.00  0.00     0.082 C 
HETATM   20  C   UNL     1      -5.010   1.892 -31.301  1.00  0.00     0.042 C 
HETATM   21  C   UNL     1      -5.132   1.375 -32.734  1.00  0.00     0.236 C 
HETATM   22  N   UNL     1      -5.362  -0.122 -32.733  1.00  0.00    -0.067 N 
HETATM   23  H   UNL     1      -4.491  -0.558 -32.409  1.00  0.00     0.280 HD
HETATM   24  C   UNL     1      -6.489  -0.577 -31.843  1.00  0.00     0.236 C 
HETATM   25  C   UNL     1      -6.383   0.015 -30.447  1.00  0.00     0.042 C 
BRANCH  22  26
HETATM   26  C   UNL     1      -5.607  -0.655 -34.142  1.00  0.00     0.273 C 
BRANCH  26  27
HETATM   27  C   UNL     1      -5.448  -2.143 -34.276  1.00  0.00    -0.033 A 
HETATM   28  C   UNL     1      -4.261  -2.777 -33.886  1.00  0.00     0.009 A 
HETATM   29  C   UNL     1      -4.126  -4.161 -34.019  1.00  0.00     0.001 A 
HETATM   30  C   UNL     1      -5.171  -4.917 -34.545  1.00  0.00     0.000 A 
HETATM   31  C   UNL     1      -6.354  -4.297 -34.936  1.00  0.00     0.001 A 
HETATM   32  C   UNL     1      -6.495  -2.917 -34.804  1.00  0.00     0.009 A 
ENDBRANCH  26  27
ENDBRANCH  22  26
ENDBRANCH   2  19
TORSDOF 8
ENDMDL
MODEL 4
REMARK VINA RESULT:      -8.5      1.637      2.029
REMARK  8 active torsions:
REMARK  status: ('A' for Active; 'I' for Inactive)
REMARK    1  A    between atoms: O_2  and  C_3 
REMARK    2  A    between atoms: C_4  and  N_5 
REMARK    3  A    between atoms: N_5  and  C_6 
REMARK    4  A    between atoms: C_6  and  N_7 
REMARK    5  A    between atoms: N_7  and  N_8 
REMARK       I    between atoms: N_8  and  C_9 
REMARK    6  A    between atoms: C_9  and  C_10 
REMARK    7  A    between atoms: N_13  and  C_15 
REMARK    8  A    between atoms: C_15  and  C_16 
ROOT
HETATM    1  N   UNL     1      -5.683   3.859 -30.822  1.00  0.00    -0.268 N 
HETATM    2  C   UNL     1      -6.358   2.672 -30.631  1.00  0.00     0.240 C 
HETATM    3  O   UNL     1      -7.558   2.545 -30.864  1.00  0.00    -0.271 OA
HETATM    4  H   UNL     1      -4.673   3.929 -30.890  1.00  0.00     0.190 HD
ENDROOT
BRANCH   1   5
HETATM    5  N   UNL     1      -6.415   4.973 -31.295  1.00  0.00    -0.274 N 
HETATM    6  H   UNL     1      -6.372   5.786 -30.679  1.00  0.00     0.189 HD
BRANCH   5   7
HETATM    7  C   UNL     1      -6.412   5.309 -32.636  1.00  0.00     0.191 C 
HETATM    8  S   UNL     1      -7.502   4.761 -33.789  1.00  0.00    -0.039 SA
BRANCH   7   9
HETATM    9  N   UNL     1      -5.394   6.116 -33.056  1.00  0.00    -0.330 N 
HETATM   10  H   UNL     1      -5.613   7.110 -33.085  1.00  0.00     0.168 HD
BRANCH   9  11
HETATM   11  C   UNL     1      -4.053   5.832 -33.402  1.00  0.00     0.068 A 
HETATM   12  C   UNL     1      -3.103   5.847 -32.358  1.00  0.00     0.095 A 
HETATM   13  C   UNL     1      -1.774   5.510 -32.629  1.00  0.00     0.039 A 
HETATM   14  C   UNL     1      -1.390   5.156 -33.924  1.00  0.00     0.003 A 
HETATM   15  C   UNL     1      -2.330   5.129 -34.950  1.00  0.00     0.002 A 
HETATM   16  C   UNL     1      -3.660   5.463 -34.691  1.00  0.00     0.032 A 
BRANCH  12  17
HETATM   17  O   UNL     1      -3.586   6.199 -31.120  1.00  0.00    -0.354 OA
HETATM   18  C   UNL     1      -2.642   6.717 -30.189  1.00  0.00     0.210 C 
ENDBRANCH  12  17
ENDBRANCH   9  11
ENDBRANCH   7   9
ENDBRANCH   5   7
ENDBRANCH   1   5
BRANCH   2  19
HETATM   19  C   UNL     1      -5.523   1.502 -30.099  1.00  0.00     0.082 C 
HETATM   20  C   UNL     1      -4.213   1.402 -30.895  1.00  0.00     0.042 C 
HETATM   21  C   UNL     1      -4.468   1.032 -32.356  1.00  0.00     0.236 C 
HETATM   22  N   UNL     1      -5.240  -0.269 -32.439  1.00  0.00    -0.067 N 
HETATM   23  H   UNL     1      -4.607  -1.013 -32.125  1.00  0.00     0.280 HD
HETATM   24  C   UNL     1      -6.485  -0.308 -31.592  1.00  0.00     0.236 C 
HETATM   25  C   UNL     1      -6.215   0.140 -30.165  1.00  0.00     0.042 C 
BRANCH  22  26
HETATM   26  C   UNL     1      -5.616  -0.609 -33.878  1.00  0.00     0.273 C 
BRANCH  26  27
HETATM   27  C   UNL     1      -5.593  -2.078 -34.192  1.00  0.00    -0.033 A 
HETATM   28  C   UNL     1      -4.428  -2.835 -34.005  1.00  0.00     0.009 A 
HETATM   29  C   UNL     1      -4.419  -4.199 -34.304  1.00  0.00     0.001 A 
HETATM   30  C   UNL     1      -5.569  -4.814 -34.795  1.00  0.00     0.000 A 
HETATM   31  C   UNL     1      -6.731  -4.072 -34.985  1.00  0.00     0.001 A 
HETATM   32  C   UNL     1      -6.746  -2.710 -34.687  1.00  0.00     0.009 A 
ENDBRANCH  26  27
ENDBRANCH  22  26
ENDBRANCH   2  19
TORSDOF 8
ENDMDL
MODEL 5
REMARK VINA RESULT:      -8.5      1.165      2.053
REMARK  8 active torsions:
REMARK  status: ('A' for Active; 'I' for Inactive)
REMARK    1  A    between atoms: O_2  and  C_3 
REMARK    2  A    between atoms: C_4  and  N_5 
REMARK    3  A    between atoms: N_5  and  C_6 
REMARK    4  A    between atoms: C_6  and  N_7 
REMARK    5  A    between atoms: N_7  and  N_8 
REMARK       I    between atoms: N_8  and  C_9 
REMARK    6  A    between atoms: C_9  and  C_10 
REMARK    7  A    between atoms: N_13  and  C_15 
REMARK    8  A    between atoms: C_15  and  C_16 
ROOT
HETATM    1  N   UNL     1      -5.290   3.855 -30.100  1.00  0.00    -0.268 N 
HETATM    2  C   UNL     1      -5.171   2.515 -30.403  1.00  0.00     0.240 C 
HETATM    3  O   UNL     1      -4.118   2.010 -30.785  1.00  0.00    -0.271 OA
HETATM    4  H   UNL     1      -6.047   4.244 -29.547  1.00  0.00     0.190 HD
ENDROOT
BRANCH   1   5
HETATM    5  N   UNL     1      -4.148   4.676 -30.251  1.00  0.00    -0.274 N 
HETATM    6  H   UNL     1      -3.445   4.290 -30.883  1.00  0.00     0.189 HD
BRANCH   5   7
HETATM    7  C   UNL     1      -4.268   6.050 -30.346  1.00  0.00     0.191 C 
HETATM    8  S   UNL     1      -5.107   7.039 -29.282  1.00  0.00    -0.039 SA
BRANCH   7   9
HETATM    9  N   UNL     1      -3.692   6.633 -31.439  1.00  0.00    -0.330 N 
HETATM   10  H   UNL     1      -3.648   7.650 -31.413  1.00  0.00     0.168 HD
BRANCH   9  11
HETATM   11  C   UNL     1      -3.080   6.078 -32.585  1.00  0.00     0.068 A 
HETATM   12  C   UNL     1      -3.915   5.799 -33.689  1.00  0.00     0.095 A 
HETATM   13  C   UNL     1      -3.356   5.311 -34.872  1.00  0.00     0.039 A 
HETATM   14  C   UNL     1      -1.979   5.104 -34.964  1.00  0.00     0.003 A 
HETATM   15  C   UNL     1      -1.154   5.391 -33.880  1.00  0.00     0.002 A 
HETATM   16  C   UNL     1      -1.701   5.880 -32.694  1.00  0.00     0.032 A 
BRANCH  12  17
HETATM   17  O   UNL     1      -5.254   6.047 -33.497  1.00  0.00    -0.354 OA
HETATM   18  C   UNL     1      -6.143   4.954 -33.704  1.00  0.00     0.210 C 
ENDBRANCH  12  17
ENDBRANCH   9  11
ENDBRANCH   7   9
ENDBRANCH   5   7
ENDBRANCH   1   5
BRANCH   2  19
HETATM   19  C   UNL     1      -6.442   1.673 -30.240  1.00  0.00     0.082 C 
HETATM   20  C   UNL     1      -6.067   0.184 -30.178  1.00  0.00     0.042 C 
HETATM   21  C   UNL     1      -5.475  -0.303 -31.500  1.00  0.00     0.236 C 
HETATM   22  N   UNL     1      -6.446  -0.047 -32.635  1.00  0.00    -0.067 N 
HETATM   23  H   UNL     1      -7.242  -0.681 -32.496  1.00  0.00     0.280 HD
HETATM   24  C   UNL     1      -6.963   1.366 -32.703  1.00  0.00     0.236 C 
HETATM   25  C   UNL     1      -7.473   1.850 -31.355  1.00  0.00     0.042 C 
BRANCH  22  26
HETATM   26  C   UNL     1      -5.841  -0.412 -33.987  1.00  0.00     0.273 C 
BRANCH  26  27
HETATM   27  C   UNL     1      -5.731  -1.890 -34.236  1.00  0.00    -0.033 A 
HETATM   28  C   UNL     1      -4.497  -2.546 -34.131  1.00  0.00     0.009 A 
HETATM   29  C   UNL     1      -4.408  -3.919 -34.368  1.00  0.00     0.001 A 
HETATM   30  C   UNL     1      -5.547  -4.643 -34.714  1.00  0.00     0.000 A 
HETATM   31  C   UNL     1      -6.777  -4.001 -34.822  1.00  0.00     0.001 A 
HETATM   32  C   UNL     1      -6.872  -2.631 -34.585  1.00  0.00     0.009 A 
ENDBRANCH  26  27
ENDBRANCH  22  26
ENDBRANCH   2  19
TORSDOF 8
ENDMDL
MODEL 6
REMARK VINA RESULT:      -8.4      4.158      7.248
REMARK  8 active torsions:
REMARK  status: ('A' for Active; 'I' for Inactive)
REMARK    1  A    between atoms: O_2  and  C_3 
REMARK    2  A    between atoms: C_4  and  N_5 
REMARK    3  A    between atoms: N_5  and  C_6 
REMARK    4  A    between atoms: C_6  and  N_7 
REMARK    5  A    between atoms: N_7  and  N_8 
REMARK       I    between atoms: N_8  and  C_9 
REMARK    6  A    between atoms: C_9  and  C_10 
REMARK    7  A    between atoms: N_13  and  C_15 
REMARK    8  A    between atoms: C_15  and  C_16 
ROOT
HETATM    1  N   UNL     1      -8.630   1.541 -31.110  1.00  0.00    -0.268 N 
HETATM    2  C   UNL     1      -7.502   2.311 -30.926  1.00  0.00     0.240 C 
HETATM    3  O   UNL     1      -7.477   3.519 -31.152  1.00  0.00    -0.271 OA
HETATM    4  H   UNL     1      -8.761   0.623 -30.697  1.00  0.00     0.190 HD
ENDROOT
BRANCH   1   5
HETATM    5  N   UNL     1      -9.799   2.176 -31.591  1.00  0.00    -0.274 N 
HETATM    6  H   UNL     1      -9.910   3.137 -31.265  1.00  0.00     0.189 HD
BRANCH   5   7
HETATM    7  C   UNL     1     -10.223   1.993 -32.895  1.00  0.00     0.191 C 
HETATM    8  S   UNL     1      -9.535   0.950 -34.014  1.00  0.00    -0.039 SA
BRANCH   7   9
HETATM    9  N   UNL     1     -11.261   2.778 -33.309  1.00  0.00    -0.330 N 
HETATM   10  H   UNL     1     -11.085   3.317 -34.154  1.00  0.00     0.168 HD
BRANCH   9  11
HETATM   11  C   UNL     1     -12.574   2.935 -32.812  1.00  0.00     0.068 A 
HETATM   12  C   UNL     1     -13.530   1.972 -33.202  1.00  0.00     0.095 A 
HETATM   13  C   UNL     1     -14.828   2.039 -32.690  1.00  0.00     0.039 A 
HETATM   14  C   UNL     1     -15.177   3.050 -31.794  1.00  0.00     0.003 A 
HETATM   15  C   UNL     1     -14.231   3.993 -31.399  1.00  0.00     0.002 A 
HETATM   16  C   UNL     1     -12.932   3.935 -31.903  1.00  0.00     0.032 A 
BRANCH  12  17
HETATM   17  O   UNL     1     -13.081   1.013 -34.081  1.00  0.00    -0.354 OA
HETATM   18  C   UNL     1     -13.265  -0.345 -33.694  1.00  0.00     0.210 C 
ENDBRANCH  12  17
ENDBRANCH   9  11
ENDBRANCH   7   9
ENDBRANCH   5   7
ENDBRANCH   1   5
BRANCH   2  19
HETATM   19  C   UNL     1      -6.257   1.571 -30.423  1.00  0.00     0.082 C 
HETATM   20  C   UNL     1      -5.045   1.963 -31.282  1.00  0.00     0.042 C 
HETATM   21  C   UNL     1      -5.196   1.478 -32.723  1.00  0.00     0.236 C 
HETATM   22  N   UNL     1      -5.406  -0.022 -32.753  1.00  0.00    -0.067 N 
HETATM   23  H   UNL     1      -4.521  -0.453 -32.462  1.00  0.00     0.280 HD
HETATM   24  C   UNL     1      -6.502  -0.514 -31.845  1.00  0.00     0.236 C 
HETATM   25  C   UNL     1      -6.369   0.047 -30.438  1.00  0.00     0.042 C 
BRANCH  22  26
HETATM   26  C   UNL     1      -5.680  -0.524 -34.167  1.00  0.00     0.273 C 
BRANCH  26  27
HETATM   27  C   UNL     1      -5.583  -2.016 -34.323  1.00  0.00    -0.033 A 
HETATM   28  C   UNL     1      -6.686  -2.766 -34.752  1.00  0.00     0.009 A 
HETATM   29  C   UNL     1      -6.583  -4.152 -34.890  1.00  0.00     0.001 A 
HETATM   30  C   UNL     1      -5.383  -4.796 -34.598  1.00  0.00     0.000 A 
HETATM   31  C   UNL     1      -4.282  -4.060 -34.171  1.00  0.00     0.001 A 
HETATM   32  C   UNL     1      -4.378  -2.676 -34.032  1.00  0.00     0.009 A 
ENDBRANCH  26  27
ENDBRANCH  22  26
ENDBRANCH   2  19
TORSDOF 8
ENDMDL
MODEL 7
REMARK VINA RESULT:      -8.4      1.261      2.236
REMARK  8 active torsions:
REMARK  status: ('A' for Active; 'I' for Inactive)
REMARK    1  A    between atoms: O_2  and  C_3 
REMARK    2  A    between atoms: C_4  and  N_5 
REMARK    3  A    between atoms: N_5  and  C_6 
REMARK    4  A    between atoms: C_6  and  N_7 
REMARK    5  A    between atoms: N_7  and  N_8 
REMARK       I    between atoms: N_8  and  C_9 
REMARK    6  A    between atoms: C_9  and  C_10 
REMARK    7  A    between atoms: N_13  and  C_15 
REMARK    8  A    between atoms: C_15  and  C_16 
ROOT
HETATM    1  N   UNL     1      -4.752   3.788 -31.454  1.00  0.00    -0.268 N 
HETATM    2  C   UNL     1      -5.725   2.891 -31.066  1.00  0.00     0.240 C 
HETATM    3  O   UNL     1      -6.923   3.089 -31.251  1.00  0.00    -0.271 OA
HETATM    4  H   UNL     1      -3.770   3.548 -31.554  1.00  0.00     0.190 HD
ENDROOT
BRANCH   1   5
HETATM    5  N   UNL     1      -5.163   4.988 -32.079  1.00  0.00    -0.274 N 
HETATM    6  H   UNL     1      -6.123   4.964 -32.426  1.00  0.00     0.189 HD
BRANCH   5   7
HETATM    7  C   UNL     1      -4.804   6.219 -31.561  1.00  0.00     0.191 C 
HETATM    8  S   UNL     1      -5.719   7.143 -30.501  1.00  0.00    -0.039 SA
BRANCH   7   9
HETATM    9  N   UNL     1      -3.622   6.740 -32.004  1.00  0.00    -0.330 N 
HETATM   10  H   UNL     1      -3.706   7.427 -32.751  1.00  0.00     0.168 HD
BRANCH   9  11
HETATM   11  C   UNL     1      -2.291   6.547 -31.571  1.00  0.00     0.068 A 
HETATM   12  C   UNL     1      -1.558   5.509 -32.185  1.00  0.00     0.095 A 
HETATM   13  C   UNL     1      -0.218   5.314 -31.843  1.00  0.00     0.039 A 
HETATM   14  C   UNL     1       0.394   6.144 -30.903  1.00  0.00     0.003 A 
HETATM   15  C   UNL     1      -0.325   7.176 -30.307  1.00  0.00     0.002 A 
HETATM   16  C   UNL     1      -1.664   7.381 -30.641  1.00  0.00     0.032 A 
BRANCH  12  17
HETATM   17  O   UNL     1      -2.252   4.756 -33.103  1.00  0.00    -0.354 OA
HETATM   18  C   UNL     1      -1.912   4.946 -34.473  1.00  0.00     0.210 C 
ENDBRANCH  12  17
ENDBRANCH   9  11
ENDBRANCH   7   9
ENDBRANCH   5   7
ENDBRANCH   1   5
BRANCH   2  19
HETATM   19  C   UNL     1      -5.227   1.616 -30.375  1.00  0.00     0.082 C 
HETATM   20  C   UNL     1      -3.989   1.082 -31.113  1.00  0.00     0.042 C 
HETATM   21  C   UNL     1      -4.333   0.619 -32.528  1.00  0.00     0.236 C 
HETATM   22  N   UNL     1      -5.421  -0.436 -32.485  1.00  0.00    -0.067 N 
HETATM   23  H   UNL     1      -5.005  -1.276 -32.066  1.00  0.00     0.280 HD
HETATM   24  C   UNL     1      -6.632  -0.046 -31.679  1.00  0.00     0.236 C 
HETATM   25  C   UNL     1      -6.253   0.484 -30.305  1.00  0.00     0.042 C 
BRANCH  22  26
HETATM   26  C   UNL     1      -5.873  -0.835 -33.885  1.00  0.00     0.273 C 
BRANCH  26  27
HETATM   27  C   UNL     1      -5.695  -2.294 -34.200  1.00  0.00    -0.033 A 
HETATM   28  C   UNL     1      -6.756  -3.053 -34.712  1.00  0.00     0.009 A 
HETATM   29  C   UNL     1      -6.578  -4.408 -34.997  1.00  0.00     0.001 A 
HETATM   30  C   UNL     1      -5.344  -5.014 -34.770  1.00  0.00     0.000 A 
HETATM   31  C   UNL     1      -4.284  -4.269 -34.260  1.00  0.00     0.001 A 
HETATM   32  C   UNL     1      -4.456  -2.916 -33.975  1.00  0.00     0.009 A 
ENDBRANCH  26  27
ENDBRANCH  22  26
ENDBRANCH   2  19
TORSDOF 8
ENDMDL
MODEL 8
REMARK VINA RESULT:      -8.3      2.150      3.312
REMARK  8 active torsions:
REMARK  status: ('A' for Active; 'I' for Inactive)
REMARK    1  A    between atoms: O_2  and  C_3 
REMARK    2  A    between atoms: C_4  and  N_5 
REMARK    3  A    between atoms: N_5  and  C_6 
REMARK    4  A    between atoms: C_6  and  N_7 
REMARK    5  A    between atoms: N_7  and  N_8 
REMARK       I    between atoms: N_8  and  C_9 
REMARK    6  A    between atoms: C_9  and  C_10 
REMARK    7  A    between atoms: N_13  and  C_15 
REMARK    8  A    between atoms: C_15  and  C_16 
ROOT
HETATM    1  N   UNL     1      -3.185   3.398 -32.275  1.00  0.00    -0.268 N 
HETATM    2  C   UNL     1      -4.444   3.168 -31.764  1.00  0.00     0.240 C 
HETATM    3  O   UNL     1      -5.406   3.891 -32.016  1.00  0.00    -0.271 OA
HETATM    4  H   UNL     1      -2.450   2.698 -32.302  1.00  0.00     0.190 HD
ENDROOT
BRANCH   1   5
HETATM    5  N   UNL     1      -3.000   4.523 -33.113  1.00  0.00    -0.274 N 
HETATM    6  H   UNL     1      -3.853   5.060 -33.274  1.00  0.00     0.189 HD
BRANCH   5   7
HETATM    7  C   UNL     1      -1.873   5.315 -33.002  1.00  0.00     0.191 C 
HETATM    8  S   UNL     1      -1.255   6.318 -34.196  1.00  0.00    -0.039 SA
BRANCH   7   9
HETATM    9  N   UNL     1      -1.180   5.221 -31.828  1.00  0.00    -0.330 N 
HETATM   10  H   UNL     1      -0.722   4.326 -31.667  1.00  0.00     0.168 HD
BRANCH   9  11
HETATM   11  C   UNL     1      -0.926   6.168 -30.811  1.00  0.00     0.068 A 
HETATM   12  C   UNL     1      -2.029   6.597 -30.041  1.00  0.00     0.095 A 
HETATM   13  C   UNL     1      -1.828   7.482 -28.979  1.00  0.00     0.039 A 
HETATM   14  C   UNL     1      -0.543   7.937 -28.678  1.00  0.00     0.003 A 
HETATM   15  C   UNL     1       0.546   7.504 -29.429  1.00  0.00     0.002 A 
HETATM   16  C   UNL     1       0.358   6.619 -30.492  1.00  0.00     0.032 A 
BRANCH  12  17
HETATM   17  O   UNL     1      -3.249   6.082 -30.413  1.00  0.00    -0.354 OA
HETATM   18  C   UNL     1      -4.279   7.023 -30.698  1.00  0.00     0.210 C 
ENDBRANCH  12  17
ENDBRANCH   9  11
ENDBRANCH   7   9
ENDBRANCH   5   7
ENDBRANCH   1   5
BRANCH   2  19
HETATM   19  C   UNL     1      -4.586   1.948 -30.846  1.00  0.00     0.082 C 
HETATM   20  C   UNL     1      -3.579   0.867 -31.271  1.00  0.00     0.042 C 
HETATM   21  C   UNL     1      -3.898   0.316 -32.660  1.00  0.00     0.236 C 
HETATM   22  N   UNL     1      -5.310  -0.231 -32.696  1.00  0.00    -0.067 N 
HETATM   23  H   UNL     1      -5.319  -1.074 -32.110  1.00  0.00     0.280 HD
HETATM   24  C   UNL     1      -6.358   0.722 -32.184  1.00  0.00     0.236 C 
HETATM   25  C   UNL     1      -5.977   1.314 -30.836  1.00  0.00     0.042 C 
BRANCH  22  26
HETATM   26  C   UNL     1      -5.703  -0.682 -34.099  1.00  0.00     0.273 C 
BRANCH  26  27
HETATM   27  C   UNL     1      -5.646  -2.169 -34.310  1.00  0.00    -0.033 A 
HETATM   28  C   UNL     1      -6.797  -2.890 -34.653  1.00  0.00     0.009 A 
HETATM   29  C   UNL     1      -6.730  -4.272 -34.843  1.00  0.00     0.001 A 
HETATM   30  C   UNL     1      -5.518  -4.941 -34.688  1.00  0.00     0.000 A 
HETATM   31  C   UNL     1      -4.369  -4.234 -34.347  1.00  0.00     0.001 A 
HETATM   32  C   UNL     1      -4.429  -2.854 -34.157  1.00  0.00     0.009 A 
ENDBRANCH  26  27
ENDBRANCH  22  26
ENDBRANCH   2  19
TORSDOF 8
ENDMDL
MODEL 9
REMARK VINA RESULT:      -8.0      2.275      3.469
REMARK  8 active torsions:
REMARK  status: ('A' for Active; 'I' for Inactive)
REMARK    1  A    between atoms: O_2  and  C_3 
REMARK    2  A    between atoms: C_4  and  N_5 
REMARK    3  A    between atoms: N_5  and  C_6 
REMARK    4  A    between atoms: C_6  and  N_7 
REMARK    5  A    between atoms: N_7  and  N_8 
REMARK       I    between atoms: N_8  and  C_9 
REMARK    6  A    between atoms: C_9  and  C_10 
REMARK    7  A    between atoms: N_13  and  C_15 
REMARK    8  A    between atoms: C_15  and  C_16 
ROOT
HETATM    1  N   UNL     1      -4.046   3.939 -30.666  1.00  0.00    -0.268 N 
HETATM    2  C   UNL     1      -4.053   2.583 -30.912  1.00  0.00     0.240 C 
HETATM    3  O   UNL     1      -3.129   2.005 -31.482  1.00  0.00    -0.271 OA
HETATM    4  H   UNL     1      -4.649   4.393 -29.987  1.00  0.00     0.190 HD
ENDROOT
BRANCH   1   5
HETATM    5  N   UNL     1      -2.929   4.690 -31.103  1.00  0.00    -0.274 N 
HETATM    6  H   UNL     1      -2.596   4.429 -32.032  1.00  0.00     0.189 HD
BRANCH   5   7
HETATM    7  C   UNL     1      -2.846   6.048 -30.857  1.00  0.00     0.191 C 
HETATM    8  S   UNL     1      -2.946   7.263 -32.010  1.00  0.00    -0.039 SA
BRANCH   7   9
HETATM    9  N   UNL     1      -2.606   6.415 -29.564  1.00  0.00    -0.330 N 
HETATM   10  H   UNL     1      -3.263   6.044 -28.880  1.00  0.00     0.168 HD
BRANCH   9  11
HETATM   11  C   UNL     1      -1.565   7.173 -28.982  1.00  0.00     0.068 A 
HETATM   12  C   UNL     1      -0.243   6.731 -29.209  1.00  0.00     0.095 A 
HETATM   13  C   UNL     1       0.829   7.477 -28.713  1.00  0.00     0.039 A 
HETATM   14  C   UNL     1       0.595   8.654 -28.001  1.00  0.00     0.003 A 
HETATM   15  C   UNL     1      -0.708   9.096 -27.788  1.00  0.00     0.002 A 
HETATM   16  C   UNL     1      -1.786   8.360 -28.279  1.00  0.00     0.032 A 
BRANCH  12  17
HETATM   17  O   UNL     1      -0.123   5.566 -29.929  1.00  0.00    -0.354 OA
HETATM   18  C   UNL     1       0.898   4.662 -29.517  1.00  0.00     0.210 C 
ENDBRANCH  12  17
ENDBRANCH   9  11
ENDBRANCH   7   9
ENDBRANCH   5   7
ENDBRANCH   1   5
BRANCH   2  19
HETATM   19  C   UNL     1      -5.294   1.818 -30.437  1.00  0.00     0.082 C 
HETATM   20  C   UNL     1      -4.981   0.315 -30.382  1.00  0.00     0.042 C 
HETATM   21  C   UNL     1      -4.715  -0.256 -31.775  1.00  0.00     0.236 C 
HETATM   22  N   UNL     1      -5.898   0.008 -32.684  1.00  0.00    -0.067 N 
HETATM   23  H   UNL     1      -6.671  -0.576 -32.345  1.00  0.00     0.280 HD
HETATM   24  C   UNL     1      -6.354   1.443 -32.710  1.00  0.00     0.236 C 
HETATM   25  C   UNL     1      -6.535   2.007 -31.310  1.00  0.00     0.042 C 
BRANCH  22  26
HETATM   26  C   UNL     1      -5.619  -0.443 -34.114  1.00  0.00     0.273 C 
BRANCH  26  27
HETATM   27  C   UNL     1      -5.627  -1.933 -34.306  1.00  0.00    -0.033 A 
HETATM   28  C   UNL     1      -4.445  -2.678 -34.198  1.00  0.00     0.009 A 
HETATM   29  C   UNL     1      -4.466  -4.062 -34.381  1.00  0.00     0.001 A 
HETATM   30  C   UNL     1      -5.664  -4.710 -34.676  1.00  0.00     0.000 A 
HETATM   31  C   UNL     1      -6.843  -3.979 -34.785  1.00  0.00     0.001 A 
HETATM   32  C   UNL     1      -6.829  -2.598 -34.602  1.00  0.00     0.009 A 
ENDBRANCH  26  27
ENDBRANCH  22  26
ENDBRANCH   2  19
TORSDOF 8
ENDMDL
MODEL 10
REMARK VINA RESULT:      -7.8      1.585      2.658
REMARK  8 active torsions:
REMARK  status: ('A' for Active; 'I' for Inactive)
REMARK    1  A    between atoms: O_2  and  C_3 
REMARK    2  A    between atoms: C_4  and  N_5 
REMARK    3  A    between atoms: N_5  and  C_6 
REMARK    4  A    between atoms: C_6  and  N_7 
REMARK    5  A    between atoms: N_7  and  N_8 
REMARK       I    between atoms: N_8  and  C_9 
REMARK    6  A    between atoms: C_9  and  C_10 
REMARK    7  A    between atoms: N_13  and  C_15 
REMARK    8  A    between atoms: C_15  and  C_16 
ROOT
HETATM    1  N   UNL     1      -5.530   4.703 -31.003  1.00  0.00    -0.268 N 
HETATM    2  C   UNL     1      -6.707   4.016 -30.797  1.00  0.00     0.240 C 
HETATM    3  O   UNL     1      -7.130   3.742 -29.676  1.00  0.00    -0.271 OA
HETATM    4  H   UNL     1      -5.290   5.163 -31.876  1.00  0.00     0.190 HD
ENDROOT
BRANCH   1   5
HETATM    5  N   UNL     1      -4.779   5.093 -29.870  1.00  0.00    -0.274 N 
HETATM    6  H   UNL     1      -3.981   4.487 -29.676  1.00  0.00     0.189 HD
BRANCH   5   7
HETATM    7  C   UNL     1      -4.522   6.427 -29.612  1.00  0.00     0.191 C 
HETATM    8  S   UNL     1      -5.412   7.420 -28.593  1.00  0.00    -0.039 SA
BRANCH   7   9
HETATM    9  N   UNL     1      -3.481   6.986 -30.296  1.00  0.00    -0.330 N 
HETATM   10  H   UNL     1      -3.699   7.855 -30.780  1.00  0.00     0.168 HD
BRANCH   9  11
HETATM   11  C   UNL     1      -2.123   6.611 -30.408  1.00  0.00     0.068 A 
HETATM   12  C   UNL     1      -1.787   5.714 -31.445  1.00  0.00     0.095 A 
HETATM   13  C   UNL     1      -0.450   5.359 -31.645  1.00  0.00     0.039 A 
HETATM   14  C   UNL     1       0.547   5.892 -30.827  1.00  0.00     0.003 A 
HETATM   15  C   UNL     1       0.217   6.786 -29.812  1.00  0.00     0.002 A 
HETATM   16  C   UNL     1      -1.114   7.149 -29.604  1.00  0.00     0.032 A 
BRANCH  12  17
HETATM   17  O   UNL     1      -2.842   5.256 -32.199  1.00  0.00    -0.354 OA
HETATM   18  C   UNL     1      -2.619   4.071 -32.957  1.00  0.00     0.210 C 
ENDBRANCH  12  17
ENDBRANCH   9  11
ENDBRANCH   7   9
ENDBRANCH   5   7
ENDBRANCH   1   5
BRANCH   2  19
HETATM   19  C   UNL     1      -7.473   3.599 -32.059  1.00  0.00     0.082 C 
HETATM   20  C   UNL     1      -8.296   2.335 -31.765  1.00  0.00     0.042 C 
HETATM   21  C   UNL     1      -7.398   1.134 -31.472  1.00  0.00     0.236 C 
HETATM   22  N   UNL     1      -6.450   0.893 -32.629  1.00  0.00    -0.067 N 
HETATM   23  H   UNL     1      -7.019   0.563 -33.417  1.00  0.00     0.280 HD
HETATM   24  C   UNL     1      -5.682   2.112 -33.067  1.00  0.00     0.236 C 
HETATM   25  C   UNL     1      -6.593   3.311 -33.276  1.00  0.00     0.042 C 
BRANCH  22  26
HETATM   26  C   UNL     1      -5.459  -0.225 -32.320  1.00  0.00     0.273 C 
BRANCH  26  27
HETATM   27  C   UNL     1      -5.528  -1.390 -33.266  1.00  0.00    -0.033 A 
HETATM   28  C   UNL     1      -6.729  -1.728 -33.904  1.00  0.00     0.009 A 
HETATM   29  C   UNL     1      -6.779  -2.816 -34.778  1.00  0.00     0.001 A 
HETATM   30  C   UNL     1      -5.635  -3.573 -35.019  1.00  0.00     0.000 A 
HETATM   31  C   UNL     1      -4.437  -3.246 -34.390  1.00  0.00     0.001 A 
HETATM   32  C   UNL     1      -4.380  -2.161 -33.517  1.00  0.00     0.009 A 
ENDBRANCH  26  27
ENDBRANCH  22  26
ENDBRANCH   2  19
TORSDOF 8
ENDMDL
