MODEL 1
REMARK VINA RESULT:      -8.7      0.000      0.000
REMARK  9 active torsions:
REMARK  status: ('A' for Active; 'I' for Inactive)
REMARK    1  A    between atoms: C_4  and  C_5 
REMARK    2  A    between atoms: C_7  and  O_8 
REMARK    3  A    between atoms: C_10  and  O_11 
REMARK    4  A    between atoms: C_16  and  C_17 
REMARK    5  A    between atoms: C_20  and  C_21 
REMARK    6  A    between atoms: C_21  and  N_22 
REMARK    7  A    between atoms: N_22  and  C_23 
REMARK    8  A    between atoms: C_23  and  N_24 
REMARK    9  A    between atoms: N_24  and  C_25 
ROOT
HETATM    1  C   UNL     1      -5.034   4.480 -33.269  1.00  0.00     0.035 A 
HETATM    2  C   UNL     1      -4.208   5.549 -33.617  1.00  0.00     0.052 A 
HETATM    3  C   UNL     1      -2.829   5.504 -33.370  1.00  0.00     0.046 A 
HETATM    4  C   UNL     1      -2.031   6.643 -33.714  1.00  0.00     0.099 C 
HETATM    5  N   UNL     1      -1.469   7.619 -33.992  1.00  0.00    -0.191 NA
HETATM    6  C   UNL     1      -2.264   4.367 -32.796  1.00  0.00     0.023 A 
HETATM    7  C   UNL     1      -3.077   3.277 -32.481  1.00  0.00     0.004 A 
HETATM    8  C   UNL     1      -4.454   3.332 -32.723  1.00  0.00     0.029 A 
ENDROOT
BRANCH   1   9
HETATM    9  N   UNL     1      -6.425   4.471 -33.511  1.00  0.00    -0.333 N 
HETATM   10  H   UNL     1      -6.730   3.908 -34.303  1.00  0.00     0.168 HD
BRANCH   9  11
HETATM   11  C   UNL     1      -7.421   5.239 -32.970  1.00  0.00     0.172 C 
HETATM   12  S   UNL     1      -7.534   5.353 -31.311  1.00  0.00    -0.041 SA
BRANCH  11  13
HETATM   13  N   UNL     1      -8.223   5.905 -33.864  1.00  0.00    -0.365 N 
HETATM   14  H   UNL     1      -7.701   6.214 -34.679  1.00  0.00     0.161 HD
BRANCH  13  15
HETATM   15  C   UNL     1      -9.453   6.615 -33.520  1.00  0.00     0.155 C 
BRANCH  15  16
HETATM   16  C   UNL     1     -10.689   6.115 -34.296  1.00  0.00     0.206 C 
HETATM   17  C   UNL     1     -10.446   4.882 -35.181  1.00  0.00     0.040 C 
HETATM   18  C   UNL     1     -11.641   3.902 -35.102  1.00  0.00     0.001 C 
HETATM   19  C   UNL     1     -11.754   3.288 -33.682  1.00  0.00     0.067 C 
HETATM   20  C   UNL     1     -12.928   4.727 -35.336  1.00  0.00     0.033 C 
HETATM   21  C   UNL     1     -11.642   4.432 -32.649  1.00  0.00     0.246 C 
HETATM   22  N   UNL     1     -11.856   5.771 -33.366  1.00  0.00    -0.065 N 
HETATM   23  C   UNL     1     -13.141   5.719 -34.184  1.00  0.00     0.236 C 
HETATM   24  H   UNL     1     -11.953   6.510 -32.656  1.00  0.00     0.280 HD
BRANCH  19  25
HETATM   25  C   UNL     1     -10.803   2.160 -33.400  1.00  0.00     0.038 A 
HETATM   26  N   UNL     1     -11.194   0.840 -33.338  1.00  0.00    -0.277 N 
HETATM   27  C   UNL     1     -12.509   0.286 -33.574  1.00  0.00     0.179 C 
HETATM   28  N   UNL     1     -10.201  -0.003 -33.038  1.00  0.00    -0.172 NA
HETATM   29  C   UNL     1      -9.099   0.754 -32.971  1.00  0.00     0.089 A 
HETATM   30  C   UNL     1      -9.433   2.114 -33.204  1.00  0.00     0.061 A 
BRANCH  29  31
HETATM   31  C   UNL     1      -7.779   0.177 -32.706  1.00  0.00    -0.003 A 
HETATM   32  C   UNL     1      -7.213  -0.736 -33.608  1.00  0.00     0.053 A 
HETATM   33  C   UNL     1      -5.943  -1.281 -33.380  1.00  0.00     0.102 A 
HETATM   34  C   UNL     1      -5.230  -0.924 -32.218  1.00  0.00     0.101 A 
HETATM   35  C   UNL     1      -5.796  -0.022 -31.314  1.00  0.00     0.040 A 
HETATM   36  C   UNL     1      -7.059   0.528 -31.558  1.00  0.00     0.017 A 
BRANCH  33  37
HETATM   37  O   UNL     1      -5.318  -2.169 -34.220  1.00  0.00    -0.353 OA
HETATM   38  C   UNL     1      -6.114  -3.180 -34.823  1.00  0.00     0.210 C 
ENDBRANCH  33  37
BRANCH  34  39
HETATM   39  O   UNL     1      -3.996  -1.505 -32.066  1.00  0.00    -0.353 OA
HETATM   40  C   UNL     1      -2.928  -0.687 -31.614  1.00  0.00     0.210 C 
ENDBRANCH  34  39
ENDBRANCH  29  31
ENDBRANCH  19  25
ENDBRANCH  15  16
ENDBRANCH  13  15
ENDBRANCH  11  13
ENDBRANCH   9  11
ENDBRANCH   1   9
TORSDOF 9
ENDMDL
MODEL 2
REMARK VINA RESULT:      -8.5      2.448      3.782
REMARK  9 active torsions:
REMARK  status: ('A' for Active; 'I' for Inactive)
REMARK    1  A    between atoms: C_4  and  C_5 
REMARK    2  A    between atoms: C_7  and  O_8 
REMARK    3  A    between atoms: C_10  and  O_11 
REMARK    4  A    between atoms: C_16  and  C_17 
REMARK    5  A    between atoms: C_20  and  C_21 
REMARK    6  A    between atoms: C_21  and  N_22 
REMARK    7  A    between atoms: N_22  and  C_23 
REMARK    8  A    between atoms: C_23  and  N_24 
REMARK    9  A    between atoms: N_24  and  C_25 
ROOT
HETATM    1  C   UNL     1      -2.531   5.907 -30.848  1.00  0.00     0.035 A 
HETATM    2  C   UNL     1      -3.299   5.724 -31.999  1.00  0.00     0.052 A 
HETATM    3  C   UNL     1      -2.697   5.402 -33.222  1.00  0.00     0.046 A 
HETATM    4  C   UNL     1      -3.527   5.261 -34.381  1.00  0.00     0.099 C 
HETATM    5  N   UNL     1      -4.268   5.199 -35.271  1.00  0.00    -0.191 NA
HETATM    6  C   UNL     1      -1.315   5.231 -33.293  1.00  0.00     0.023 A 
HETATM    7  C   UNL     1      -0.544   5.373 -32.138  1.00  0.00     0.004 A 
HETATM    8  C   UNL     1      -1.151   5.702 -30.921  1.00  0.00     0.029 A 
ENDROOT
BRANCH   1   9
HETATM    9  N   UNL     1      -3.091   6.218 -29.590  1.00  0.00    -0.333 N 
HETATM   10  H   UNL     1      -2.507   6.003 -28.784  1.00  0.00     0.168 HD
BRANCH   9  11
HETATM   11  C   UNL     1      -4.365   6.593 -29.257  1.00  0.00     0.172 C 
HETATM   12  S   UNL     1      -4.840   8.165 -29.547  1.00  0.00    -0.041 SA
BRANCH  11  13
HETATM   13  N   UNL     1      -5.174   5.604 -28.754  1.00  0.00    -0.365 N 
HETATM   14  H   UNL     1      -4.898   5.335 -27.814  1.00  0.00     0.161 HD
BRANCH  13  15
HETATM   15  C   UNL     1      -5.919   4.639 -29.558  1.00  0.00     0.155 C 
BRANCH  15  16
HETATM   16  C   UNL     1      -7.088   5.267 -30.345  1.00  0.00     0.206 C 
HETATM   17  C   UNL     1      -7.090   4.972 -31.854  1.00  0.00     0.040 C 
HETATM   18  C   UNL     1      -8.525   4.699 -32.362  1.00  0.00     0.001 C 
HETATM   19  C   UNL     1      -9.081   3.384 -31.754  1.00  0.00     0.067 C 
HETATM   20  C   UNL     1      -9.423   5.845 -31.840  1.00  0.00     0.033 C 
HETATM   21  C   UNL     1      -8.804   3.397 -30.233  1.00  0.00     0.246 C 
HETATM   22  N   UNL     1      -8.451   4.827 -29.805  1.00  0.00    -0.065 N 
HETATM   23  C   UNL     1      -9.518   5.793 -30.309  1.00  0.00     0.236 C 
HETATM   24  H   UNL     1      -8.438   4.866 -28.776  1.00  0.00     0.280 HD
BRANCH  19  25
HETATM   25  C   UNL     1      -8.600   2.125 -32.418  1.00  0.00     0.038 A 
HETATM   26  N   UNL     1      -9.364   1.404 -33.311  1.00  0.00    -0.277 N 
HETATM   27  C   UNL     1     -10.683   1.716 -33.814  1.00  0.00     0.179 C 
HETATM   28  N   UNL     1      -8.765   0.295 -33.759  1.00  0.00    -0.172 NA
HETATM   29  C   UNL     1      -7.541   0.307 -33.217  1.00  0.00     0.089 A 
HETATM   30  C   UNL     1      -7.395   1.445 -32.380  1.00  0.00     0.061 A 
BRANCH  29  31
HETATM   31  C   UNL     1      -6.554  -0.734 -33.511  1.00  0.00    -0.003 A 
HETATM   32  C   UNL     1      -5.433  -0.899 -32.684  1.00  0.00     0.053 A 
HETATM   33  C   UNL     1      -4.490  -1.902 -32.939  1.00  0.00     0.102 A 
HETATM   34  C   UNL     1      -4.657  -2.748 -34.054  1.00  0.00     0.101 A 
HETATM   35  C   UNL     1      -5.769  -2.580 -34.885  1.00  0.00     0.040 A 
HETATM   36  C   UNL     1      -6.712  -1.583 -34.612  1.00  0.00     0.017 A 
BRANCH  33  37
HETATM   37  O   UNL     1      -3.376  -2.134 -32.171  1.00  0.00    -0.353 OA
HETATM   38  C   UNL     1      -2.531  -1.028 -31.885  1.00  0.00     0.210 C 
ENDBRANCH  33  37
BRANCH  34  39
HETATM   39  O   UNL     1      -3.688  -3.702 -34.238  1.00  0.00    -0.353 OA
HETATM   40  C   UNL     1      -3.992  -5.038 -33.866  1.00  0.00     0.210 C 
ENDBRANCH  34  39
ENDBRANCH  29  31
ENDBRANCH  19  25
ENDBRANCH  15  16
ENDBRANCH  13  15
ENDBRANCH  11  13
ENDBRANCH   9  11
ENDBRANCH   1   9
TORSDOF 9
ENDMDL
MODEL 3
REMARK VINA RESULT:      -8.4      2.102      3.218
REMARK  9 active torsions:
REMARK  status: ('A' for Active; 'I' for Inactive)
REMARK    1  A    between atoms: C_4  and  C_5 
REMARK    2  A    between atoms: C_7  and  O_8 
REMARK    3  A    between atoms: C_10  and  O_11 
REMARK    4  A    between atoms: C_16  and  C_17 
REMARK    5  A    between atoms: C_20  and  C_21 
REMARK    6  A    between atoms: C_21  and  N_22 
REMARK    7  A    between atoms: N_22  and  C_23 
REMARK    8  A    between atoms: C_23  and  N_24 
REMARK    9  A    between atoms: N_24  and  C_25 
ROOT
HETATM    1  C   UNL     1      -2.745   4.476 -32.657  1.00  0.00     0.035 A 
HETATM    2  C   UNL     1      -1.950   5.085 -31.685  1.00  0.00     0.052 A 
HETATM    3  C   UNL     1      -0.963   6.014 -32.040  1.00  0.00     0.046 A 
HETATM    4  C   UNL     1      -0.150   6.583 -31.007  1.00  0.00     0.099 C 
HETATM    5  N   UNL     1       0.482   6.967 -30.113  1.00  0.00    -0.191 NA
HETATM    6  C   UNL     1      -0.786   6.363 -33.378  1.00  0.00     0.023 A 
HETATM    7  C   UNL     1      -1.603   5.789 -34.353  1.00  0.00     0.004 A 
HETATM    8  C   UNL     1      -2.582   4.855 -33.992  1.00  0.00     0.029 A 
ENDROOT
BRANCH   1   9
HETATM    9  N   UNL     1      -3.761   3.546 -32.350  1.00  0.00    -0.333 N 
HETATM   10  H   UNL     1      -3.736   2.677 -32.879  1.00  0.00     0.168 HD
BRANCH   9  11
HETATM   11  C   UNL     1      -4.889   3.689 -31.587  1.00  0.00     0.172 C 
HETATM   12  S   UNL     1      -5.123   2.655 -30.300  1.00  0.00    -0.041 SA
BRANCH  11  13
HETATM   13  N   UNL     1      -5.719   4.730 -31.924  1.00  0.00    -0.365 N 
HETATM   14  H   UNL     1      -5.464   5.139 -32.818  1.00  0.00     0.161 HD
BRANCH  13  15
HETATM   15  C   UNL     1      -6.460   5.555 -30.972  1.00  0.00     0.155 C 
BRANCH  15  16
HETATM   16  C   UNL     1      -7.952   5.717 -31.331  1.00  0.00     0.206 C 
HETATM   17  C   UNL     1      -8.366   5.110 -32.682  1.00  0.00     0.040 C 
HETATM   18  C   UNL     1      -9.745   4.417 -32.576  1.00  0.00     0.001 C 
HETATM   19  C   UNL     1      -9.664   3.174 -31.651  1.00  0.00     0.067 C 
HETATM   20  C   UNL     1     -10.710   5.416 -31.897  1.00  0.00     0.033 C 
HETATM   21  C   UNL     1      -8.917   3.578 -30.359  1.00  0.00     0.246 C 
HETATM   22  N   UNL     1      -8.872   5.109 -30.270  1.00  0.00    -0.065 N 
HETATM   23  C   UNL     1     -10.275   5.676 -30.448  1.00  0.00     0.236 C 
HETATM   24  H   UNL     1      -8.531   5.371 -29.335  1.00  0.00     0.280 HD
BRANCH  19  25
HETATM   25  C   UNL     1      -9.087   1.943 -32.290  1.00  0.00     0.038 A 
HETATM   26  N   UNL     1      -9.811   1.116 -33.123  1.00  0.00    -0.277 N 
HETATM   27  C   UNL     1     -11.174   1.276 -33.577  1.00  0.00     0.179 C 
HETATM   28  N   UNL     1      -9.123   0.054 -33.557  1.00  0.00    -0.172 NA
HETATM   29  C   UNL     1      -7.885   0.207 -33.071  1.00  0.00     0.089 A 
HETATM   30  C   UNL     1      -7.820   1.386 -32.282  1.00  0.00     0.061 A 
BRANCH  29  31
HETATM   31  C   UNL     1      -6.812  -0.743 -33.372  1.00  0.00    -0.003 A 
HETATM   32  C   UNL     1      -5.641  -0.751 -32.601  1.00  0.00     0.053 A 
HETATM   33  C   UNL     1      -4.613  -1.667 -32.862  1.00  0.00     0.102 A 
HETATM   34  C   UNL     1      -4.747  -2.580 -33.926  1.00  0.00     0.101 A 
HETATM   35  C   UNL     1      -5.910  -2.567 -34.701  1.00  0.00     0.040 A 
HETATM   36  C   UNL     1      -6.937  -1.658 -34.423  1.00  0.00     0.017 A 
BRANCH  33  37
HETATM   37  O   UNL     1      -3.443  -1.746 -32.146  1.00  0.00    -0.353 OA
HETATM   38  C   UNL     1      -2.871  -0.531 -31.683  1.00  0.00     0.210 C 
ENDBRANCH  33  37
BRANCH  34  39
HETATM   39  O   UNL     1      -3.696  -3.440 -34.120  1.00  0.00    -0.353 OA
HETATM   40  C   UNL     1      -3.898  -4.814 -33.828  1.00  0.00     0.210 C 
ENDBRANCH  34  39
ENDBRANCH  29  31
ENDBRANCH  19  25
ENDBRANCH  15  16
ENDBRANCH  13  15
ENDBRANCH  11  13
ENDBRANCH   9  11
ENDBRANCH   1   9
TORSDOF 9
ENDMDL
MODEL 4
REMARK VINA RESULT:      -8.3      0.951      1.719
REMARK  9 active torsions:
REMARK  status: ('A' for Active; 'I' for Inactive)
REMARK    1  A    between atoms: C_4  and  C_5 
REMARK    2  A    between atoms: C_7  and  O_8 
REMARK    3  A    between atoms: C_10  and  O_11 
REMARK    4  A    between atoms: C_16  and  C_17 
REMARK    5  A    between atoms: C_20  and  C_21 
REMARK    6  A    between atoms: C_21  and  N_22 
REMARK    7  A    between atoms: N_22  and  C_23 
REMARK    8  A    between atoms: C_23  and  N_24 
REMARK    9  A    between atoms: N_24  and  C_25 
ROOT
HETATM    1  C   UNL     1      -5.291   4.640 -33.498  1.00  0.00     0.035 A 
HETATM    2  C   UNL     1      -4.348   5.622 -33.807  1.00  0.00     0.052 A 
HETATM    3  C   UNL     1      -2.989   5.429 -33.530  1.00  0.00     0.046 A 
HETATM    4  C   UNL     1      -2.068   6.483 -33.835  1.00  0.00     0.099 C 
HETATM    5  N   UNL     1      -1.400   7.399 -34.082  1.00  0.00    -0.191 NA
HETATM    6  C   UNL     1      -2.559   4.229 -32.965  1.00  0.00     0.023 A 
HETATM    7  C   UNL     1      -3.489   3.226 -32.689  1.00  0.00     0.004 A 
HETATM    8  C   UNL     1      -4.847   3.429 -32.961  1.00  0.00     0.029 A 
ENDROOT
BRANCH   1   9
HETATM    9  N   UNL     1      -6.669   4.781 -33.769  1.00  0.00    -0.333 N 
HETATM   10  H   UNL     1      -6.979   4.411 -34.665  1.00  0.00     0.168 HD
BRANCH   9  11
HETATM   11  C   UNL     1      -7.631   5.497 -33.110  1.00  0.00     0.172 C 
HETATM   12  S   UNL     1      -7.566   5.584 -31.446  1.00  0.00    -0.041 SA
BRANCH  11  13
HETATM   13  N   UNL     1      -8.554   6.139 -33.898  1.00  0.00    -0.365 N 
HETATM   14  H   UNL     1      -8.216   6.261 -34.849  1.00  0.00     0.161 HD
BRANCH  13  15
HETATM   15  C   UNL     1      -9.586   7.050 -33.409  1.00  0.00     0.155 C 
BRANCH  15  16
HETATM   16  C   UNL     1     -10.993   6.737 -33.960  1.00  0.00     0.206 C 
HETATM   17  C   UNL     1     -11.044   5.623 -35.019  1.00  0.00     0.040 C 
HETATM   18  C   UNL     1     -12.280   4.717 -34.808  1.00  0.00     0.001 C 
HETATM   19  C   UNL     1     -12.158   3.924 -33.480  1.00  0.00     0.067 C 
HETATM   20  C   UNL     1     -13.509   5.644 -34.662  1.00  0.00     0.033 C 
HETATM   21  C   UNL     1     -11.739   4.908 -32.364  1.00  0.00     0.246 C 
HETATM   22  N   UNL     1     -11.973   6.342 -32.853  1.00  0.00    -0.065 N 
HETATM   23  C   UNL     1     -13.397   6.480 -33.380  1.00  0.00     0.236 C 
HETATM   24  H   UNL     1     -11.859   6.982 -32.054  1.00  0.00     0.280 HD
BRANCH  19  25
HETATM   25  C   UNL     1     -11.272   2.712 -33.543  1.00  0.00     0.038 A 
HETATM   26  N   UNL     1     -11.759   1.422 -33.563  1.00  0.00    -0.277 N 
HETATM   27  C   UNL     1     -13.138   0.987 -33.584  1.00  0.00     0.179 C 
HETATM   28  N   UNL     1     -10.804   0.486 -33.583  1.00  0.00    -0.172 NA
HETATM   29  C   UNL     1      -9.648   1.158 -33.657  1.00  0.00     0.089 A 
HETATM   30  C   UNL     1      -9.901   2.555 -33.647  1.00  0.00     0.061 A 
BRANCH  29  31
HETATM   31  C   UNL     1      -8.358   0.471 -33.747  1.00  0.00    -0.003 A 
HETATM   32  C   UNL     1      -7.562   0.311 -32.604  1.00  0.00     0.053 A 
HETATM   33  C   UNL     1      -6.334  -0.361 -32.668  1.00  0.00     0.102 A 
HETATM   34  C   UNL     1      -5.882  -0.868 -33.903  1.00  0.00     0.101 A 
HETATM   35  C   UNL     1      -6.670  -0.702 -35.045  1.00  0.00     0.040 A 
HETATM   36  C   UNL     1      -7.900  -0.041 -34.967  1.00  0.00     0.017 A 
BRANCH  33  37
HETATM   37  O   UNL     1      -5.505  -0.568 -31.593  1.00  0.00    -0.353 OA
HETATM   38  C   UNL     1      -5.521   0.400 -30.553  1.00  0.00     0.210 C 
ENDBRANCH  33  37
BRANCH  34  39
HETATM   39  O   UNL     1      -4.668  -1.509 -33.883  1.00  0.00    -0.353 OA
HETATM   40  C   UNL     1      -4.623  -2.860 -34.315  1.00  0.00     0.210 C 
ENDBRANCH  34  39
ENDBRANCH  29  31
ENDBRANCH  19  25
ENDBRANCH  15  16
ENDBRANCH  13  15
ENDBRANCH  11  13
ENDBRANCH   9  11
ENDBRANCH   1   9
TORSDOF 9
ENDMDL
MODEL 5
REMARK VINA RESULT:      -8.2      2.668      3.867
REMARK  9 active torsions:
REMARK  status: ('A' for Active; 'I' for Inactive)
REMARK    1  A    between atoms: C_4  and  C_5 
REMARK    2  A    between atoms: C_7  and  O_8 
REMARK    3  A    between atoms: C_10  and  O_11 
REMARK    4  A    between atoms: C_16  and  C_17 
REMARK    5  A    between atoms: C_20  and  C_21 
REMARK    6  A    between atoms: C_21  and  N_22 
REMARK    7  A    between atoms: N_22  and  C_23 
REMARK    8  A    between atoms: C_23  and  N_24 
REMARK    9  A    between atoms: N_24  and  C_25 
ROOT
HETATM    1  C   UNL     1      -1.732   5.842 -31.487  1.00  0.00     0.035 A 
HETATM    2  C   UNL     1      -1.927   6.933 -30.638  1.00  0.00     0.052 A 
HETATM    3  C   UNL     1      -0.875   7.445 -29.868  1.00  0.00     0.046 A 
HETATM    4  C   UNL     1      -1.138   8.542 -28.986  1.00  0.00     0.099 C 
HETATM    5  N   UNL     1      -1.447   9.406 -28.277  1.00  0.00    -0.191 NA
HETATM    6  C   UNL     1       0.397   6.881 -29.968  1.00  0.00     0.023 A 
HETATM    7  C   UNL     1       0.611   5.816 -30.844  1.00  0.00     0.004 A 
HETATM    8  C   UNL     1      -0.447   5.305 -31.604  1.00  0.00     0.029 A 
ENDROOT
BRANCH   1   9
HETATM    9  N   UNL     1      -2.755   5.300 -32.293  1.00  0.00    -0.333 N 
HETATM   10  H   UNL     1      -2.793   5.648 -33.249  1.00  0.00     0.168 HD
BRANCH   9  11
HETATM   11  C   UNL     1      -3.825   4.516 -31.954  1.00  0.00     0.172 C 
HETATM   12  S   UNL     1      -3.553   2.924 -31.538  1.00  0.00    -0.041 SA
BRANCH  11  13
HETATM   13  N   UNL     1      -5.049   5.139 -31.934  1.00  0.00    -0.365 N 
HETATM   14  H   UNL     1      -5.116   5.858 -32.649  1.00  0.00     0.161 HD
BRANCH  13  15
HETATM   15  C   UNL     1      -5.919   5.242 -30.765  1.00  0.00     0.155 C 
BRANCH  15  16
HETATM   16  C   UNL     1      -7.394   5.525 -31.120  1.00  0.00     0.206 C 
HETATM   17  C   UNL     1      -7.844   5.002 -32.494  1.00  0.00     0.040 C 
HETATM   18  C   UNL     1      -9.269   4.405 -32.418  1.00  0.00     0.001 C 
HETATM   19  C   UNL     1      -9.280   3.124 -31.542  1.00  0.00     0.067 C 
HETATM   20  C   UNL     1     -10.164   5.443 -31.701  1.00  0.00     0.033 C 
HETATM   21  C   UNL     1      -8.512   3.423 -30.235  1.00  0.00     0.246 C 
HETATM   22  N   UNL     1      -8.359   4.942 -30.085  1.00  0.00    -0.065 N 
HETATM   23  C   UNL     1      -9.718   5.614 -30.242  1.00  0.00     0.236 C 
HETATM   24  H   UNL     1      -8.005   5.142 -29.139  1.00  0.00     0.280 HD
BRANCH  19  25
HETATM   25  C   UNL     1      -8.790   1.881 -32.230  1.00  0.00     0.038 A 
HETATM   26  N   UNL     1      -9.585   1.107 -33.048  1.00  0.00    -0.277 N 
HETATM   27  C   UNL     1     -10.957   1.342 -33.442  1.00  0.00     0.179 C 
HETATM   28  N   UNL     1      -8.967   0.024 -33.531  1.00  0.00    -0.172 NA
HETATM   29  C   UNL     1      -7.705   0.108 -33.093  1.00  0.00     0.089 A 
HETATM   30  C   UNL     1      -7.552   1.266 -32.284  1.00  0.00     0.061 A 
BRANCH  29  31
HETATM   31  C   UNL     1      -6.692  -0.884 -33.457  1.00  0.00    -0.003 A 
HETATM   32  C   UNL     1      -5.444  -0.886 -32.817  1.00  0.00     0.053 A 
HETATM   33  C   UNL     1      -4.471  -1.841 -33.138  1.00  0.00     0.102 A 
HETATM   34  C   UNL     1      -4.740  -2.803 -34.132  1.00  0.00     0.101 A 
HETATM   35  C   UNL     1      -5.979  -2.796 -34.778  1.00  0.00     0.040 A 
HETATM   36  C   UNL     1      -6.949  -1.847 -34.440  1.00  0.00     0.017 A 
BRANCH  33  37
HETATM   37  O   UNL     1      -3.233  -1.916 -32.548  1.00  0.00    -0.353 OA
HETATM   38  C   UNL     1      -2.842  -0.848 -31.698  1.00  0.00     0.210 C 
ENDBRANCH  33  37
BRANCH  34  39
HETATM   39  O   UNL     1      -3.734  -3.700 -34.392  1.00  0.00    -0.353 OA
HETATM   40  C   UNL     1      -3.698  -4.897 -33.631  1.00  0.00     0.210 C 
ENDBRANCH  34  39
ENDBRANCH  29  31
ENDBRANCH  19  25
ENDBRANCH  15  16
ENDBRANCH  13  15
ENDBRANCH  11  13
ENDBRANCH   9  11
ENDBRANCH   1   9
TORSDOF 9
ENDMDL
MODEL 6
REMARK VINA RESULT:      -8.1      4.029      7.040
REMARK  9 active torsions:
REMARK  status: ('A' for Active; 'I' for Inactive)
REMARK    1  A    between atoms: C_4  and  C_5 
REMARK    2  A    between atoms: C_7  and  O_8 
REMARK    3  A    between atoms: C_10  and  O_11 
REMARK    4  A    between atoms: C_16  and  C_17 
REMARK    5  A    between atoms: C_20  and  C_21 
REMARK    6  A    between atoms: C_21  and  N_22 
REMARK    7  A    between atoms: N_22  and  C_23 
REMARK    8  A    between atoms: C_23  and  N_24 
REMARK    9  A    between atoms: N_24  and  C_25 
ROOT
HETATM    1  C   UNL     1      -7.839   5.243 -33.510  1.00  0.00     0.035 A 
HETATM    2  C   UNL     1      -7.791   6.409 -32.745  1.00  0.00     0.052 A 
HETATM    3  C   UNL     1      -6.569   6.923 -32.290  1.00  0.00     0.046 A 
HETATM    4  C   UNL     1      -6.579   8.103 -31.478  1.00  0.00     0.099 C 
HETATM    5  N   UNL     1      -6.682   9.038 -30.800  1.00  0.00    -0.191 NA
HETATM    6  C   UNL     1      -5.378   6.283 -32.628  1.00  0.00     0.023 A 
HETATM    7  C   UNL     1      -5.413   5.138 -33.427  1.00  0.00     0.004 A 
HETATM    8  C   UNL     1      -6.638   4.626 -33.871  1.00  0.00     0.029 A 
ENDROOT
BRANCH   1   9
HETATM    9  N   UNL     1      -9.042   4.694 -34.004  1.00  0.00    -0.333 N 
HETATM   10  H   UNL     1      -9.618   5.325 -34.557  1.00  0.00     0.168 HD
BRANCH   9  11
HETATM   11  C   UNL     1      -9.656   3.506 -33.712  1.00  0.00     0.172 C 
HETATM   12  S   UNL     1     -10.516   3.376 -32.290  1.00  0.00    -0.041 SA
BRANCH  11  13
HETATM   13  N   UNL     1      -9.552   2.522 -34.665  1.00  0.00    -0.365 N 
HETATM   14  H   UNL     1      -9.839   2.854 -35.581  1.00  0.00     0.161 HD
BRANCH  13  15
HETATM   15  C   UNL     1      -9.615   1.087 -34.398  1.00  0.00     0.155 C 
BRANCH  15  16
HETATM   16  C   UNL     1      -8.253   0.375 -34.535  1.00  0.00     0.206 C 
HETATM   17  C   UNL     1      -7.027   1.300 -34.465  1.00  0.00     0.040 C 
HETATM   18  C   UNL     1      -5.887   0.645 -33.649  1.00  0.00     0.001 C 
HETATM   19  C   UNL     1      -6.294   0.501 -32.159  1.00  0.00     0.067 C 
HETATM   20  C   UNL     1      -5.692  -0.787 -34.199  1.00  0.00     0.033 C 
HETATM   21  C   UNL     1      -7.714  -0.106 -32.100  1.00  0.00     0.246 C 
HETATM   22  N   UNL     1      -8.055  -0.706 -33.470  1.00  0.00    -0.065 N 
HETATM   23  C   UNL     1      -6.937  -1.640 -33.915  1.00  0.00     0.236 C 
HETATM   24  H   UNL     1      -8.921  -1.255 -33.379  1.00  0.00     0.280 HD
BRANCH  19  25
HETATM   25  C   UNL     1      -6.167   1.755 -31.342  1.00  0.00     0.038 A 
HETATM   26  N   UNL     1      -4.953   2.300 -30.979  1.00  0.00    -0.277 N 
HETATM   27  C   UNL     1      -3.627   1.844 -31.334  1.00  0.00     0.179 C 
HETATM   28  N   UNL     1      -5.060   3.396 -30.221  1.00  0.00    -0.172 NA
HETATM   29  C   UNL     1      -6.373   3.642 -30.133  1.00  0.00     0.089 A 
HETATM   30  C   UNL     1      -7.099   2.642 -30.833  1.00  0.00     0.061 A 
BRANCH  29  31
HETATM   31  C   UNL     1      -6.896   4.805 -29.412  1.00  0.00    -0.003 A 
HETATM   32  C   UNL     1      -6.043   5.586 -28.619  1.00  0.00     0.053 A 
HETATM   33  C   UNL     1      -6.522   6.713 -27.939  1.00  0.00     0.102 A 
HETATM   34  C   UNL     1      -7.885   7.057 -28.035  1.00  0.00     0.101 A 
HETATM   35  C   UNL     1      -8.739   6.274 -28.817  1.00  0.00     0.040 A 
HETATM   36  C   UNL     1      -8.247   5.159 -29.503  1.00  0.00     0.017 A 
BRANCH  33  37
HETATM   37  O   UNL     1      -5.749   7.534 -27.155  1.00  0.00    -0.353 OA
HETATM   38  C   UNL     1      -4.503   7.026 -26.697  1.00  0.00     0.210 C 
ENDBRANCH  33  37
BRANCH  34  39
HETATM   39  O   UNL     1      -8.277   8.171 -27.336  1.00  0.00    -0.353 OA
HETATM   40  C   UNL     1      -9.666   8.363 -27.115  1.00  0.00     0.210 C 
ENDBRANCH  34  39
ENDBRANCH  29  31
ENDBRANCH  19  25
ENDBRANCH  15  16
ENDBRANCH  13  15
ENDBRANCH  11  13
ENDBRANCH   9  11
ENDBRANCH   1   9
TORSDOF 9
ENDMDL
MODEL 7
REMARK VINA RESULT:      -8.0      4.533      9.262
REMARK  9 active torsions:
REMARK  status: ('A' for Active; 'I' for Inactive)
REMARK    1  A    between atoms: C_4  and  C_5 
REMARK    2  A    between atoms: C_7  and  O_8 
REMARK    3  A    between atoms: C_10  and  O_11 
REMARK    4  A    between atoms: C_16  and  C_17 
REMARK    5  A    between atoms: C_20  and  C_21 
REMARK    6  A    between atoms: C_21  and  N_22 
REMARK    7  A    between atoms: N_22  and  C_23 
REMARK    8  A    between atoms: C_23  and  N_24 
REMARK    9  A    between atoms: N_24  and  C_25 
ROOT
HETATM    1  C   UNL     1      -5.808   5.650 -29.166  1.00  0.00     0.035 A 
HETATM    2  C   UNL     1      -6.808   4.686 -29.297  1.00  0.00     0.052 A 
HETATM    3  C   UNL     1      -7.705   4.721 -30.372  1.00  0.00     0.046 A 
HETATM    4  C   UNL     1      -8.736   3.728 -30.441  1.00  0.00     0.099 C 
HETATM    5  N   UNL     1      -9.556   2.909 -30.399  1.00  0.00    -0.191 NA
HETATM    6  C   UNL     1      -7.585   5.712 -31.345  1.00  0.00     0.023 A 
HETATM    7  C   UNL     1      -6.563   6.657 -31.243  1.00  0.00     0.004 A 
HETATM    8  C   UNL     1      -5.675   6.621 -30.162  1.00  0.00     0.029 A 
ENDROOT
BRANCH   1   9
HETATM    9  N   UNL     1      -4.871   5.650 -28.109  1.00  0.00    -0.333 N 
HETATM   10  H   UNL     1      -4.572   4.732 -27.787  1.00  0.00     0.168 HD
BRANCH   9  11
HETATM   11  C   UNL     1      -4.431   6.677 -27.318  1.00  0.00     0.172 C 
HETATM   12  S   UNL     1      -5.430   7.991 -27.082  1.00  0.00    -0.041 SA
BRANCH  11  13
HETATM   13  N   UNL     1      -3.201   6.505 -26.733  1.00  0.00    -0.365 N 
HETATM   14  H   UNL     1      -3.010   5.526 -26.540  1.00  0.00     0.161 HD
BRANCH  13  15
HETATM   15  C   UNL     1      -2.499   7.515 -25.944  1.00  0.00     0.155 C 
BRANCH  15  16
HETATM   16  C   UNL     1      -1.022   7.695 -26.352  1.00  0.00     0.206 C 
HETATM   17  C   UNL     1      -0.361   6.452 -26.968  1.00  0.00     0.040 C 
HETATM   18  C   UNL     1       0.555   6.844 -28.152  1.00  0.00     0.001 C 
HETATM   19  C   UNL     1      -0.283   7.408 -29.330  1.00  0.00     0.067 C 
HETATM   20  C   UNL     1       1.469   7.993 -27.665  1.00  0.00     0.033 C 
HETATM   21  C   UNL     1      -1.277   8.446 -28.765  1.00  0.00     0.246 C 
HETATM   22  N   UNL     1      -0.833   8.840 -27.350  1.00  0.00    -0.065 N 
HETATM   23  C   UNL     1       0.635   9.246 -27.366  1.00  0.00     0.236 C 
HETATM   24  H   UNL     1      -1.391   9.651 -27.047  1.00  0.00     0.280 HD
BRANCH  19  25
HETATM   25  C   UNL     1      -0.954   6.371 -30.185  1.00  0.00     0.038 A 
HETATM   26  N   UNL     1      -0.275   5.329 -30.782  1.00  0.00    -0.277 N 
HETATM   27  C   UNL     1       1.129   4.999 -30.672  1.00  0.00     0.179 C 
HETATM   28  N   UNL     1      -1.052   4.540 -31.531  1.00  0.00    -0.172 NA
HETATM   29  C   UNL     1      -2.295   5.010 -31.376  1.00  0.00     0.089 A 
HETATM   30  C   UNL     1      -2.276   6.151 -30.529  1.00  0.00     0.061 A 
BRANCH  29  31
HETATM   31  C   UNL     1      -3.449   4.372 -32.011  1.00  0.00    -0.003 A 
HETATM   32  C   UNL     1      -4.055   3.255 -31.416  1.00  0.00     0.053 A 
HETATM   33  C   UNL     1      -5.172   2.645 -32.000  1.00  0.00     0.102 A 
HETATM   34  C   UNL     1      -5.685   3.146 -33.213  1.00  0.00     0.101 A 
HETATM   35  C   UNL     1      -5.077   4.252 -33.813  1.00  0.00     0.040 A 
HETATM   36  C   UNL     1      -3.970   4.863 -33.214  1.00  0.00     0.017 A 
BRANCH  33  37
HETATM   37  O   UNL     1      -5.827   1.558 -31.474  1.00  0.00    -0.353 OA
HETATM   38  C   UNL     1      -5.617   1.265 -30.099  1.00  0.00     0.210 C 
ENDBRANCH  33  37
BRANCH  34  39
HETATM   39  O   UNL     1      -6.777   2.490 -33.723  1.00  0.00    -0.353 OA
HETATM   40  C   UNL     1      -7.961   3.241 -33.942  1.00  0.00     0.210 C 
ENDBRANCH  34  39
ENDBRANCH  29  31
ENDBRANCH  19  25
ENDBRANCH  15  16
ENDBRANCH  13  15
ENDBRANCH  11  13
ENDBRANCH   9  11
ENDBRANCH   1   9
TORSDOF 9
ENDMDL
MODEL 8
REMARK VINA RESULT:      -8.0      1.690      2.067
REMARK  9 active torsions:
REMARK  status: ('A' for Active; 'I' for Inactive)
REMARK    1  A    between atoms: C_4  and  C_5 
REMARK    2  A    between atoms: C_7  and  O_8 
REMARK    3  A    between atoms: C_10  and  O_11 
REMARK    4  A    between atoms: C_16  and  C_17 
REMARK    5  A    between atoms: C_20  and  C_21 
REMARK    6  A    between atoms: C_21  and  N_22 
REMARK    7  A    between atoms: N_22  and  C_23 
REMARK    8  A    between atoms: C_23  and  N_24 
REMARK    9  A    between atoms: N_24  and  C_25 
ROOT
HETATM    1  C   UNL     1      -4.233   4.574 -31.139  1.00  0.00     0.035 A 
HETATM    2  C   UNL     1      -3.656   5.737 -31.649  1.00  0.00     0.052 A 
HETATM    3  C   UNL     1      -2.862   5.701 -32.804  1.00  0.00     0.046 A 
HETATM    4  C   UNL     1      -2.263   6.918 -33.265  1.00  0.00     0.099 C 
HETATM    5  N   UNL     1      -1.792   7.940 -33.547  1.00  0.00    -0.191 NA
HETATM    6  C   UNL     1      -2.667   4.495 -33.475  1.00  0.00     0.023 A 
HETATM    7  C   UNL     1      -3.273   3.334 -32.994  1.00  0.00     0.004 A 
HETATM    8  C   UNL     1      -4.058   3.376 -31.836  1.00  0.00     0.029 A 
ENDROOT
BRANCH   1   9
HETATM    9  N   UNL     1      -5.052   4.560 -29.989  1.00  0.00    -0.333 N 
HETATM   10  H   UNL     1      -4.775   3.905 -29.261  1.00  0.00     0.168 HD
BRANCH   9  11
HETATM   11  C   UNL     1      -6.266   5.150 -29.761  1.00  0.00     0.172 C 
HETATM   12  S   UNL     1      -6.632   5.661 -28.216  1.00  0.00    -0.041 SA
BRANCH  11  13
HETATM   13  N   UNL     1      -7.070   5.322 -30.861  1.00  0.00    -0.365 N 
HETATM   14  H   UNL     1      -6.659   4.914 -31.695  1.00  0.00     0.161 HD
BRANCH  13  15
HETATM   15  C   UNL     1      -8.046   6.397 -31.026  1.00  0.00     0.155 C 
BRANCH  15  16
HETATM   16  C   UNL     1      -8.727   6.401 -32.411  1.00  0.00     0.206 C 
HETATM   17  C   UNL     1      -8.018   5.562 -33.486  1.00  0.00     0.040 C 
HETATM   18  C   UNL     1      -9.045   4.804 -34.361  1.00  0.00     0.001 C 
HETATM   19  C   UNL     1      -9.791   3.731 -33.524  1.00  0.00     0.067 C 
HETATM   20  C   UNL     1     -10.106   5.832 -34.818  1.00  0.00     0.033 C 
HETATM   21  C   UNL     1     -10.256   4.384 -32.202  1.00  0.00     0.246 C 
HETATM   22  N   UNL     1     -10.174   5.909 -32.346  1.00  0.00    -0.065 N 
HETATM   23  C   UNL     1     -10.903   6.346 -33.611  1.00  0.00     0.236 C 
HETATM   24  H   UNL     1     -10.643   6.338 -31.536  1.00  0.00     0.280 HD
BRANCH  19  25
HETATM   25  C   UNL     1      -9.030   2.456 -33.302  1.00  0.00     0.038 A 
HETATM   26  N   UNL     1      -9.625   1.212 -33.302  1.00  0.00    -0.277 N 
HETATM   27  C   UNL     1     -11.010   0.883 -33.556  1.00  0.00     0.179 C 
HETATM   28  N   UNL     1      -8.776   0.209 -33.049  1.00  0.00    -0.172 NA
HETATM   29  C   UNL     1      -7.569   0.779 -32.953  1.00  0.00     0.089 A 
HETATM   30  C   UNL     1      -7.685   2.185 -33.118  1.00  0.00     0.061 A 
BRANCH  29  31
HETATM   31  C   UNL     1      -6.357  -0.010 -32.724  1.00  0.00    -0.003 A 
HETATM   32  C   UNL     1      -5.924  -0.934 -33.686  1.00  0.00     0.053 A 
HETATM   33  C   UNL     1      -4.756  -1.683 -33.492  1.00  0.00     0.102 A 
HETATM   34  C   UNL     1      -4.013  -1.520 -32.306  1.00  0.00     0.101 A 
HETATM   35  C   UNL     1      -4.448  -0.606 -31.342  1.00  0.00     0.040 A 
HETATM   36  C   UNL     1      -5.608   0.146 -31.552  1.00  0.00     0.017 A 
BRANCH  33  37
HETATM   37  O   UNL     1      -4.262  -2.596 -34.390  1.00  0.00    -0.353 OA
HETATM   38  C   UNL     1      -5.106  -3.676 -34.765  1.00  0.00     0.210 C 
ENDBRANCH  33  37
BRANCH  34  39
HETATM   39  O   UNL     1      -2.885  -2.292 -32.189  1.00  0.00    -0.353 OA
HETATM   40  C   UNL     1      -3.013  -3.570 -31.584  1.00  0.00     0.210 C 
ENDBRANCH  34  39
ENDBRANCH  29  31
ENDBRANCH  19  25
ENDBRANCH  15  16
ENDBRANCH  13  15
ENDBRANCH  11  13
ENDBRANCH   9  11
ENDBRANCH   1   9
TORSDOF 9
ENDMDL
MODEL 9
REMARK VINA RESULT:      -8.0      3.122      4.270
REMARK  9 active torsions:
REMARK  status: ('A' for Active; 'I' for Inactive)
REMARK    1  A    between atoms: C_4  and  C_5 
REMARK    2  A    between atoms: C_7  and  O_8 
REMARK    3  A    between atoms: C_10  and  O_11 
REMARK    4  A    between atoms: C_16  and  C_17 
REMARK    5  A    between atoms: C_20  and  C_21 
REMARK    6  A    between atoms: C_21  and  N_22 
REMARK    7  A    between atoms: N_22  and  C_23 
REMARK    8  A    between atoms: C_23  and  N_24 
REMARK    9  A    between atoms: N_24  and  C_25 
ROOT
HETATM    1  C   UNL     1      -1.940   6.979 -29.062  1.00  0.00     0.035 A 
HETATM    2  C   UNL     1      -2.031   6.533 -30.381  1.00  0.00     0.052 A 
HETATM    3  C   UNL     1      -0.910   6.537 -31.222  1.00  0.00     0.046 A 
HETATM    4  C   UNL     1      -1.066   6.102 -32.578  1.00  0.00     0.099 C 
HETATM    5  N   UNL     1      -1.290   5.767 -33.665  1.00  0.00    -0.191 NA
HETATM    6  C   UNL     1       0.323   6.965 -30.733  1.00  0.00     0.023 A 
HETATM    7  C   UNL     1       0.432   7.376 -29.404  1.00  0.00     0.004 A 
HETATM    8  C   UNL     1      -0.693   7.376 -28.571  1.00  0.00     0.029 A 
ENDROOT
BRANCH   1   9
HETATM    9  N   UNL     1      -3.035   6.980 -28.171  1.00  0.00    -0.333 N 
HETATM   10  H   UNL     1      -2.800   6.870 -27.187  1.00  0.00     0.168 HD
BRANCH   9  11
HETATM   11  C   UNL     1      -4.379   6.921 -28.423  1.00  0.00     0.172 C 
HETATM   12  S   UNL     1      -5.188   8.330 -28.797  1.00  0.00    -0.041 SA
BRANCH  11  13
HETATM   13  N   UNL     1      -4.944   5.670 -28.398  1.00  0.00    -0.365 N 
HETATM   14  H   UNL     1      -4.671   5.151 -27.569  1.00  0.00     0.161 HD
BRANCH  13  15
HETATM   15  C   UNL     1      -5.368   4.917 -29.577  1.00  0.00     0.155 C 
BRANCH  15  16
HETATM   16  C   UNL     1      -6.662   5.459 -30.219  1.00  0.00     0.206 C 
HETATM   17  C   UNL     1      -6.780   5.232 -31.735  1.00  0.00     0.040 C 
HETATM   18  C   UNL     1      -8.225   4.840 -32.124  1.00  0.00     0.001 C 
HETATM   19  C   UNL     1      -8.591   3.450 -31.539  1.00  0.00     0.067 C 
HETATM   20  C   UNL     1      -9.174   5.866 -31.463  1.00  0.00     0.033 C 
HETATM   21  C   UNL     1      -8.172   3.424 -30.052  1.00  0.00     0.246 C 
HETATM   22  N   UNL     1      -7.919   4.862 -29.582  1.00  0.00    -0.065 N 
HETATM   23  C   UNL     1      -9.116   5.737 -29.934  1.00  0.00     0.236 C 
HETATM   24  H   UNL     1      -7.810   4.856 -28.558  1.00  0.00     0.280 HD
BRANCH  19  25
HETATM   25  C   UNL     1      -8.058   2.276 -32.310  1.00  0.00     0.038 A 
HETATM   26  N   UNL     1      -8.577   1.870 -33.522  1.00  0.00    -0.277 N 
HETATM   27  C   UNL     1      -9.638   2.483 -34.290  1.00  0.00     0.179 C 
HETATM   28  N   UNL     1      -7.984   0.782 -34.024  1.00  0.00    -0.172 NA
HETATM   29  C   UNL     1      -6.993   0.491 -33.173  1.00  0.00     0.089 A 
HETATM   30  C   UNL     1      -6.999   1.412 -32.092  1.00  0.00     0.061 A 
BRANCH  29  31
HETATM   31  C   UNL     1      -6.073  -0.625 -33.408  1.00  0.00    -0.003 A 
HETATM   32  C   UNL     1      -6.379  -1.601 -34.367  1.00  0.00     0.053 A 
HETATM   33  C   UNL     1      -5.501  -2.664 -34.618  1.00  0.00     0.102 A 
HETATM   34  C   UNL     1      -4.303  -2.766 -33.884  1.00  0.00     0.101 A 
HETATM   35  C   UNL     1      -4.001  -1.799 -32.921  1.00  0.00     0.040 A 
HETATM   36  C   UNL     1      -4.878  -0.734 -32.688  1.00  0.00     0.017 A 
BRANCH  33  37
HETATM   37  O   UNL     1      -5.723  -3.650 -35.548  1.00  0.00    -0.353 OA
HETATM   38  C   UNL     1      -6.804  -4.543 -35.316  1.00  0.00     0.210 C 
ENDBRANCH  33  37
BRANCH  34  39
HETATM   39  O   UNL     1      -3.500  -3.837 -34.186  1.00  0.00    -0.353 OA
HETATM   40  C   UNL     1      -3.479  -4.928 -33.279  1.00  0.00     0.210 C 
ENDBRANCH  34  39
ENDBRANCH  29  31
ENDBRANCH  19  25
ENDBRANCH  15  16
ENDBRANCH  13  15
ENDBRANCH  11  13
ENDBRANCH   9  11
ENDBRANCH   1   9
TORSDOF 9
ENDMDL
MODEL 10
REMARK VINA RESULT:      -7.9      3.059      7.784
REMARK  9 active torsions:
REMARK  status: ('A' for Active; 'I' for Inactive)
REMARK    1  A    between atoms: C_4  and  C_5 
REMARK    2  A    between atoms: C_7  and  O_8 
REMARK    3  A    between atoms: C_10  and  O_11 
REMARK    4  A    between atoms: C_16  and  C_17 
REMARK    5  A    between atoms: C_20  and  C_21 
REMARK    6  A    between atoms: C_21  and  N_22 
REMARK    7  A    between atoms: N_22  and  C_23 
REMARK    8  A    between atoms: C_23  and  N_24 
REMARK    9  A    between atoms: N_24  and  C_25 
ROOT
HETATM    1  C   UNL     1      -5.167  -0.707 -33.484  1.00  0.00     0.035 A 
HETATM    2  C   UNL     1      -4.987  -2.056 -33.794  1.00  0.00     0.052 A 
HETATM    3  C   UNL     1      -5.916  -2.744 -34.586  1.00  0.00     0.046 A 
HETATM    4  C   UNL     1      -5.702  -4.136 -34.844  1.00  0.00     0.099 C 
HETATM    5  N   UNL     1      -5.469  -5.265 -34.975  1.00  0.00    -0.191 NA
HETATM    6  C   UNL     1      -7.023  -2.070 -35.100  1.00  0.00     0.023 A 
HETATM    7  C   UNL     1      -7.191  -0.712 -34.828  1.00  0.00     0.004 A 
HETATM    8  C   UNL     1      -6.263  -0.033 -34.029  1.00  0.00     0.029 A 
ENDROOT
BRANCH   1   9
HETATM    9  N   UNL     1      -4.254   0.033 -32.703  1.00  0.00    -0.333 N 
HETATM   10  H   UNL     1      -3.302  -0.327 -32.682  1.00  0.00     0.168 HD
BRANCH   9  11
HETATM   11  C   UNL     1      -4.472   1.054 -31.818  1.00  0.00     0.172 C 
HETATM   12  S   UNL     1      -5.299   0.729 -30.407  1.00  0.00    -0.041 SA
BRANCH  11  13
HETATM   13  N   UNL     1      -3.931   2.271 -32.153  1.00  0.00    -0.365 N 
HETATM   14  H   UNL     1      -4.035   2.468 -33.145  1.00  0.00     0.161 HD
BRANCH  13  15
HETATM   15  C   UNL     1      -2.858   2.942 -31.424  1.00  0.00     0.155 C 
BRANCH  15  16
HETATM   16  C   UNL     1      -2.603   4.388 -31.898  1.00  0.00     0.206 C 
HETATM   17  C   UNL     1      -3.414   4.821 -33.130  1.00  0.00     0.040 C 
HETATM   18  C   UNL     1      -3.914   6.277 -32.978  1.00  0.00     0.001 C 
HETATM   19  C   UNL     1      -4.951   6.383 -31.829  1.00  0.00     0.067 C 
HETATM   20  C   UNL     1      -2.699   7.139 -32.563  1.00  0.00     0.033 C 
HETATM   21  C   UNL     1      -4.387   5.642 -30.596  1.00  0.00     0.246 C 
HETATM   22  N   UNL     1      -2.883   5.415 -30.798  1.00  0.00    -0.065 N 
HETATM   23  C   UNL     1      -2.209   6.731 -31.167  1.00  0.00     0.236 C 
HETATM   24  H   UNL     1      -2.481   5.081 -29.911  1.00  0.00     0.280 HD
BRANCH  19  25
HETATM   25  C   UNL     1      -6.341   5.937 -32.185  1.00  0.00     0.038 A 
HETATM   26  N   UNL     1      -7.425   6.789 -32.208  1.00  0.00    -0.277 N 
HETATM   27  C   UNL     1      -7.446   8.215 -31.968  1.00  0.00     0.179 C 
HETATM   28  N   UNL     1      -8.578   6.185 -32.513  1.00  0.00    -0.172 NA
HETATM   29  C   UNL     1      -8.256   4.913 -32.778  1.00  0.00     0.089 A 
HETATM   30  C   UNL     1      -6.860   4.721 -32.595  1.00  0.00     0.061 A 
BRANCH  29  31
HETATM   31  C   UNL     1      -9.257   3.933 -33.202  1.00  0.00    -0.003 A 
HETATM   32  C   UNL     1     -10.381   4.344 -33.934  1.00  0.00     0.053 A 
HETATM   33  C   UNL     1     -11.339   3.417 -34.365  1.00  0.00     0.102 A 
HETATM   34  C   UNL     1     -11.183   2.054 -34.044  1.00  0.00     0.101 A 
HETATM   35  C   UNL     1     -10.069   1.644 -33.306  1.00  0.00     0.040 A 
HETATM   36  C   UNL     1      -9.111   2.576 -32.893  1.00  0.00     0.017 A 
BRANCH  33  37
HETATM   37  O   UNL     1     -12.457   3.738 -35.095  1.00  0.00    -0.353 OA
HETATM   38  C   UNL     1     -12.568   5.070 -35.579  1.00  0.00     0.210 C 
ENDBRANCH  33  37
BRANCH  34  39
HETATM   39  O   UNL     1     -12.166   1.210 -34.498  1.00  0.00    -0.353 OA
HETATM   40  C   UNL     1     -12.609   0.178 -33.631  1.00  0.00     0.210 C 
ENDBRANCH  34  39
ENDBRANCH  29  31
ENDBRANCH  19  25
ENDBRANCH  15  16
ENDBRANCH  13  15
ENDBRANCH  11  13
ENDBRANCH   9  11
ENDBRANCH   1   9
TORSDOF 9
ENDMDL
