MODEL 1
REMARK VINA RESULT:      -8.1      0.000      0.000
REMARK  4 active torsions:
REMARK  status: ('A' for Active; 'I' for Inactive)
REMARK    1  A    between atoms: C_8  and  N_9 
REMARK       I    between atoms: N_9  and  C_10 
REMARK       I    between atoms: C_10  and  N_11 
REMARK    2  A    between atoms: N_11  and  C_12 
REMARK    3  A    between atoms: C_15  and  C_16 
REMARK       I    between atoms: C_16  and  N_17 
REMARK    4  A    between atoms: N_17  and  C_18 
ROOT
HETATM    1  C   UNL     1      -5.753   5.227 -33.700  1.00  0.00     0.036 A 
HETATM    2  C   UNL     1      -5.579   6.112 -32.633  1.00  0.00     0.030 A 
HETATM    3  C   UNL     1      -4.329   6.689 -32.382  1.00  0.00     0.019 A 
HETATM    4  C   UNL     1      -3.233   6.372 -33.189  1.00  0.00     0.032 A 
HETATM    5  C   UNL     1      -3.412   5.524 -34.287  1.00  0.00     0.019 A 
HETATM    6  C   UNL     1      -4.664   4.953 -34.537  1.00  0.00     0.030 A 
ENDROOT
BRANCH   1   7
HETATM    7  N   UNL     1      -6.954   4.535 -33.954  1.00  0.00    -0.309 N 
HETATM    8  C   UNL     1      -7.481   3.467 -33.242  1.00  0.00     0.325 C 
HETATM    9  N   UNL     1      -8.475   2.852 -33.984  1.00  0.00    -0.305 N 
HETATM   10  O   UNL     1      -7.094   3.100 -32.141  1.00  0.00    -0.247 OA
HETATM   11  H   UNL     1      -8.434   3.000 -34.980  1.00  0.00     0.171 HD
HETATM   12  H   UNL     1      -7.543   4.908 -34.682  1.00  0.00     0.170 HD
BRANCH   9  13
HETATM   13  C   UNL     1      -9.265   1.790 -33.574  1.00  0.00     0.086 A 
HETATM   14  C   UNL     1     -10.610   1.946 -33.291  1.00  0.00     0.052 A 
HETATM   15  C   UNL     1     -11.516   3.117 -33.348  1.00  0.00     0.072 C 
HETATM   16  N   UNL     1     -11.062   0.706 -32.940  1.00  0.00    -0.280 N 
HETATM   17  H   UNL     1     -12.005   0.431 -32.687  1.00  0.00     0.189 HD
HETATM   18  N   UNL     1     -10.113  -0.234 -32.936  1.00  0.00    -0.177 NA
HETATM   19  C   UNL     1      -9.002   0.412 -33.318  1.00  0.00     0.079 A 
HETATM   20  C   UNL     1      -7.728  -0.350 -33.371  1.00  0.00     0.075 C 
ENDBRANCH   9  13
ENDBRANCH   1   7
BRANCH   4  21
HETATM   21  C   UNL     1      -1.866   6.886 -32.906  1.00  0.00     0.252 C 
HETATM   22  N   UNL     1      -1.277   6.414 -31.750  1.00  0.00    -0.352 N 
HETATM   23  H   UNL     1      -1.758   5.714 -31.204  1.00  0.00     0.163 HD
HETATM   24  O   UNL     1      -1.307   7.632 -33.700  1.00  0.00    -0.268 OA
BRANCH  22  25
HETATM   25  C   UNL     1       0.087   6.765 -31.371  1.00  0.00     0.084 C 
HETATM   26  C   UNL     1       0.114   7.667 -30.130  1.00  0.00     0.025 C 
HETATM   27  C   UNL     1      -0.277   6.921 -28.855  1.00  0.00     0.002 C 
HETATM   28  C   UNL     1       0.578   5.676 -28.646  1.00  0.00     0.000 C 
HETATM   29  C   UNL     1       0.542   4.756 -29.862  1.00  0.00     0.002 C 
HETATM   30  C   UNL     1       0.924   5.497 -31.143  1.00  0.00     0.025 C 
ENDBRANCH  22  25
ENDBRANCH   4  21
TORSDOF 4
ENDMDL
MODEL 2
REMARK VINA RESULT:      -8.1      4.835      8.043
REMARK  4 active torsions:
REMARK  status: ('A' for Active; 'I' for Inactive)
REMARK    1  A    between atoms: C_8  and  N_9 
REMARK       I    between atoms: N_9  and  C_10 
REMARK       I    between atoms: C_10  and  N_11 
REMARK    2  A    between atoms: N_11  and  C_12 
REMARK    3  A    between atoms: C_15  and  C_16 
REMARK       I    between atoms: C_16  and  N_17 
REMARK    4  A    between atoms: N_17  and  C_18 
ROOT
HETATM    1  C   UNL     1       0.237   6.546 -28.614  1.00  0.00     0.036 A 
HETATM    2  C   UNL     1       0.952   7.685 -28.993  1.00  0.00     0.030 A 
HETATM    3  C   UNL     1       1.450   8.568 -28.027  1.00  0.00     0.019 A 
HETATM    4  C   UNL     1       1.222   8.326 -26.670  1.00  0.00     0.032 A 
HETATM    5  C   UNL     1       0.549   7.163 -26.283  1.00  0.00     0.019 A 
HETATM    6  C   UNL     1       0.057   6.281 -27.251  1.00  0.00     0.030 A 
ENDROOT
BRANCH   1   7
HETATM    7  N   UNL     1      -0.376   5.667 -29.529  1.00  0.00    -0.309 N 
HETATM    8  C   UNL     1      -1.476   5.920 -30.337  1.00  0.00     0.325 C 
HETATM    9  N   UNL     1      -1.979   4.728 -30.831  1.00  0.00    -0.305 N 
HETATM   10  O   UNL     1      -1.953   7.027 -30.544  1.00  0.00    -0.247 OA
HETATM   11  H   UNL     1      -1.749   3.902 -30.303  1.00  0.00     0.171 HD
HETATM   12  H   UNL     1       0.085   4.784 -29.682  1.00  0.00     0.170 HD
BRANCH   9  13
HETATM   13  C   UNL     1      -3.035   4.591 -31.718  1.00  0.00     0.086 A 
HETATM   14  C   UNL     1      -2.868   4.736 -33.082  1.00  0.00     0.052 A 
HETATM   15  C   UNL     1      -1.680   5.021 -33.921  1.00  0.00     0.072 C 
HETATM   16  N   UNL     1      -4.098   4.518 -33.633  1.00  0.00    -0.280 N 
HETATM   17  H   UNL     1      -4.356   4.523 -34.614  1.00  0.00     0.189 HD
HETATM   18  N   UNL     1      -5.058   4.281 -32.735  1.00  0.00    -0.177 NA
HETATM   19  C   UNL     1      -4.427   4.324 -31.553  1.00  0.00     0.079 A 
HETATM   20  C   UNL     1      -5.232   4.145 -30.318  1.00  0.00     0.075 C 
ENDBRANCH   9  13
ENDBRANCH   1   7
BRANCH   4  21
HETATM   21  C   UNL     1       1.649   9.283 -25.613  1.00  0.00     0.252 C 
HETATM   22  N   UNL     1       2.808   8.953 -24.940  1.00  0.00    -0.352 N 
HETATM   23  H   UNL     1       3.331   8.139 -25.231  1.00  0.00     0.163 HD
HETATM   24  O   UNL     1       1.021  10.317 -25.422  1.00  0.00    -0.268 OA
BRANCH  22  25
HETATM   25  C   UNL     1       3.397   9.823 -23.929  1.00  0.00     0.084 C 
HETATM   26  C   UNL     1       2.714   9.649 -22.566  1.00  0.00     0.025 C 
HETATM   27  C   UNL     1       3.044   8.308 -21.912  1.00  0.00     0.002 C 
HETATM   28  C   UNL     1       4.549   8.090 -21.803  1.00  0.00     0.000 C 
HETATM   29  C   UNL     1       5.241   8.235 -23.154  1.00  0.00     0.002 C 
HETATM   30  C   UNL     1       4.909   9.572 -23.819  1.00  0.00     0.025 C 
ENDBRANCH  22  25
ENDBRANCH   4  21
TORSDOF 4
ENDMDL
MODEL 3
REMARK VINA RESULT:      -8.0      2.491      3.828
REMARK  4 active torsions:
REMARK  status: ('A' for Active; 'I' for Inactive)
REMARK    1  A    between atoms: C_8  and  N_9 
REMARK       I    between atoms: N_9  and  C_10 
REMARK       I    between atoms: C_10  and  N_11 
REMARK    2  A    between atoms: N_11  and  C_12 
REMARK    3  A    between atoms: C_15  and  C_16 
REMARK       I    between atoms: C_16  and  N_17 
REMARK    4  A    between atoms: N_17  and  C_18 
ROOT
HETATM    1  C   UNL     1      -7.536   2.364 -32.269  1.00  0.00     0.036 A 
HETATM    2  C   UNL     1      -7.136   3.693 -32.118  1.00  0.00     0.030 A 
HETATM    3  C   UNL     1      -5.777   4.026 -32.061  1.00  0.00     0.019 A 
HETATM    4  C   UNL     1      -4.804   3.026 -32.138  1.00  0.00     0.032 A 
HETATM    5  C   UNL     1      -5.198   1.700 -32.337  1.00  0.00     0.019 A 
HETATM    6  C   UNL     1      -6.556   1.371 -32.399  1.00  0.00     0.030 A 
ENDROOT
BRANCH   1   7
HETATM    7  N   UNL     1      -8.881   1.943 -32.237  1.00  0.00    -0.309 N 
HETATM    8  C   UNL     1      -9.817   2.027 -33.258  1.00  0.00     0.325 C 
HETATM    9  N   UNL     1     -11.089   1.832 -32.746  1.00  0.00    -0.305 N 
HETATM   10  O   UNL     1      -9.558   2.278 -34.426  1.00  0.00    -0.247 OA
HETATM   11  H   UNL     1     -11.197   2.012 -31.760  1.00  0.00     0.171 HD
HETATM   12  H   UNL     1      -9.177   1.445 -31.411  1.00  0.00     0.170 HD
BRANCH   9  13
HETATM   13  C   UNL     1     -12.267   1.786 -33.474  1.00  0.00     0.086 A 
HETATM   14  C   UNL     1     -12.867   2.931 -33.965  1.00  0.00     0.052 A 
HETATM   15  C   UNL     1     -12.493   4.363 -33.905  1.00  0.00     0.072 C 
HETATM   16  N   UNL     1     -13.980   2.508 -34.634  1.00  0.00    -0.280 N 
HETATM   17  H   UNL     1     -14.657   3.068 -35.142  1.00  0.00     0.189 HD
HETATM   18  N   UNL     1     -14.172   1.187 -34.585  1.00  0.00    -0.177 NA
HETATM   19  C   UNL     1     -13.133   0.726 -33.874  1.00  0.00     0.079 A 
HETATM   20  C   UNL     1     -13.067  -0.730 -33.587  1.00  0.00     0.075 C 
ENDBRANCH   9  13
ENDBRANCH   1   7
BRANCH   4  21
HETATM   21  C   UNL     1      -3.353   3.320 -31.988  1.00  0.00     0.252 C 
HETATM   22  N   UNL     1      -2.901   4.452 -32.637  1.00  0.00    -0.352 N 
HETATM   23  H   UNL     1      -3.567   5.045 -33.112  1.00  0.00     0.163 HD
HETATM   24  O   UNL     1      -2.648   2.614 -31.277  1.00  0.00    -0.268 OA
BRANCH  22  25
HETATM   25  C   UNL     1      -1.523   4.916 -32.527  1.00  0.00     0.084 C 
HETATM   26  C   UNL     1      -1.121   5.781 -33.729  1.00  0.00     0.025 C 
HETATM   27  C   UNL     1      -1.807   7.147 -33.724  1.00  0.00     0.002 C 
HETATM   28  C   UNL     1      -1.575   7.888 -32.411  1.00  0.00     0.000 C 
HETATM   29  C   UNL     1      -1.994   7.050 -31.207  1.00  0.00     0.002 C 
HETATM   30  C   UNL     1      -1.317   5.680 -31.210  1.00  0.00     0.025 C 
ENDBRANCH  22  25
ENDBRANCH   4  21
TORSDOF 4
ENDMDL
MODEL 4
REMARK VINA RESULT:      -7.8      2.307      3.670
REMARK  4 active torsions:
REMARK  status: ('A' for Active; 'I' for Inactive)
REMARK    1  A    between atoms: C_8  and  N_9 
REMARK       I    between atoms: N_9  and  C_10 
REMARK       I    between atoms: C_10  and  N_11 
REMARK    2  A    between atoms: N_11  and  C_12 
REMARK    3  A    between atoms: C_15  and  C_16 
REMARK       I    between atoms: C_16  and  N_17 
REMARK    4  A    between atoms: N_17  and  C_18 
ROOT
HETATM    1  C   UNL     1      -7.960   3.225 -32.980  1.00  0.00     0.036 A 
HETATM    2  C   UNL     1      -6.866   2.479 -33.425  1.00  0.00     0.030 A 
HETATM    3  C   UNL     1      -5.696   3.116 -33.853  1.00  0.00     0.019 A 
HETATM    4  C   UNL     1      -5.616   4.511 -33.856  1.00  0.00     0.032 A 
HETATM    5  C   UNL     1      -6.689   5.261 -33.366  1.00  0.00     0.019 A 
HETATM    6  C   UNL     1      -7.856   4.621 -32.935  1.00  0.00     0.030 A 
ENDROOT
BRANCH   1   7
HETATM    7  N   UNL     1      -9.202   2.659 -32.627  1.00  0.00    -0.309 N 
HETATM    8  C   UNL     1     -10.379   2.679 -33.362  1.00  0.00     0.325 C 
HETATM    9  N   UNL     1     -11.445   2.327 -32.551  1.00  0.00    -0.305 N 
HETATM   10  O   UNL     1     -10.464   3.001 -34.539  1.00  0.00    -0.247 OA
HETATM   11  H   UNL     1     -11.305   2.456 -31.562  1.00  0.00     0.171 HD
HETATM   12  H   UNL     1      -9.219   2.101 -31.788  1.00  0.00     0.170 HD
BRANCH   9  13
HETATM   13  C   UNL     1     -12.764   2.180 -32.950  1.00  0.00     0.086 A 
HETATM   14  C   UNL     1     -13.670   3.222 -32.874  1.00  0.00     0.052 A 
HETATM   15  C   UNL     1     -13.543   4.630 -32.431  1.00  0.00     0.072 C 
HETATM   16  N   UNL     1     -14.846   2.727 -33.359  1.00  0.00    -0.280 N 
HETATM   17  H   UNL     1     -15.730   3.210 -33.474  1.00  0.00     0.189 HD
HETATM   18  N   UNL     1     -14.788   1.439 -33.709  1.00  0.00    -0.177 NA
HETATM   19  C   UNL     1     -13.519   1.084 -33.462  1.00  0.00     0.079 A 
HETATM   20  C   UNL     1     -13.123  -0.328 -33.700  1.00  0.00     0.075 C 
ENDBRANCH   9  13
ENDBRANCH   1   7
BRANCH   4  21
HETATM   21  C   UNL     1      -4.430   5.235 -34.389  1.00  0.00     0.252 C 
HETATM   22  N   UNL     1      -3.645   5.874 -33.449  1.00  0.00    -0.352 N 
HETATM   23  H   UNL     1      -3.868   5.767 -32.470  1.00  0.00     0.163 HD
HETATM   24  O   UNL     1      -4.165   5.195 -35.584  1.00  0.00    -0.268 OA
BRANCH  22  25
HETATM   25  C   UNL     1      -2.410   6.563 -33.803  1.00  0.00     0.084 C 
HETATM   26  C   UNL     1      -2.137   7.748 -32.868  1.00  0.00     0.025 C 
HETATM   27  C   UNL     1      -1.739   7.305 -31.461  1.00  0.00     0.002 C 
HETATM   28  C   UNL     1      -0.556   6.343 -31.487  1.00  0.00     0.000 C 
HETATM   29  C   UNL     1      -0.821   5.146 -32.394  1.00  0.00     0.002 C 
HETATM   30  C   UNL     1      -1.228   5.582 -33.801  1.00  0.00     0.025 C 
ENDBRANCH  22  25
ENDBRANCH   4  21
TORSDOF 4
ENDMDL
MODEL 5
REMARK VINA RESULT:      -7.6      1.754      2.564
REMARK  4 active torsions:
REMARK  status: ('A' for Active; 'I' for Inactive)
REMARK    1  A    between atoms: C_8  and  N_9 
REMARK       I    between atoms: N_9  and  C_10 
REMARK       I    between atoms: C_10  and  N_11 
REMARK    2  A    between atoms: N_11  and  C_12 
REMARK    3  A    between atoms: C_15  and  C_16 
REMARK       I    between atoms: C_16  and  N_17 
REMARK    4  A    between atoms: N_17  and  C_18 
ROOT
HETATM    1  C   UNL     1      -5.773   3.634 -31.828  1.00  0.00     0.036 A 
HETATM    2  C   UNL     1      -5.449   4.987 -31.702  1.00  0.00     0.030 A 
HETATM    3  C   UNL     1      -4.121   5.415 -31.815  1.00  0.00     0.019 A 
HETATM    4  C   UNL     1      -3.100   4.487 -32.039  1.00  0.00     0.032 A 
HETATM    5  C   UNL     1      -3.424   3.138 -32.213  1.00  0.00     0.019 A 
HETATM    6  C   UNL     1      -4.753   2.715 -32.104  1.00  0.00     0.030 A 
ENDROOT
BRANCH   1   7
HETATM    7  N   UNL     1      -7.070   3.118 -31.630  1.00  0.00    -0.309 N 
HETATM    8  C   UNL     1      -8.039   2.876 -32.594  1.00  0.00     0.325 C 
HETATM    9  N   UNL     1      -9.271   2.699 -31.986  1.00  0.00    -0.305 N 
HETATM   10  O   UNL     1      -7.839   2.865 -33.800  1.00  0.00    -0.247 OA
HETATM   11  H   UNL     1      -9.367   3.097 -31.066  1.00  0.00     0.171 HD
HETATM   12  H   UNL     1      -7.292   2.807 -30.697  1.00  0.00     0.170 HD
BRANCH   9  13
HETATM   13  C   UNL     1     -10.459   2.380 -32.623  1.00  0.00     0.086 A 
HETATM   14  C   UNL     1     -10.770   1.082 -32.984  1.00  0.00     0.052 A 
HETATM   15  C   UNL     1     -10.054  -0.204 -32.814  1.00  0.00     0.072 C 
HETATM   16  N   UNL     1     -12.005   1.143 -33.564  1.00  0.00    -0.280 N 
HETATM   17  H   UNL     1     -12.563   0.381 -33.933  1.00  0.00     0.189 HD
HETATM   18  N   UNL     1     -12.505   2.379 -33.642  1.00  0.00    -0.177 NA
HETATM   19  C   UNL     1     -11.569   3.154 -33.074  1.00  0.00     0.079 A 
HETATM   20  C   UNL     1     -11.795   4.621 -33.042  1.00  0.00     0.075 C 
ENDBRANCH   9  13
ENDBRANCH   1   7
BRANCH   4  21
HETATM   21  C   UNL     1      -1.665   4.882 -32.072  1.00  0.00     0.252 C 
HETATM   22  N   UNL     1      -1.042   4.978 -30.844  1.00  0.00    -0.352 N 
HETATM   23  H   UNL     1      -1.553   4.719 -30.012  1.00  0.00     0.163 HD
HETATM   24  O   UNL     1      -1.092   5.045 -33.143  1.00  0.00    -0.268 OA
BRANCH  22  25
HETATM   25  C   UNL     1       0.378   5.281 -30.713  1.00  0.00     0.084 C 
HETATM   26  C   UNL     1       0.669   6.760 -31.002  1.00  0.00     0.025 C 
HETATM   27  C   UNL     1       0.150   7.685 -29.902  1.00  0.00     0.002 C 
HETATM   28  C   UNL     1       0.678   7.280 -28.530  1.00  0.00     0.000 C 
HETATM   29  C   UNL     1       0.375   5.819 -28.217  1.00  0.00     0.002 C 
HETATM   30  C   UNL     1       0.885   4.887 -29.317  1.00  0.00     0.025 C 
ENDBRANCH  22  25
ENDBRANCH   4  21
TORSDOF 4
ENDMDL
MODEL 6
REMARK VINA RESULT:      -7.5      1.599      1.958
REMARK  4 active torsions:
REMARK  status: ('A' for Active; 'I' for Inactive)
REMARK    1  A    between atoms: C_8  and  N_9 
REMARK       I    between atoms: N_9  and  C_10 
REMARK       I    between atoms: C_10  and  N_11 
REMARK    2  A    between atoms: N_11  and  C_12 
REMARK    3  A    between atoms: C_15  and  C_16 
REMARK       I    between atoms: C_16  and  N_17 
REMARK    4  A    between atoms: N_17  and  C_18 
ROOT
HETATM    1  C   UNL     1      -5.659   4.119 -32.806  1.00  0.00     0.036 A 
HETATM    2  C   UNL     1      -5.124   5.012 -33.738  1.00  0.00     0.030 A 
HETATM    3  C   UNL     1      -3.762   5.332 -33.717  1.00  0.00     0.019 A 
HETATM    4  C   UNL     1      -2.923   4.773 -32.750  1.00  0.00     0.032 A 
HETATM    5  C   UNL     1      -3.443   3.843 -31.845  1.00  0.00     0.019 A 
HETATM    6  C   UNL     1      -4.804   3.521 -31.872  1.00  0.00     0.030 A 
ENDROOT
BRANCH   1   7
HETATM    7  N   UNL     1      -7.033   3.824 -32.705  1.00  0.00    -0.309 N 
HETATM    8  C   UNL     1      -7.783   2.997 -33.529  1.00  0.00     0.325 C 
HETATM    9  N   UNL     1      -9.133   3.226 -33.321  1.00  0.00    -0.305 N 
HETATM   10  O   UNL     1      -7.318   2.214 -34.345  1.00  0.00    -0.247 OA
HETATM   11  H   UNL     1      -9.370   4.122 -32.926  1.00  0.00     0.171 HD
HETATM   12  H   UNL     1      -7.511   4.184 -31.893  1.00  0.00     0.170 HD
BRANCH   9  13
HETATM   13  C   UNL     1     -10.181   2.546 -33.920  1.00  0.00     0.086 A 
HETATM   14  C   UNL     1     -11.014   3.152 -34.843  1.00  0.00     0.052 A 
HETATM   15  C   UNL     1     -11.041   4.514 -35.423  1.00  0.00     0.072 C 
HETATM   16  N   UNL     1     -11.905   2.191 -35.227  1.00  0.00    -0.280 N 
HETATM   17  H   UNL     1     -12.654   2.266 -35.907  1.00  0.00     0.189 HD
HETATM   18  N   UNL     1     -11.742   1.022 -34.602  1.00  0.00    -0.177 NA
HETATM   19  C   UNL     1     -10.691   1.220 -33.793  1.00  0.00     0.079 A 
HETATM   20  C   UNL     1     -10.269   0.109 -32.903  1.00  0.00     0.075 C 
ENDBRANCH   9  13
ENDBRANCH   1   7
BRANCH   4  21
HETATM   21  C   UNL     1      -1.489   5.155 -32.629  1.00  0.00     0.252 C 
HETATM   22  N   UNL     1      -0.968   5.127 -31.351  1.00  0.00    -0.352 N 
HETATM   23  H   UNL     1      -1.545   4.794 -30.592  1.00  0.00     0.163 HD
HETATM   24  O   UNL     1      -0.830   5.414 -33.629  1.00  0.00    -0.268 OA
BRANCH  22  25
HETATM   25  C   UNL     1       0.438   5.402 -31.076  1.00  0.00     0.084 C 
HETATM   26  C   UNL     1       0.740   6.905 -31.133  1.00  0.00     0.025 C 
HETATM   27  C   UNL     1       0.139   7.669 -29.955  1.00  0.00     0.002 C 
HETATM   28  C   UNL     1       0.569   7.073 -28.619  1.00  0.00     0.000 C 
HETATM   29  C   UNL     1       0.252   5.583 -28.537  1.00  0.00     0.002 C 
HETATM   30  C   UNL     1       0.845   4.813 -29.717  1.00  0.00     0.025 C 
ENDBRANCH  22  25
ENDBRANCH   4  21
TORSDOF 4
ENDMDL
MODEL 7
REMARK VINA RESULT:      -7.4      1.740      2.234
REMARK  4 active torsions:
REMARK  status: ('A' for Active; 'I' for Inactive)
REMARK    1  A    between atoms: C_8  and  N_9 
REMARK       I    between atoms: N_9  and  C_10 
REMARK       I    between atoms: C_10  and  N_11 
REMARK    2  A    between atoms: N_11  and  C_12 
REMARK    3  A    between atoms: C_15  and  C_16 
REMARK       I    between atoms: C_16  and  N_17 
REMARK    4  A    between atoms: N_17  and  C_18 
ROOT
HETATM    1  C   UNL     1      -5.004   4.202 -32.254  1.00  0.00     0.036 A 
HETATM    2  C   UNL     1      -3.897   3.462 -32.677  1.00  0.00     0.030 A 
HETATM    3  C   UNL     1      -2.612   3.781 -32.223  1.00  0.00     0.019 A 
HETATM    4  C   UNL     1      -2.420   4.856 -31.352  1.00  0.00     0.032 A 
HETATM    5  C   UNL     1      -3.530   5.569 -30.887  1.00  0.00     0.019 A 
HETATM    6  C   UNL     1      -4.813   5.245 -31.339  1.00  0.00     0.030 A 
ENDROOT
BRANCH   1   7
HETATM    7  N   UNL     1      -6.311   4.002 -32.742  1.00  0.00    -0.309 N 
HETATM    8  C   UNL     1      -7.204   3.002 -32.383  1.00  0.00     0.325 C 
HETATM    9  N   UNL     1      -8.232   2.937 -33.308  1.00  0.00    -0.305 N 
HETATM   10  O   UNL     1      -7.076   2.264 -31.417  1.00  0.00    -0.247 OA
HETATM   11  H   UNL     1      -8.028   3.316 -34.219  1.00  0.00     0.171 HD
HETATM   12  H   UNL     1      -6.675   4.714 -33.357  1.00  0.00     0.170 HD
BRANCH   9  13
HETATM   13  C   UNL     1      -9.336   2.102 -33.247  1.00  0.00     0.086 A 
HETATM   14  C   UNL     1     -10.612   2.591 -33.038  1.00  0.00     0.052 A 
HETATM   15  C   UNL     1     -11.142   3.963 -32.861  1.00  0.00     0.072 C 
HETATM   16  N   UNL     1     -11.436   1.502 -33.054  1.00  0.00    -0.280 N 
HETATM   17  H   UNL     1     -12.445   1.476 -32.953  1.00  0.00     0.189 HD
HETATM   18  N   UNL     1     -10.794   0.342 -33.219  1.00  0.00    -0.177 NA
HETATM   19  C   UNL     1      -9.504   0.688 -33.336  1.00  0.00     0.079 A 
HETATM   20  C   UNL     1      -8.496  -0.392 -33.485  1.00  0.00     0.075 C 
ENDBRANCH   9  13
ENDBRANCH   1   7
BRANCH   4  21
HETATM   21  C   UNL     1      -1.065   5.291 -30.916  1.00  0.00     0.252 C 
HETATM   22  N   UNL     1      -1.029   6.138 -29.828  1.00  0.00    -0.352 N 
HETATM   23  H   UNL     1      -1.891   6.363 -29.351  1.00  0.00     0.163 HD
HETATM   24  O   UNL     1      -0.066   4.856 -31.476  1.00  0.00    -0.268 OA
BRANCH  22  25
HETATM   25  C   UNL     1       0.223   6.593 -29.235  1.00  0.00     0.084 C 
HETATM   26  C   UNL     1       0.197   8.101 -28.949  1.00  0.00     0.025 C 
HETATM   27  C   UNL     1      -0.731   8.462 -27.790  1.00  0.00     0.002 C 
HETATM   28  C   UNL     1      -0.393   7.670 -26.531  1.00  0.00     0.000 C 
HETATM   29  C   UNL     1      -0.388   6.168 -26.793  1.00  0.00     0.002 C 
HETATM   30  C   UNL     1       0.533   5.800 -27.956  1.00  0.00     0.025 C 
ENDBRANCH  22  25
ENDBRANCH   4  21
TORSDOF 4
ENDMDL
MODEL 8
REMARK VINA RESULT:      -7.4      2.065      3.148
REMARK  4 active torsions:
REMARK  status: ('A' for Active; 'I' for Inactive)
REMARK    1  A    between atoms: C_8  and  N_9 
REMARK       I    between atoms: N_9  and  C_10 
REMARK       I    between atoms: C_10  and  N_11 
REMARK    2  A    between atoms: N_11  and  C_12 
REMARK    3  A    between atoms: C_15  and  C_16 
REMARK       I    between atoms: C_16  and  N_17 
REMARK    4  A    between atoms: N_17  and  C_18 
ROOT
HETATM    1  C   UNL     1      -3.800   4.778 -32.742  1.00  0.00     0.036 A 
HETATM    2  C   UNL     1      -3.965   5.736 -31.739  1.00  0.00     0.030 A 
HETATM    3  C   UNL     1      -2.872   6.166 -30.977  1.00  0.00     0.019 A 
HETATM    4  C   UNL     1      -1.603   5.627 -31.202  1.00  0.00     0.032 A 
HETATM    5  C   UNL     1      -1.423   4.703 -32.235  1.00  0.00     0.019 A 
HETATM    6  C   UNL     1      -2.516   4.279 -32.998  1.00  0.00     0.030 A 
ENDROOT
BRANCH   1   7
HETATM    7  N   UNL     1      -4.866   4.227 -33.481  1.00  0.00    -0.309 N 
HETATM    8  C   UNL     1      -5.765   3.253 -33.070  1.00  0.00     0.325 C 
HETATM    9  N   UNL     1      -6.435   2.739 -34.167  1.00  0.00    -0.305 N 
HETATM   10  O   UNL     1      -5.911   2.878 -31.915  1.00  0.00    -0.247 OA
HETATM   11  H   UNL     1      -5.971   2.849 -35.055  1.00  0.00     0.171 HD
HETATM   12  H   UNL     1      -5.054   4.645 -34.379  1.00  0.00     0.170 HD
BRANCH   9  13
HETATM   13  C   UNL     1      -7.448   1.794 -34.140  1.00  0.00     0.086 A 
HETATM   14  C   UNL     1      -7.181   0.438 -34.096  1.00  0.00     0.052 A 
HETATM   15  C   UNL     1      -5.917  -0.333 -34.048  1.00  0.00     0.072 C 
HETATM   16  N   UNL     1      -8.398  -0.180 -34.062  1.00  0.00    -0.280 N 
HETATM   17  H   UNL     1      -8.596  -1.173 -34.007  1.00  0.00     0.189 HD
HETATM   18  N   UNL     1      -9.433   0.663 -34.119  1.00  0.00    -0.177 NA
HETATM   19  C   UNL     1      -8.871   1.879 -34.170  1.00  0.00     0.079 A 
HETATM   20  C   UNL     1      -9.761   3.061 -34.291  1.00  0.00     0.075 C 
ENDBRANCH   9  13
ENDBRANCH   1   7
BRANCH   4  21
HETATM   21  C   UNL     1      -0.431   5.983 -30.356  1.00  0.00     0.252 C 
HETATM   22  N   UNL     1      -0.704   6.220 -29.024  1.00  0.00    -0.352 N 
HETATM   23  H   UNL     1      -1.644   6.080 -28.682  1.00  0.00     0.163 HD
HETATM   24  O   UNL     1       0.697   5.996 -30.834  1.00  0.00    -0.268 OA
BRANCH  22  25
HETATM   25  C   UNL     1       0.345   6.507 -28.052  1.00  0.00     0.084 C 
HETATM   26  C   UNL     1       0.870   7.942 -28.195  1.00  0.00     0.025 C 
HETATM   27  C   UNL     1      -0.144   8.986 -27.729  1.00  0.00     0.002 C 
HETATM   28  C   UNL     1      -0.618   8.713 -26.305  1.00  0.00     0.000 C 
HETATM   29  C   UNL     1      -1.166   7.298 -26.153  1.00  0.00     0.002 C 
HETATM   30  C   UNL     1      -0.160   6.249 -26.625  1.00  0.00     0.025 C 
ENDBRANCH  22  25
ENDBRANCH   4  21
TORSDOF 4
ENDMDL
MODEL 9
REMARK VINA RESULT:      -7.3      3.642      4.386
REMARK  4 active torsions:
REMARK  status: ('A' for Active; 'I' for Inactive)
REMARK    1  A    between atoms: C_8  and  N_9 
REMARK       I    between atoms: N_9  and  C_10 
REMARK       I    between atoms: C_10  and  N_11 
REMARK    2  A    between atoms: N_11  and  C_12 
REMARK    3  A    between atoms: C_15  and  C_16 
REMARK       I    between atoms: C_16  and  N_17 
REMARK    4  A    between atoms: N_17  and  C_18 
ROOT
HETATM    1  C   UNL     1      -4.360   2.766 -31.437  1.00  0.00     0.036 A 
HETATM    2  C   UNL     1      -5.024   3.728 -30.672  1.00  0.00     0.030 A 
HETATM    3  C   UNL     1      -4.445   4.983 -30.447  1.00  0.00     0.019 A 
HETATM    4  C   UNL     1      -3.185   5.281 -30.973  1.00  0.00     0.032 A 
HETATM    5  C   UNL     1      -2.538   4.340 -31.779  1.00  0.00     0.019 A 
HETATM    6  C   UNL     1      -3.121   3.089 -32.006  1.00  0.00     0.030 A 
ENDROOT
BRANCH   1   7
HETATM    7  N   UNL     1      -4.834   1.452 -31.625  1.00  0.00    -0.309 N 
HETATM    8  C   UNL     1      -4.248   0.442 -32.375  1.00  0.00     0.325 C 
HETATM    9  N   UNL     1      -5.165  -0.573 -32.592  1.00  0.00    -0.305 N 
HETATM   10  O   UNL     1      -3.106   0.466 -32.812  1.00  0.00    -0.247 OA
HETATM   11  H   UNL     1      -6.135  -0.311 -32.517  1.00  0.00     0.171 HD
HETATM   12  H   UNL     1      -5.643   1.185 -31.087  1.00  0.00     0.170 HD
BRANCH   9  13
HETATM   13  C   UNL     1      -4.922  -1.769 -33.248  1.00  0.00     0.086 A 
HETATM   14  C   UNL     1      -5.657  -2.159 -34.352  1.00  0.00     0.052 A 
HETATM   15  C   UNL     1      -6.763  -1.515 -35.098  1.00  0.00     0.072 C 
HETATM   16  N   UNL     1      -5.137  -3.362 -34.738  1.00  0.00    -0.280 N 
HETATM   17  H   UNL     1      -5.412  -3.940 -35.525  1.00  0.00     0.189 HD
HETATM   18  N   UNL     1      -4.150  -3.801 -33.953  1.00  0.00    -0.177 NA
HETATM   19  C   UNL     1      -4.005  -2.839 -33.030  1.00  0.00     0.079 A 
HETATM   20  C   UNL     1      -3.001  -3.042 -31.955  1.00  0.00     0.075 C 
ENDBRANCH   9  13
ENDBRANCH   1   7
BRANCH   4  21
HETATM   21  C   UNL     1      -2.490   6.564 -30.683  1.00  0.00     0.252 C 
HETATM   22  N   UNL     1      -1.936   6.673 -29.423  1.00  0.00    -0.352 N 
HETATM   23  H   UNL     1      -1.969   5.878 -28.801  1.00  0.00     0.163 HD
HETATM   24  O   UNL     1      -2.384   7.422 -31.551  1.00  0.00    -0.268 OA
BRANCH  22  25
HETATM   25  C   UNL     1      -1.159   7.837 -29.011  1.00  0.00     0.084 C 
HETATM   26  C   UNL     1      -1.562   8.318 -27.611  1.00  0.00     0.025 C 
HETATM   27  C   UNL     1      -1.111   7.359 -26.509  1.00  0.00     0.002 C 
HETATM   28  C   UNL     1       0.386   7.080 -26.584  1.00  0.00     0.000 C 
HETATM   29  C   UNL     1       0.799   6.577 -27.963  1.00  0.00     0.002 C 
HETATM   30  C   UNL     1       0.345   7.527 -29.071  1.00  0.00     0.025 C 
ENDBRANCH  22  25
ENDBRANCH   4  21
TORSDOF 4
ENDMDL
MODEL 10
REMARK VINA RESULT:      -7.3      2.668      9.561
REMARK  4 active torsions:
REMARK  status: ('A' for Active; 'I' for Inactive)
REMARK    1  A    between atoms: C_8  and  N_9 
REMARK       I    between atoms: N_9  and  C_10 
REMARK       I    between atoms: C_10  and  N_11 
REMARK    2  A    between atoms: N_11  and  C_12 
REMARK    3  A    between atoms: C_15  and  C_16 
REMARK       I    between atoms: C_16  and  N_17 
REMARK    4  A    between atoms: N_17  and  C_18 
ROOT
HETATM    1  C   UNL     1      -2.925   5.414 -31.869  1.00  0.00     0.036 A 
HETATM    2  C   UNL     1      -3.195   4.052 -31.725  1.00  0.00     0.030 A 
HETATM    3  C   UNL     1      -4.276   3.465 -32.393  1.00  0.00     0.019 A 
HETATM    4  C   UNL     1      -5.109   4.243 -33.201  1.00  0.00     0.032 A 
HETATM    5  C   UNL     1      -4.815   5.597 -33.388  1.00  0.00     0.019 A 
HETATM    6  C   UNL     1      -3.731   6.179 -32.722  1.00  0.00     0.030 A 
ENDROOT
BRANCH   1   7
HETATM    7  N   UNL     1      -1.917   6.092 -31.154  1.00  0.00    -0.309 N 
HETATM    8  C   UNL     1      -2.056   6.817 -29.979  1.00  0.00     0.325 C 
HETATM    9  N   UNL     1      -0.934   7.603 -29.776  1.00  0.00    -0.305 N 
HETATM   10  O   UNL     1      -3.042   6.795 -29.256  1.00  0.00    -0.247 OA
HETATM   11  H   UNL     1      -0.392   7.814 -30.599  1.00  0.00     0.171 HD
HETATM   12  H   UNL     1      -0.972   5.967 -31.482  1.00  0.00     0.170 HD
BRANCH   9  13
HETATM   13  C   UNL     1      -0.690   8.414 -28.680  1.00  0.00     0.086 A 
HETATM   14  C   UNL     1      -1.305   9.643 -28.529  1.00  0.00     0.052 A 
HETATM   15  C   UNL     1      -2.295  10.376 -29.352  1.00  0.00     0.072 C 
HETATM   16  N   UNL     1      -0.846  10.145 -27.345  1.00  0.00    -0.280 N 
HETATM   17  H   UNL     1      -1.094  11.021 -26.896  1.00  0.00     0.189 HD
HETATM   18  N   UNL     1       0.045   9.360 -26.733  1.00  0.00    -0.177 NA
HETATM   19  C   UNL     1       0.157   8.294 -27.539  1.00  0.00     0.079 A 
HETATM   20  C   UNL     1       1.125   7.230 -27.167  1.00  0.00     0.075 C 
ENDBRANCH   9  13
ENDBRANCH   1   7
BRANCH   4  21
HETATM   21  C   UNL     1      -6.324   3.685 -33.856  1.00  0.00     0.252 C 
HETATM   22  N   UNL     1      -6.363   2.310 -33.971  1.00  0.00    -0.352 N 
HETATM   23  H   UNL     1      -5.622   1.761 -33.559  1.00  0.00     0.163 HD
HETATM   24  O   UNL     1      -7.236   4.425 -34.203  1.00  0.00    -0.268 OA
BRANCH  22  25
HETATM   25  C   UNL     1      -7.516   1.606 -34.521  1.00  0.00     0.084 C 
HETATM   26  C   UNL     1      -7.089   0.479 -35.470  1.00  0.00     0.025 C 
HETATM   27  C   UNL     1      -6.452  -0.699 -34.734  1.00  0.00     0.002 C 
HETATM   28  C   UNL     1      -7.358  -1.227 -33.627  1.00  0.00     0.000 C 
HETATM   29  C   UNL     1      -7.772  -0.123 -32.659  1.00  0.00     0.002 C 
HETATM   30  C   UNL     1      -8.403   1.062 -33.390  1.00  0.00     0.025 C 
ENDBRANCH  22  25
ENDBRANCH   4  21
TORSDOF 4
ENDMDL
