MODEL 1
REMARK VINA RESULT:     -10.2      0.000      0.000
REMARK  6 active torsions:
REMARK  status: ('A' for Active; 'I' for Inactive)
REMARK    1  A    between atoms: C_4  and  C_5 
REMARK    2  A    between atoms: N_6  and  C_7 
REMARK    3  A    between atoms: C_14  and  S_15 
REMARK    4  A    between atoms: S_15  and  C_16 
REMARK    5  A    between atoms: C_16  and  C_17 
REMARK       I    between atoms: C_17  and  N_18 
REMARK    6  A    between atoms: N_18  and  C_19 
ROOT
HETATM    1  C   UNL     1      -4.901  -0.716 -33.447  1.00  0.00     0.169 A 
HETATM    2  N   UNL     1      -5.724   0.344 -33.053  1.00  0.00    -0.271 N 
HETATM    3  C   UNL     1      -4.837   1.275 -32.529  1.00  0.00     0.197 A 
HETATM    4  N   UNL     1      -3.605   0.844 -32.637  1.00  0.00    -0.122 NA
HETATM    5  N   UNL     1      -3.640  -0.384 -33.226  1.00  0.00    -0.128 NA
ENDROOT
BRANCH   3   6
HETATM    6  S   UNL     1      -5.237   2.891 -32.026  1.00  0.00    -0.080 SA
BRANCH   6   7
HETATM    7  C   UNL     1      -3.871   3.837 -32.770  1.00  0.00     0.185 C 
BRANCH   7   8
HETATM    8  C   UNL     1      -2.761   4.240 -31.804  1.00  0.00     0.231 C 
HETATM    9  N   UNL     1      -2.642   5.600 -31.579  1.00  0.00    -0.326 N 
HETATM   10  H   UNL     1      -3.273   6.186 -32.112  1.00  0.00     0.169 HD
HETATM   11  O   UNL     1      -2.119   3.365 -31.224  1.00  0.00    -0.272 OA
BRANCH   9  12
HETATM   12  C   UNL     1      -1.707   6.267 -30.761  1.00  0.00     0.037 A 
HETATM   13  C   UNL     1      -2.037   6.867 -29.540  1.00  0.00     0.061 A 
HETATM   14  C   UNL     1      -1.016   7.469 -28.841  1.00  0.00     0.065 A 
HETATM   15  C   UNL     1       0.296   7.498 -29.309  1.00  0.00     0.063 A 
HETATM   16  N   UNL     1      -1.046   8.126 -27.615  1.00  0.00    -0.306 N 
HETATM   17  N   UNL     1       1.071   8.171 -28.373  1.00  0.00    -0.307 N 
HETATM   18  C   UNL     1       0.657   6.922 -30.500  1.00  0.00     0.034 A 
HETATM   19  C   UNL     1       0.248   8.569 -27.307  1.00  0.00     0.325 A 
HETATM   20  H   UNL     1       2.059   8.356 -28.413  1.00  0.00     0.170 HD
HETATM   21  O   UNL     1       0.596   9.177 -26.311  1.00  0.00    -0.247 OA
HETATM   22  C   UNL     1      -0.366   6.299 -31.229  1.00  0.00     0.032 A 
HETATM   23  H   UNL     1      -1.848   8.267 -27.023  1.00  0.00     0.170 HD
ENDBRANCH   9  12
ENDBRANCH   7   8
ENDBRANCH   6   7
ENDBRANCH   3   6
BRANCH   2  24
HETATM   24  C   UNL     1      -7.136   0.452 -33.206  1.00  0.00     0.043 A 
HETATM   25  C   UNL     1      -7.691   0.860 -34.427  1.00  0.00     0.032 A 
HETATM   26  C   UNL     1      -9.078   0.973 -34.565  1.00  0.00     0.026 A 
HETATM   27  C   UNL     1      -9.911   0.677 -33.488  1.00  0.00     0.034 A 
HETATM   28 CL   UNL     1     -11.616   0.818 -33.662  1.00  0.00    -0.084 Cl
HETATM   29  C   UNL     1      -9.369   0.272 -32.270  1.00  0.00     0.026 A 
HETATM   30  C   UNL     1      -7.983   0.161 -32.126  1.00  0.00     0.032 A 
ENDBRANCH   2  24
BRANCH   1  31
HETATM   31  C   UNL     1      -5.309  -2.030 -33.950  1.00  0.00     0.012 A 
HETATM   32  C   UNL     1      -4.370  -3.072 -33.983  1.00  0.00     0.015 A 
HETATM   33  C   UNL     1      -4.732  -4.342 -34.437  1.00  0.00     0.001 A 
HETATM   34  C   UNL     1      -6.038  -4.586 -34.855  1.00  0.00     0.000 A 
HETATM   35  C   UNL     1      -6.986  -3.566 -34.808  1.00  0.00     0.001 A 
HETATM   36  C   UNL     1      -6.626  -2.295 -34.350  1.00  0.00     0.015 A 
ENDBRANCH   1  31
TORSDOF 6
ENDMDL
MODEL 2
REMARK VINA RESULT:      -9.9      4.940      9.358
REMARK  6 active torsions:
REMARK  status: ('A' for Active; 'I' for Inactive)
REMARK    1  A    between atoms: C_4  and  C_5 
REMARK    2  A    between atoms: N_6  and  C_7 
REMARK    3  A    between atoms: C_14  and  S_15 
REMARK    4  A    between atoms: S_15  and  C_16 
REMARK    5  A    between atoms: C_16  and  C_17 
REMARK       I    between atoms: C_17  and  N_18 
REMARK    6  A    between atoms: N_18  and  C_19 
ROOT
HETATM    1  C   UNL     1      -6.326   1.747 -31.785  1.00  0.00     0.169 A 
HETATM    2  N   UNL     1      -6.003   3.097 -31.956  1.00  0.00    -0.271 N 
HETATM    3  C   UNL     1      -6.980   3.766 -31.230  1.00  0.00     0.197 A 
HETATM    4  N   UNL     1      -7.781   2.911 -30.644  1.00  0.00    -0.122 NA
HETATM    5  N   UNL     1      -7.365   1.655 -30.971  1.00  0.00    -0.128 NA
ENDROOT
BRANCH   3   6
HETATM    6  S   UNL     1      -7.020   5.475 -30.913  1.00  0.00    -0.080 SA
BRANCH   6   7
HETATM    7  C   UNL     1      -8.022   6.067 -32.313  1.00  0.00     0.185 C 
BRANCH   7   8
HETATM    8  C   UNL     1      -8.760   4.979 -33.087  1.00  0.00     0.231 C 
HETATM    9  N   UNL     1      -9.838   4.417 -32.428  1.00  0.00    -0.326 N 
HETATM   10  H   UNL     1      -9.997   4.754 -31.487  1.00  0.00     0.169 HD
HETATM   11  O   UNL     1      -8.431   4.737 -34.248  1.00  0.00    -0.272 OA
BRANCH   9  12
HETATM   12  C   UNL     1     -10.690   3.387 -32.877  1.00  0.00     0.037 A 
HETATM   13  C   UNL     1     -12.053   3.570 -33.140  1.00  0.00     0.061 A 
HETATM   14  C   UNL     1     -12.758   2.477 -33.588  1.00  0.00     0.065 A 
HETATM   15  C   UNL     1     -12.166   1.231 -33.777  1.00  0.00     0.063 A 
HETATM   16  N   UNL     1     -14.102   2.366 -33.932  1.00  0.00    -0.306 N 
HETATM   17  N   UNL     1     -13.142   0.355 -34.236  1.00  0.00    -0.307 N 
HETATM   18  C   UNL     1     -10.834   1.013 -33.530  1.00  0.00     0.034 A 
HETATM   19  C   UNL     1     -14.358   1.050 -34.341  1.00  0.00     0.325 A 
HETATM   20  H   UNL     1     -13.034  -0.616 -34.472  1.00  0.00     0.170 HD
HETATM   21  O   UNL     1     -15.423   0.594 -34.715  1.00  0.00    -0.247 OA
HETATM   22  C   UNL     1     -10.094   2.113 -33.076  1.00  0.00     0.032 A 
HETATM   23  H   UNL     1     -14.795   3.097 -33.909  1.00  0.00     0.170 HD
ENDBRANCH   9  12
ENDBRANCH   7   8
ENDBRANCH   6   7
ENDBRANCH   3   6
BRANCH   2  24
HETATM   24  C   UNL     1      -4.897   3.643 -32.669  1.00  0.00     0.043 A 
HETATM   25  C   UNL     1      -3.605   3.588 -32.129  1.00  0.00     0.032 A 
HETATM   26  C   UNL     1      -2.526   4.135 -32.831  1.00  0.00     0.026 A 
HETATM   27  C   UNL     1      -2.736   4.735 -34.071  1.00  0.00     0.034 A 
HETATM   28 CL   UNL     1      -1.407   5.406 -34.931  1.00  0.00    -0.084 Cl
HETATM   29  C   UNL     1      -4.016   4.795 -34.616  1.00  0.00     0.026 A 
HETATM   30  C   UNL     1      -5.098   4.252 -33.916  1.00  0.00     0.032 A 
ENDBRANCH   2  24
BRANCH   1  31
HETATM   31  C   UNL     1      -5.711   0.587 -32.434  1.00  0.00     0.012 A 
HETATM   32  C   UNL     1      -6.344   0.008 -33.544  1.00  0.00     0.015 A 
HETATM   33  C   UNL     1      -5.774  -1.086 -34.199  1.00  0.00     0.001 A 
HETATM   34  C   UNL     1      -4.558  -1.605 -33.757  1.00  0.00     0.000 A 
HETATM   35  C   UNL     1      -3.908  -1.026 -32.670  1.00  0.00     0.001 A 
HETATM   36  C   UNL     1      -4.476   0.071 -32.016  1.00  0.00     0.015 A 
ENDBRANCH   1  31
TORSDOF 6
ENDMDL
MODEL 3
REMARK VINA RESULT:      -9.9      3.458     10.848
REMARK  6 active torsions:
REMARK  status: ('A' for Active; 'I' for Inactive)
REMARK    1  A    between atoms: C_4  and  C_5 
REMARK    2  A    between atoms: N_6  and  C_7 
REMARK    3  A    between atoms: C_14  and  S_15 
REMARK    4  A    between atoms: S_15  and  C_16 
REMARK    5  A    between atoms: C_16  and  C_17 
REMARK       I    between atoms: C_17  and  N_18 
REMARK    6  A    between atoms: N_18  and  C_19 
ROOT
HETATM    1  C   UNL     1      -0.503   5.934 -29.738  1.00  0.00     0.169 A 
HETATM    2  N   UNL     1      -1.671   6.259 -30.436  1.00  0.00    -0.271 N 
HETATM    3  C   UNL     1      -1.741   5.294 -31.432  1.00  0.00     0.197 A 
HETATM    4  N   UNL     1      -0.746   4.449 -31.321  1.00  0.00    -0.122 NA
HETATM    5  N   UNL     1       0.013   4.832 -30.256  1.00  0.00    -0.128 NA
ENDROOT
BRANCH   3   6
HETATM    6  S   UNL     1      -3.069   5.058 -32.529  1.00  0.00    -0.080 SA
BRANCH   6   7
HETATM    7  C   UNL     1      -4.013   3.765 -31.662  1.00  0.00     0.185 C 
BRANCH   7   8
HETATM    8  C   UNL     1      -4.743   2.778 -32.568  1.00  0.00     0.231 C 
HETATM    9  N   UNL     1      -4.691   1.457 -32.161  1.00  0.00    -0.326 N 
HETATM   10  H   UNL     1      -4.138   1.279 -31.331  1.00  0.00     0.169 HD
HETATM   11  O   UNL     1      -5.394   3.203 -33.521  1.00  0.00    -0.272 OA
BRANCH   9  12
HETATM   12  C   UNL     1      -5.247   0.329 -32.797  1.00  0.00     0.037 A 
HETATM   13  C   UNL     1      -4.495  -0.777 -33.209  1.00  0.00     0.061 A 
HETATM   14  C   UNL     1      -5.177  -1.814 -33.804  1.00  0.00     0.065 A 
HETATM   15  C   UNL     1      -6.555  -1.786 -34.003  1.00  0.00     0.063 A 
HETATM   16  N   UNL     1      -4.699  -3.024 -34.297  1.00  0.00    -0.306 N 
HETATM   17  N   UNL     1      -6.925  -2.976 -34.617  1.00  0.00    -0.307 N 
HETATM   18  C   UNL     1      -7.325  -0.720 -33.614  1.00  0.00     0.034 A 
HETATM   19  C   UNL     1      -5.777  -3.762 -34.806  1.00  0.00     0.325 A 
HETATM   20  H   UNL     1      -7.849  -3.266 -34.889  1.00  0.00     0.170 HD
HETATM   21  O   UNL     1      -5.732  -4.868 -35.313  1.00  0.00    -0.247 OA
HETATM   22  C   UNL     1      -6.653   0.347 -33.002  1.00  0.00     0.032 A 
HETATM   23  H   UNL     1      -3.745  -3.345 -34.294  1.00  0.00     0.170 HD
ENDBRANCH   9  12
ENDBRANCH   7   8
ENDBRANCH   6   7
ENDBRANCH   3   6
BRANCH   2  24
HETATM   24  C   UNL     1      -2.592   7.308 -30.150  1.00  0.00     0.043 A 
HETATM   25  C   UNL     1      -2.405   8.587 -30.692  1.00  0.00     0.032 A 
HETATM   26  C   UNL     1      -3.309   9.613 -30.397  1.00  0.00     0.026 A 
HETATM   27  C   UNL     1      -4.398   9.363 -29.565  1.00  0.00     0.034 A 
HETATM   28 CL   UNL     1      -5.506  10.628 -29.205  1.00  0.00    -0.084 Cl
HETATM   29  C   UNL     1      -4.591   8.096 -29.020  1.00  0.00     0.026 A 
HETATM   30  C   UNL     1      -3.689   7.068 -29.310  1.00  0.00     0.032 A 
ENDBRANCH   2  24
BRANCH   1  31
HETATM   31  C   UNL     1       0.138   6.691 -28.661  1.00  0.00     0.012 A 
HETATM   32  C   UNL     1       0.899   7.826 -28.980  1.00  0.00     0.015 A 
HETATM   33  C   UNL     1       1.507   8.582 -27.975  1.00  0.00     0.001 A 
HETATM   34  C   UNL     1       1.352   8.217 -26.640  1.00  0.00     0.000 A 
HETATM   35  C   UNL     1       0.581   7.105 -26.307  1.00  0.00     0.001 A 
HETATM   36  C   UNL     1      -0.031   6.350 -27.311  1.00  0.00     0.015 A 
ENDBRANCH   1  31
TORSDOF 6
ENDMDL
MODEL 4
REMARK VINA RESULT:      -9.7      4.571      6.805
REMARK  6 active torsions:
REMARK  status: ('A' for Active; 'I' for Inactive)
REMARK    1  A    between atoms: C_4  and  C_5 
REMARK    2  A    between atoms: N_6  and  C_7 
REMARK    3  A    between atoms: C_14  and  S_15 
REMARK    4  A    between atoms: S_15  and  C_16 
REMARK    5  A    between atoms: C_16  and  C_17 
REMARK       I    between atoms: C_17  and  N_18 
REMARK    6  A    between atoms: N_18  and  C_19 
ROOT
HETATM    1  C   UNL     1      -4.551  -0.884 -33.457  1.00  0.00     0.169 A 
HETATM    2  N   UNL     1      -5.304   0.237 -33.093  1.00  0.00    -0.271 N 
HETATM    3  C   UNL     1      -4.365   1.109 -32.560  1.00  0.00     0.197 A 
HETATM    4  N   UNL     1      -3.165   0.590 -32.635  1.00  0.00    -0.122 NA
HETATM    5  N   UNL     1      -3.275  -0.641 -33.211  1.00  0.00    -0.128 NA
ENDROOT
BRANCH   3   6
HETATM    6  S   UNL     1      -4.659   2.755 -32.083  1.00  0.00    -0.080 SA
BRANCH   6   7
HETATM    7  C   UNL     1      -5.483   2.513 -30.478  1.00  0.00     0.185 C 
BRANCH   7   8
HETATM    8  C   UNL     1      -6.757   3.327 -30.274  1.00  0.00     0.231 C 
HETATM    9  N   UNL     1      -7.729   3.149 -31.242  1.00  0.00    -0.326 N 
HETATM   10  H   UNL     1      -7.476   2.533 -32.005  1.00  0.00     0.169 HD
HETATM   11  O   UNL     1      -6.887   3.997 -29.251  1.00  0.00    -0.272 OA
BRANCH   9  12
HETATM   12  C   UNL     1      -8.990   3.773 -31.332  1.00  0.00     0.037 A 
HETATM   13  C   UNL     1     -10.078   3.440 -30.516  1.00  0.00     0.061 A 
HETATM   14  C   UNL     1     -11.244   4.145 -30.708  1.00  0.00     0.065 A 
HETATM   15  C   UNL     1     -11.364   5.148 -31.667  1.00  0.00     0.063 A 
HETATM   16  N   UNL     1     -12.465   4.039 -30.048  1.00  0.00    -0.306 N 
HETATM   17  N   UNL     1     -12.655   5.658 -31.598  1.00  0.00    -0.307 N 
HETATM   18  C   UNL     1     -10.320   5.501 -32.485  1.00  0.00     0.034 A 
HETATM   19  C   UNL     1     -13.355   4.977 -30.589  1.00  0.00     0.325 A 
HETATM   20  H   UNL     1     -13.054   6.394 -32.154  1.00  0.00     0.170 HD
HETATM   21  O   UNL     1     -14.510   5.168 -30.254  1.00  0.00    -0.247 OA
HETATM   22  C   UNL     1      -9.121   4.799 -32.306  1.00  0.00     0.032 A 
HETATM   23  H   UNL     1     -12.694   3.408 -29.297  1.00  0.00     0.170 HD
ENDBRANCH   9  12
ENDBRANCH   7   8
ENDBRANCH   6   7
ENDBRANCH   3   6
BRANCH   2  24
HETATM   24  C   UNL     1      -6.702   0.443 -33.279  1.00  0.00     0.043 A 
HETATM   25  C   UNL     1      -7.175   1.147 -34.396  1.00  0.00     0.032 A 
HETATM   26  C   UNL     1      -8.548   1.353 -34.565  1.00  0.00     0.026 A 
HETATM   27  C   UNL     1      -9.448   0.858 -33.624  1.00  0.00     0.034 A 
HETATM   28 CL   UNL     1     -11.134   1.115 -33.836  1.00  0.00    -0.084 Cl
HETATM   29  C   UNL     1      -8.987   0.159 -32.510  1.00  0.00     0.026 A 
HETATM   30  C   UNL     1      -7.616  -0.048 -32.335  1.00  0.00     0.032 A 
ENDBRANCH   2  24
BRANCH   1  31
HETATM   31  C   UNL     1      -5.041  -2.171 -33.955  1.00  0.00     0.012 A 
HETATM   32  C   UNL     1      -4.214  -3.301 -33.862  1.00  0.00     0.015 A 
HETATM   33  C   UNL     1      -4.658  -4.547 -34.308  1.00  0.00     0.001 A 
HETATM   34  C   UNL     1      -5.938  -4.680 -34.843  1.00  0.00     0.000 A 
HETATM   35  C   UNL     1      -6.777  -3.572 -34.921  1.00  0.00     0.001 A 
HETATM   36  C   UNL     1      -6.336  -2.324 -34.471  1.00  0.00     0.015 A 
ENDBRANCH   1  31
TORSDOF 6
ENDMDL
MODEL 5
REMARK VINA RESULT:      -9.6      4.729      7.086
REMARK  6 active torsions:
REMARK  status: ('A' for Active; 'I' for Inactive)
REMARK    1  A    between atoms: C_4  and  C_5 
REMARK    2  A    between atoms: N_6  and  C_7 
REMARK    3  A    between atoms: C_14  and  S_15 
REMARK    4  A    between atoms: S_15  and  C_16 
REMARK    5  A    between atoms: C_16  and  C_17 
REMARK       I    between atoms: C_17  and  N_18 
REMARK    6  A    between atoms: N_18  and  C_19 
ROOT
HETATM    1  C   UNL     1      -4.697  -0.794 -33.317  1.00  0.00     0.169 A 
HETATM    2  N   UNL     1      -5.500   0.256 -32.861  1.00  0.00    -0.271 N 
HETATM    3  C   UNL     1      -4.597   1.138 -32.283  1.00  0.00     0.197 A 
HETATM    4  N   UNL     1      -3.373   0.691 -32.416  1.00  0.00    -0.122 NA
HETATM    5  N   UNL     1      -3.430  -0.500 -33.076  1.00  0.00    -0.128 NA
ENDROOT
BRANCH   3   6
HETATM    6  S   UNL     1      -4.967   2.728 -31.685  1.00  0.00    -0.080 SA
BRANCH   6   7
HETATM    7  C   UNL     1      -5.264   3.627 -33.240  1.00  0.00     0.185 C 
BRANCH   7   8
HETATM    8  C   UNL     1      -6.673   4.190 -33.403  1.00  0.00     0.231 C 
HETATM    9  N   UNL     1      -7.583   3.788 -32.443  1.00  0.00    -0.326 N 
HETATM   10  H   UNL     1      -7.230   3.128 -31.760  1.00  0.00     0.169 HD
HETATM   11  O   UNL     1      -6.892   5.017 -34.289  1.00  0.00    -0.272 OA
BRANCH   9  12
HETATM   12  C   UNL     1      -8.948   4.124 -32.343  1.00  0.00     0.037 A 
HETATM   13  C   UNL     1      -9.672   4.731 -33.377  1.00  0.00     0.061 A 
HETATM   14  C   UNL     1     -11.004   4.988 -33.142  1.00  0.00     0.065 A 
HETATM   15  C   UNL     1     -11.626   4.671 -31.937  1.00  0.00     0.063 A 
HETATM   16  N   UNL     1     -11.957   5.565 -33.976  1.00  0.00    -0.306 N 
HETATM   17  N   UNL     1     -12.959   5.053 -32.028  1.00  0.00    -0.307 N 
HETATM   18  C   UNL     1     -10.949   4.077 -30.902  1.00  0.00     0.034 A 
HETATM   19  C   UNL     1     -13.183   5.611 -33.297  1.00  0.00     0.325 A 
HETATM   20  H   UNL     1     -13.675   4.955 -31.329  1.00  0.00     0.170 HD
HETATM   21  O   UNL     1     -14.237   6.047 -33.721  1.00  0.00    -0.247 OA
HETATM   22  C   UNL     1      -9.592   3.803 -31.119  1.00  0.00     0.032 A 
HETATM   23  H   UNL     1     -11.818   5.895 -34.917  1.00  0.00     0.170 HD
ENDBRANCH   9  12
ENDBRANCH   7   8
ENDBRANCH   6   7
ENDBRANCH   3   6
BRANCH   2  24
HETATM   24  C   UNL     1      -6.910   0.399 -33.008  1.00  0.00     0.043 A 
HETATM   25  C   UNL     1      -7.766   0.169 -31.921  1.00  0.00     0.032 A 
HETATM   26  C   UNL     1      -9.150   0.302 -32.077  1.00  0.00     0.026 A 
HETATM   27  C   UNL     1      -9.679   0.665 -33.314  1.00  0.00     0.034 A 
HETATM   28 CL   UNL     1     -11.380   0.827 -33.500  1.00  0.00    -0.084 Cl
HETATM   29  C   UNL     1      -8.837   0.894 -34.399  1.00  0.00     0.026 A 
HETATM   30  C   UNL     1      -7.453   0.761 -34.249  1.00  0.00     0.032 A 
ENDBRANCH   2  24
BRANCH   1  31
HETATM   31  C   UNL     1      -5.128  -2.067 -33.898  1.00  0.00     0.012 A 
HETATM   32  C   UNL     1      -4.243  -3.156 -33.895  1.00  0.00     0.015 A 
HETATM   33  C   UNL     1      -4.630  -4.390 -34.422  1.00  0.00     0.001 A 
HETATM   34  C   UNL     1      -5.910  -4.552 -34.948  1.00  0.00     0.000 A 
HETATM   35  C   UNL     1      -6.807  -3.486 -34.937  1.00  0.00     0.001 A 
HETATM   36  C   UNL     1      -6.422  -2.251 -34.407  1.00  0.00     0.015 A 
ENDBRANCH   1  31
TORSDOF 6
ENDMDL
MODEL 6
REMARK VINA RESULT:      -9.5      2.578      4.582
REMARK  6 active torsions:
REMARK  status: ('A' for Active; 'I' for Inactive)
REMARK    1  A    between atoms: C_4  and  C_5 
REMARK    2  A    between atoms: N_6  and  C_7 
REMARK    3  A    between atoms: C_14  and  S_15 
REMARK    4  A    between atoms: S_15  and  C_16 
REMARK    5  A    between atoms: C_16  and  C_17 
REMARK       I    between atoms: C_17  and  N_18 
REMARK    6  A    between atoms: N_18  and  C_19 
ROOT
HETATM    1  C   UNL     1      -9.021   3.409 -33.854  1.00  0.00     0.169 A 
HETATM    2  N   UNL     1      -7.760   2.804 -33.827  1.00  0.00    -0.271 N 
HETATM    3  C   UNL     1      -6.889   3.863 -33.608  1.00  0.00     0.197 A 
HETATM    4  N   UNL     1      -7.556   4.982 -33.470  1.00  0.00    -0.122 NA
HETATM    5  N   UNL     1      -8.882   4.699 -33.602  1.00  0.00    -0.128 NA
ENDROOT
BRANCH   3   6
HETATM    6  S   UNL     1      -5.183   3.731 -33.303  1.00  0.00    -0.080 SA
BRANCH   6   7
HETATM    7  C   UNL     1      -4.539   5.103 -34.313  1.00  0.00     0.185 C 
BRANCH   7   8
HETATM    8  C   UNL     1      -3.398   5.893 -33.680  1.00  0.00     0.231 C 
HETATM    9  N   UNL     1      -3.078   5.529 -32.384  1.00  0.00    -0.326 N 
HETATM   10  H   UNL     1      -3.663   4.809 -31.978  1.00  0.00     0.169 HD
HETATM   11  O   UNL     1      -2.781   6.712 -34.360  1.00  0.00    -0.272 OA
BRANCH   9  12
HETATM   12  C   UNL     1      -2.093   6.086 -31.543  1.00  0.00     0.037 A 
HETATM   13  C   UNL     1      -2.382   6.948 -30.478  1.00  0.00     0.061 A 
HETATM   14  C   UNL     1      -1.318   7.402 -29.733  1.00  0.00     0.065 A 
HETATM   15  C   UNL     1      -0.003   7.038 -30.007  1.00  0.00     0.063 A 
HETATM   16  N   UNL     1      -1.305   8.249 -28.629  1.00  0.00    -0.306 N 
HETATM   17  N   UNL     1       0.819   7.659 -29.074  1.00  0.00    -0.307 N 
HETATM   18  C   UNL     1       0.319   6.196 -31.041  1.00  0.00     0.034 A 
HETATM   19  C   UNL     1       0.020   8.418 -28.204  1.00  0.00     0.325 A 
HETATM   20  H   UNL     1       1.820   7.594 -28.997  1.00  0.00     0.170 HD
HETATM   21  O   UNL     1       0.407   9.089 -27.265  1.00  0.00    -0.247 OA
HETATM   22  C   UNL     1      -0.748   5.717 -31.813  1.00  0.00     0.032 A 
HETATM   23  H   UNL     1      -2.101   8.677 -28.184  1.00  0.00     0.170 HD
ENDBRANCH   9  12
ENDBRANCH   7   8
ENDBRANCH   6   7
ENDBRANCH   3   6
BRANCH   2  24
HETATM   24  C   UNL     1      -7.458   1.417 -33.948  1.00  0.00     0.043 A 
HETATM   25  C   UNL     1      -7.282   0.625 -32.805  1.00  0.00     0.032 A 
HETATM   26  C   UNL     1      -6.976  -0.734 -32.933  1.00  0.00     0.026 A 
HETATM   27  C   UNL     1      -6.847  -1.302 -34.198  1.00  0.00     0.034 A 
HETATM   28 CL   UNL     1      -6.470  -2.973 -34.350  1.00  0.00    -0.084 Cl
HETATM   29  C   UNL     1      -7.018  -0.523 -35.339  1.00  0.00     0.026 A 
HETATM   30  C   UNL     1      -7.322   0.836 -35.217  1.00  0.00     0.032 A 
ENDBRANCH   2  24
BRANCH   1  31
HETATM   31  C   UNL     1     -10.307   2.788 -34.180  1.00  0.00     0.012 A 
HETATM   32  C   UNL     1     -11.075   3.317 -35.228  1.00  0.00     0.015 A 
HETATM   33  C   UNL     1     -12.296   2.737 -35.579  1.00  0.00     0.001 A 
HETATM   34  C   UNL     1     -12.757   1.616 -34.892  1.00  0.00     0.000 A 
HETATM   35  C   UNL     1     -11.995   1.068 -33.864  1.00  0.00     0.001 A 
HETATM   36  C   UNL     1     -10.770   1.645 -33.514  1.00  0.00     0.015 A 
ENDBRANCH   1  31
TORSDOF 6
ENDMDL
MODEL 7
REMARK VINA RESULT:      -9.4      4.790      9.501
REMARK  6 active torsions:
REMARK  status: ('A' for Active; 'I' for Inactive)
REMARK    1  A    between atoms: C_4  and  C_5 
REMARK    2  A    between atoms: N_6  and  C_7 
REMARK    3  A    between atoms: C_14  and  S_15 
REMARK    4  A    between atoms: S_15  and  C_16 
REMARK    5  A    between atoms: C_16  and  C_17 
REMARK       I    between atoms: C_17  and  N_18 
REMARK    6  A    between atoms: N_18  and  C_19 
ROOT
HETATM    1  C   UNL     1      -5.903   2.604 -30.105  1.00  0.00     0.169 A 
HETATM    2  N   UNL     1      -4.856   2.279 -30.973  1.00  0.00    -0.271 N 
HETATM    3  C   UNL     1      -4.701   0.909 -30.807  1.00  0.00     0.197 A 
HETATM    4  N   UNL     1      -5.589   0.447 -29.963  1.00  0.00    -0.122 NA
HETATM    5  N   UNL     1      -6.351   1.495 -29.541  1.00  0.00    -0.128 NA
ENDROOT
BRANCH   3   6
HETATM    6  S   UNL     1      -3.661  -0.118 -31.748  1.00  0.00    -0.080 SA
BRANCH   6   7
HETATM    7  C   UNL     1      -4.882  -1.162 -32.605  1.00  0.00     0.185 C 
BRANCH   7   8
HETATM    8  C   UNL     1      -6.029  -0.405 -33.268  1.00  0.00     0.231 C 
HETATM    9  N   UNL     1      -7.077  -0.072 -32.430  1.00  0.00    -0.326 N 
HETATM   10  H   UNL     1      -6.993  -0.404 -31.477  1.00  0.00     0.169 HD
HETATM   11  O   UNL     1      -5.922  -0.059 -34.445  1.00  0.00    -0.272 OA
BRANCH   9  12
HETATM   12  C   UNL     1      -8.271   0.603 -32.756  1.00  0.00     0.037 A 
HETATM   13  C   UNL     1      -9.510  -0.036 -32.889  1.00  0.00     0.061 A 
HETATM   14  C   UNL     1     -10.593   0.755 -33.197  1.00  0.00     0.065 A 
HETATM   15  C   UNL     1     -10.488   2.132 -33.378  1.00  0.00     0.063 A 
HETATM   16  N   UNL     1     -11.927   0.402 -33.378  1.00  0.00    -0.306 N 
HETATM   17  N   UNL     1     -11.753   2.626 -33.670  1.00  0.00    -0.307 N 
HETATM   18  C   UNL     1      -9.291   2.792 -33.257  1.00  0.00     0.034 A 
HETATM   19  C   UNL     1     -12.664   1.558 -33.671  1.00  0.00     0.325 A 
HETATM   20  H   UNL     1     -12.013   3.581 -33.848  1.00  0.00     0.170 HD
HETATM   21  O   UNL     1     -13.861   1.627 -33.886  1.00  0.00    -0.247 OA
HETATM   22  C   UNL     1      -8.173   2.008 -32.940  1.00  0.00     0.032 A 
HETATM   23  H   UNL     1     -12.324  -0.520 -33.307  1.00  0.00     0.170 HD
ENDBRANCH   9  12
ENDBRANCH   7   8
ENDBRANCH   6   7
ENDBRANCH   3   6
BRANCH   2  24
HETATM   24  C   UNL     1      -4.155   3.152 -31.854  1.00  0.00     0.043 A 
HETATM   25  C   UNL     1      -2.834   3.533 -31.577  1.00  0.00     0.032 A 
HETATM   26  C   UNL     1      -2.157   4.398 -32.443  1.00  0.00     0.026 A 
HETATM   27  C   UNL     1      -2.795   4.881 -33.584  1.00  0.00     0.034 A 
HETATM   28 CL   UNL     1      -1.958   5.944 -34.644  1.00  0.00    -0.084 Cl
HETATM   29  C   UNL     1      -4.107   4.510 -33.866  1.00  0.00     0.026 A 
HETATM   30  C   UNL     1      -4.790   3.647 -33.003  1.00  0.00     0.032 A 
ENDBRANCH   2  24
BRANCH   1  31
HETATM   31  C   UNL     1      -6.411   3.936 -29.770  1.00  0.00     0.012 A 
HETATM   32  C   UNL     1      -7.731   4.271 -30.108  1.00  0.00     0.015 A 
HETATM   33  C   UNL     1      -8.252   5.526 -29.785  1.00  0.00     0.001 A 
HETATM   34  C   UNL     1      -7.463   6.455 -29.111  1.00  0.00     0.000 A 
HETATM   35  C   UNL     1      -6.158   6.128 -28.750  1.00  0.00     0.001 A 
HETATM   36  C   UNL     1      -5.636   4.872 -29.070  1.00  0.00     0.015 A 
ENDBRANCH   1  31
TORSDOF 6
ENDMDL
MODEL 8
REMARK VINA RESULT:      -9.3      4.444      9.685
REMARK  6 active torsions:
REMARK  status: ('A' for Active; 'I' for Inactive)
REMARK    1  A    between atoms: C_4  and  C_5 
REMARK    2  A    between atoms: N_6  and  C_7 
REMARK    3  A    between atoms: C_14  and  S_15 
REMARK    4  A    between atoms: S_15  and  C_16 
REMARK    5  A    between atoms: C_16  and  C_17 
REMARK       I    between atoms: C_17  and  N_18 
REMARK    6  A    between atoms: N_18  and  C_19 
ROOT
HETATM    1  C   UNL     1      -4.457   5.112 -33.317  1.00  0.00     0.169 A 
HETATM    2  N   UNL     1      -5.521   5.205 -32.414  1.00  0.00    -0.271 N 
HETATM    3  C   UNL     1      -6.616   4.767 -33.148  1.00  0.00     0.197 A 
HETATM    4  N   UNL     1      -6.246   4.405 -34.350  1.00  0.00    -0.122 NA
HETATM    5  N   UNL     1      -4.900   4.599 -34.452  1.00  0.00    -0.128 NA
ENDROOT
BRANCH   3   6
HETATM    6  S   UNL     1      -8.214   4.488 -32.522  1.00  0.00    -0.080 SA
BRANCH   6   7
HETATM    7  C   UNL     1      -8.811   3.192 -33.653  1.00  0.00     0.185 C 
BRANCH   7   8
HETATM    8  C   UNL     1      -8.289   1.788 -33.362  1.00  0.00     0.231 C 
HETATM    9  N   UNL     1      -7.253   1.365 -34.175  1.00  0.00    -0.326 N 
HETATM   10  H   UNL     1      -6.981   2.013 -34.904  1.00  0.00     0.169 HD
HETATM   11  O   UNL     1      -8.734   1.167 -32.396  1.00  0.00    -0.272 OA
BRANCH   9  12
HETATM   12  C   UNL     1      -6.587   0.123 -34.159  1.00  0.00     0.037 A 
HETATM   13  C   UNL     1      -7.139  -1.059 -34.666  1.00  0.00     0.061 A 
HETATM   14  C   UNL     1      -6.365  -2.194 -34.596  1.00  0.00     0.065 A 
HETATM   15  C   UNL     1      -5.086  -2.195 -34.044  1.00  0.00     0.063 A 
HETATM   16  N   UNL     1      -6.646  -3.488 -35.023  1.00  0.00    -0.306 N 
HETATM   17  N   UNL     1      -4.581  -3.486 -34.131  1.00  0.00    -0.307 N 
HETATM   18  C   UNL     1      -4.512  -1.057 -33.536  1.00  0.00     0.034 A 
HETATM   19  C   UNL     1      -5.543  -4.307 -34.743  1.00  0.00     0.325 A 
HETATM   20  H   UNL     1      -3.681  -3.815 -33.826  1.00  0.00     0.170 HD
HETATM   21  O   UNL     1      -5.434  -5.496 -34.981  1.00  0.00    -0.247 OA
HETATM   22  C   UNL     1      -5.280   0.113 -33.600  1.00  0.00     0.032 A 
HETATM   23  H   UNL     1      -7.490  -3.809 -35.469  1.00  0.00     0.170 HD
ENDBRANCH   9  12
ENDBRANCH   7   8
ENDBRANCH   6   7
ENDBRANCH   3   6
BRANCH   2  24
HETATM   24  C   UNL     1      -5.471   5.608 -31.049  1.00  0.00     0.043 A 
HETATM   25  C   UNL     1      -5.732   4.687 -30.025  1.00  0.00     0.032 A 
HETATM   26  C   UNL     1      -5.691   5.094 -28.687  1.00  0.00     0.026 A 
HETATM   27  C   UNL     1      -5.388   6.416 -28.371  1.00  0.00     0.034 A 
HETATM   28 CL   UNL     1      -5.338   6.911 -26.725  1.00  0.00    -0.084 Cl
HETATM   29  C   UNL     1      -5.128   7.339 -29.381  1.00  0.00     0.026 A 
HETATM   30  C   UNL     1      -5.171   6.938 -30.720  1.00  0.00     0.032 A 
ENDBRANCH   2  24
BRANCH   1  31
HETATM   31  C   UNL     1      -3.077   5.567 -33.127  1.00  0.00     0.012 A 
HETATM   32  C   UNL     1      -2.687   6.809 -33.649  1.00  0.00     0.015 A 
HETATM   33  C   UNL     1      -1.385   7.281 -33.468  1.00  0.00     0.001 A 
HETATM   34  C   UNL     1      -0.462   6.520 -32.754  1.00  0.00     0.000 A 
HETATM   35  C   UNL     1      -0.841   5.294 -32.212  1.00  0.00     0.001 A 
HETATM   36  C   UNL     1      -2.145   4.822 -32.389  1.00  0.00     0.015 A 
ENDBRANCH   1  31
TORSDOF 6
ENDMDL
MODEL 9
REMARK VINA RESULT:      -9.2      4.891      7.982
REMARK  6 active torsions:
REMARK  status: ('A' for Active; 'I' for Inactive)
REMARK    1  A    between atoms: C_4  and  C_5 
REMARK    2  A    between atoms: N_6  and  C_7 
REMARK    3  A    between atoms: C_14  and  S_15 
REMARK    4  A    between atoms: S_15  and  C_16 
REMARK    5  A    between atoms: C_16  and  C_17 
REMARK       I    between atoms: C_17  and  N_18 
REMARK    6  A    between atoms: N_18  and  C_19 
ROOT
HETATM    1  C   UNL     1      -5.143   0.276 -32.956  1.00  0.00     0.169 A 
HETATM    2  N   UNL     1      -6.187   1.114 -32.552  1.00  0.00    -0.271 N 
HETATM    3  C   UNL     1      -5.540   2.167 -31.918  1.00  0.00     0.197 A 
HETATM    4  N   UNL     1      -4.241   2.005 -31.973  1.00  0.00    -0.122 NA
HETATM    5  N   UNL     1      -3.991   0.841 -32.636  1.00  0.00    -0.128 NA
ENDROOT
BRANCH   3   6
HETATM    6  S   UNL     1      -6.292   3.626 -31.344  1.00  0.00    -0.080 SA
BRANCH   6   7
HETATM    7  C   UNL     1      -6.474   4.559 -32.897  1.00  0.00     0.185 C 
BRANCH   7   8
HETATM    8  C   UNL     1      -7.910   4.743 -33.377  1.00  0.00     0.231 C 
HETATM    9  N   UNL     1      -8.885   4.441 -32.444  1.00  0.00    -0.326 N 
HETATM   10  H   UNL     1      -8.545   4.089 -31.558  1.00  0.00     0.169 HD
HETATM   11  O   UNL     1      -8.116   5.223 -34.491  1.00  0.00    -0.272 OA
BRANCH   9  12
HETATM   12  C   UNL     1     -10.285   4.495 -32.602  1.00  0.00     0.037 A 
HETATM   13  C   UNL     1     -11.174   3.652 -31.923  1.00  0.00     0.061 A 
HETATM   14  C   UNL     1     -12.516   3.830 -32.166  1.00  0.00     0.065 A 
HETATM   15  C   UNL     1     -12.996   4.795 -33.047  1.00  0.00     0.063 A 
HETATM   16  N   UNL     1     -13.612   3.156 -31.635  1.00  0.00    -0.306 N 
HETATM   17  N   UNL     1     -14.383   4.715 -33.060  1.00  0.00    -0.307 N 
HETATM   18  C   UNL     1     -12.157   5.638 -33.731  1.00  0.00     0.034 A 
HETATM   19  C   UNL     1     -14.784   3.696 -32.180  1.00  0.00     0.325 A 
HETATM   20  H   UNL     1     -15.026   5.279 -33.589  1.00  0.00     0.170 HD
HETATM   21  O   UNL     1     -15.928   3.354 -31.941  1.00  0.00    -0.247 OA
HETATM   22  C   UNL     1     -10.784   5.478 -33.498  1.00  0.00     0.032 A 
HETATM   23  H   UNL     1     -13.593   2.405 -30.963  1.00  0.00     0.170 HD
ENDBRANCH   9  12
ENDBRANCH   7   8
ENDBRANCH   6   7
ENDBRANCH   3   6
BRANCH   2  24
HETATM   24  C   UNL     1      -7.581   0.942 -32.787  1.00  0.00     0.043 A 
HETATM   25  C   UNL     1      -8.402   0.364 -31.808  1.00  0.00     0.032 A 
HETATM   26  C   UNL     1      -9.768   0.189 -32.052  1.00  0.00     0.026 A 
HETATM   27  C   UNL     1     -10.316   0.592 -33.268  1.00  0.00     0.034 A 
HETATM   28 CL   UNL     1     -11.995   0.375 -33.563  1.00  0.00    -0.084 Cl
HETATM   29  C   UNL     1      -9.508   1.165 -34.247  1.00  0.00     0.026 A 
HETATM   30  C   UNL     1      -8.141   1.340 -34.010  1.00  0.00     0.032 A 
ENDBRANCH   2  24
BRANCH   1  31
HETATM   31  C   UNL     1      -5.243  -1.054 -33.562  1.00  0.00     0.012 A 
HETATM   32  C   UNL     1      -6.388  -1.384 -34.303  1.00  0.00     0.015 A 
HETATM   33  C   UNL     1      -6.507  -2.636 -34.911  1.00  0.00     0.001 A 
HETATM   34  C   UNL     1      -5.477  -3.567 -34.794  1.00  0.00     0.000 A 
HETATM   35  C   UNL     1      -4.325  -3.244 -34.080  1.00  0.00     0.001 A 
HETATM   36  C   UNL     1      -4.204  -1.990 -33.474  1.00  0.00     0.015 A 
ENDBRANCH   1  31
TORSDOF 6
ENDMDL
MODEL 10
REMARK VINA RESULT:      -9.2      4.732      8.615
REMARK  6 active torsions:
REMARK  status: ('A' for Active; 'I' for Inactive)
REMARK    1  A    between atoms: C_4  and  C_5 
REMARK    2  A    between atoms: N_6  and  C_7 
REMARK    3  A    between atoms: C_14  and  S_15 
REMARK    4  A    between atoms: S_15  and  C_16 
REMARK    5  A    between atoms: C_16  and  C_17 
REMARK       I    between atoms: C_17  and  N_18 
REMARK    6  A    between atoms: N_18  and  C_19 
ROOT
HETATM    1  C   UNL     1      -5.950   2.336 -31.332  1.00  0.00     0.169 A 
HETATM    2  N   UNL     1      -5.387   3.614 -31.413  1.00  0.00    -0.271 N 
HETATM    3  C   UNL     1      -6.033   4.325 -30.410  1.00  0.00     0.197 A 
HETATM    4  N   UNL     1      -6.864   3.548 -29.761  1.00  0.00    -0.122 NA
HETATM    5  N   UNL     1      -6.800   2.306 -30.319  1.00  0.00    -0.128 NA
ENDROOT
BRANCH   3   6
HETATM    6  S   UNL     1      -5.644   5.939 -29.894  1.00  0.00    -0.080 SA
BRANCH   6   7
HETATM    7  C   UNL     1      -6.409   6.924 -31.221  1.00  0.00     0.185 C 
BRANCH   7   8
HETATM    8  C   UNL     1      -7.779   6.436 -31.682  1.00  0.00     0.231 C 
HETATM    9  N   UNL     1      -7.836   5.998 -32.993  1.00  0.00    -0.326 N 
HETATM   10  H   UNL     1      -6.976   6.089 -33.519  1.00  0.00     0.169 HD
HETATM   11  O   UNL     1      -8.700   6.369 -30.869  1.00  0.00    -0.272 OA
BRANCH   9  12
HETATM   12  C   UNL     1      -8.956   5.514 -33.699  1.00  0.00     0.037 A 
HETATM   13  C   UNL     1      -9.199   4.154 -33.925  1.00  0.00     0.061 A 
HETATM   14  C   UNL     1     -10.343   3.828 -34.618  1.00  0.00     0.065 A 
HETATM   15  C   UNL     1     -11.233   4.790 -35.088  1.00  0.00     0.063 A 
HETATM   16  N   UNL     1     -10.838   2.578 -34.976  1.00  0.00    -0.306 N 
HETATM   17  N   UNL     1     -12.274   4.134 -35.734  1.00  0.00    -0.307 N 
HETATM   18  C   UNL     1     -11.028   6.132 -34.886  1.00  0.00     0.034 A 
HETATM   19  C   UNL     1     -12.043   2.751 -35.671  1.00  0.00     0.325 A 
HETATM   20  H   UNL     1     -13.078   4.546 -36.176  1.00  0.00     0.170 HD
HETATM   21  O   UNL     1     -12.755   1.876 -36.130  1.00  0.00    -0.247 OA
HETATM   22  C   UNL     1      -9.871   6.488 -34.179  1.00  0.00     0.032 A 
HETATM   23  H   UNL     1     -10.424   1.682 -34.775  1.00  0.00     0.170 HD
ENDBRANCH   9  12
ENDBRANCH   7   8
ENDBRANCH   6   7
ENDBRANCH   3   6
BRANCH   2  24
HETATM   24  C   UNL     1      -4.356   4.056 -32.291  1.00  0.00     0.043 A 
HETATM   25  C   UNL     1      -4.670   4.556 -33.563  1.00  0.00     0.032 A 
HETATM   26  C   UNL     1      -3.650   4.978 -34.422  1.00  0.00     0.026 A 
HETATM   27  C   UNL     1      -2.320   4.903 -34.014  1.00  0.00     0.034 A 
HETATM   28 CL   UNL     1      -1.070   5.423 -35.074  1.00  0.00    -0.084 Cl
HETATM   29  C   UNL     1      -1.999   4.406 -32.753  1.00  0.00     0.026 A 
HETATM   30  C   UNL     1      -3.014   3.981 -31.891  1.00  0.00     0.032 A 
ENDBRANCH   2  24
BRANCH   1  31
HETATM   31  C   UNL     1      -5.738   1.203 -32.236  1.00  0.00     0.012 A 
HETATM   32  C   UNL     1      -4.811   0.211 -31.884  1.00  0.00     0.015 A 
HETATM   33  C   UNL     1      -4.600  -0.893 -32.713  1.00  0.00     0.001 A 
HETATM   34  C   UNL     1      -5.321  -1.021 -33.899  1.00  0.00     0.000 A 
HETATM   35  C   UNL     1      -6.260  -0.053 -34.250  1.00  0.00     0.001 A 
HETATM   36  C   UNL     1      -6.475   1.050 -33.419  1.00  0.00     0.015 A 
ENDBRANCH   1  31
TORSDOF 6
ENDMDL
