MODEL 1
REMARK VINA RESULT:      -8.1      0.000      0.000
REMARK  6 active torsions:
REMARK  status: ('A' for Active; 'I' for Inactive)
REMARK    1  A    between atoms: C_9  and  C_10 
REMARK    2  A    between atoms: C_12  and  O_13 
REMARK    3  A    between atoms: C_15  and  O_16 
REMARK    4  A    between atoms: O_16  and  C_17 
REMARK    5  A    between atoms: C_17  and  C_18 
REMARK    6  A    between atoms: C_18  and  N_19 
ROOT
HETATM    1  H   UNL     1      -6.489   0.556 -29.160  1.00  0.00     0.186 HD
HETATM    2  N   UNL     1      -6.896   0.506 -30.106  1.00  0.00    -0.304 NA
HETATM    3  C   UNL     1      -6.145   0.991 -31.046  1.00  0.00     0.062 C 
HETATM    4  C   UNL     1      -6.604   0.938 -32.517  1.00  0.00     0.173 C 
HETATM    5  C   UNL     1      -5.737  -0.075 -33.247  1.00  0.00     0.012 C 
HETATM    6  N   UNL     1      -5.018  -0.915 -33.852  1.00  0.00    -0.099 N 
HETATM    7  C   UNL     1      -8.011   0.485 -32.635  1.00  0.00     0.090 C 
HETATM    8  N   UNL     1      -9.129   0.209 -32.785  1.00  0.00    -0.195 NA
HETATM    9  C   UNL     1      -6.447   2.353 -33.189  1.00  0.00     0.070 C 
HETATM   10  C   UNL     1      -5.028   2.959 -32.946  1.00  0.00     0.053 C 
HETATM   11  C   UNL     1      -4.644   2.957 -31.472  1.00  0.00    -0.052 C 
HETATM   12  C   UNL     1      -4.074   4.043 -30.908  1.00  0.00     0.005 C 
HETATM   13  C   UNL     1      -4.808   1.650 -30.707  1.00  0.00     0.171 C 
HETATM   14  C   UNL     1      -3.669   0.767 -30.991  1.00  0.00     0.074 C 
HETATM   15  N   UNL     1      -2.728   0.150 -31.266  1.00  0.00    -0.196 NA
HETATM   16  C   UNL     1      -4.850   4.341 -33.632  1.00  0.00     0.244 C 
HETATM   17  N   UNL     1      -3.606   5.044 -33.146  1.00  0.00    -0.071 N 
HETATM   18  H   UNL     1      -3.601   5.978 -33.577  1.00  0.00     0.279 HD
HETATM   19  C   UNL     1      -2.314   4.407 -33.598  1.00  0.00     0.270 C 
HETATM   20  C   UNL     1      -3.671   5.276 -31.659  1.00  0.00     0.262 C 
ENDROOT
BRANCH   9  21
HETATM   21  C   UNL     1      -7.605   3.320 -32.877  1.00  0.00    -0.047 A 
HETATM   22  C   UNL     1      -7.957   3.704 -31.574  1.00  0.00     0.047 A 
HETATM   23  C   UNL     1      -9.157   4.390 -31.328  1.00  0.00     0.102 A 
HETATM   24  C   UNL     1      -9.987   4.792 -32.382  1.00  0.00     0.102 A 
HETATM   25  C   UNL     1      -9.592   4.505 -33.687  1.00  0.00     0.040 A 
HETATM   26  C   UNL     1      -8.430   3.757 -33.930  1.00  0.00     0.010 A 
BRANCH  23  27
HETATM   27  O   UNL     1      -9.546   4.693 -30.044  1.00  0.00    -0.353 OA
HETATM   28  C   UNL     1      -8.675   5.654 -29.435  1.00  0.00     0.210 C 
ENDBRANCH  23  27
BRANCH  24  29
HETATM   29  O   UNL     1     -11.151   5.433 -32.038  1.00  0.00    -0.347 OA
BRANCH  29  30
HETATM   30  C   UNL     1     -12.349   4.967 -32.669  1.00  0.00     0.203 C 
BRANCH  30  31
HETATM   31  C   UNL     1     -12.934   3.825 -31.826  1.00  0.00     0.261 C 
BRANCH  31  32
HETATM   32  N   UNL     1     -13.167   2.567 -32.643  1.00  0.00    -0.065 N 
HETATM   33  H   UNL     1     -12.601   1.829 -32.194  1.00  0.00     0.280 HD
HETATM   34  C   UNL     1     -14.615   2.094 -32.656  1.00  0.00     0.261 C 
HETATM   35  C   UNL     1     -14.747   0.847 -33.536  1.00  0.00     0.195 C 
HETATM   36  O   UNL     1     -14.291   1.109 -34.866  1.00  0.00    -0.388 OA
HETATM   37  C   UNL     1     -12.907   1.470 -34.887  1.00  0.00     0.195 C 
HETATM   38  C   UNL     1     -12.664   2.746 -34.077  1.00  0.00     0.261 C 
ENDBRANCH  31  32
ENDBRANCH  30  31
ENDBRANCH  29  30
ENDBRANCH  24  29
ENDBRANCH   9  21
TORSDOF 6
ENDMDL
MODEL 2
REMARK VINA RESULT:      -8.0      3.416      7.948
REMARK  6 active torsions:
REMARK  status: ('A' for Active; 'I' for Inactive)
REMARK    1  A    between atoms: C_9  and  C_10 
REMARK    2  A    between atoms: C_12  and  O_13 
REMARK    3  A    between atoms: C_15  and  O_16 
REMARK    4  A    between atoms: O_16  and  C_17 
REMARK    5  A    between atoms: C_17  and  C_18 
REMARK    6  A    between atoms: C_18  and  N_19 
ROOT
HETATM    1  H   UNL     1     -12.264   2.538 -37.043  1.00  0.00     0.186 HD
HETATM    2  N   UNL     1     -12.429   2.102 -36.123  1.00  0.00    -0.304 NA
HETATM    3  C   UNL     1     -12.208   2.879 -35.108  1.00  0.00     0.062 C 
HETATM    4  C   UNL     1     -12.461   2.376 -33.673  1.00  0.00     0.173 C 
HETATM    5  C   UNL     1     -13.682   3.098 -33.126  1.00  0.00     0.012 C 
HETATM    6  N   UNL     1     -14.695   3.696 -32.673  1.00  0.00    -0.099 N 
HETATM    7  C   UNL     1     -12.755   0.923 -33.645  1.00  0.00     0.090 C 
HETATM    8  N   UNL     1     -12.917  -0.223 -33.553  1.00  0.00    -0.195 NA
HETATM    9  C   UNL     1     -11.214   2.679 -32.761  1.00  0.00     0.070 C 
HETATM   10  C   UNL     1     -10.749   4.166 -32.884  1.00  0.00     0.053 C 
HETATM   11  C   UNL     1     -10.542   4.587 -34.333  1.00  0.00    -0.052 C 
HETATM   12  C   UNL     1      -9.451   5.296 -34.693  1.00  0.00     0.005 C 
HETATM   13  C   UNL     1     -11.666   4.292 -35.317  1.00  0.00     0.171 C 
HETATM   14  C   UNL     1     -12.716   5.312 -35.185  1.00  0.00     0.074 C 
HETATM   15  N   UNL     1     -13.480   6.166 -35.017  1.00  0.00    -0.196 NA
HETATM   16  C   UNL     1      -9.540   4.486 -31.964  1.00  0.00     0.244 C 
HETATM   17  N   UNL     1      -8.918   5.817 -32.311  1.00  0.00    -0.071 N 
HETATM   18  H   UNL     1      -8.080   5.919 -31.722  1.00  0.00     0.279 HD
HETATM   19  C   UNL     1      -9.775   7.011 -31.970  1.00  0.00     0.270 C 
HETATM   20  C   UNL     1      -8.424   5.820 -33.735  1.00  0.00     0.262 C 
ENDROOT
BRANCH   9  21
HETATM   21  C   UNL     1     -10.075   1.651 -32.905  1.00  0.00    -0.047 A 
HETATM   22  C   UNL     1      -9.338   1.163 -31.815  1.00  0.00     0.047 A 
HETATM   23  C   UNL     1      -8.165   0.418 -32.019  1.00  0.00     0.102 A 
HETATM   24  C   UNL     1      -7.751   0.063 -33.309  1.00  0.00     0.102 A 
HETATM   25  C   UNL     1      -8.536   0.456 -34.392  1.00  0.00     0.040 A 
HETATM   26  C   UNL     1      -9.668   1.261 -34.194  1.00  0.00     0.010 A 
BRANCH  23  27
HETATM   27  O   UNL     1      -7.395   0.011 -30.955  1.00  0.00    -0.353 OA
HETATM   28  C   UNL     1      -6.501   1.040 -30.516  1.00  0.00     0.210 C 
ENDBRANCH  23  27
BRANCH  24  29
HETATM   29  O   UNL     1      -6.578  -0.643 -33.406  1.00  0.00    -0.347 OA
BRANCH  29  30
HETATM   30  C   UNL     1      -5.443   0.070 -33.909  1.00  0.00     0.203 C 
BRANCH  30  31
HETATM   31  C   UNL     1      -4.188  -0.424 -33.174  1.00  0.00     0.261 C 
BRANCH  31  32
HETATM   32  N   UNL     1      -4.211  -1.924 -32.941  1.00  0.00    -0.065 N 
HETATM   33  H   UNL     1      -5.097  -2.121 -32.448  1.00  0.00     0.280 HD
HETATM   34  C   UNL     1      -4.201  -2.751 -34.220  1.00  0.00     0.261 C 
HETATM   35  C   UNL     1      -4.186  -4.244 -33.875  1.00  0.00     0.195 C 
HETATM   36  O   UNL     1      -3.058  -4.569 -33.057  1.00  0.00    -0.388 OA
HETATM   37  C   UNL     1      -3.093  -3.869 -31.810  1.00  0.00     0.195 C 
HETATM   38  C   UNL     1      -3.056  -2.354 -32.033  1.00  0.00     0.261 C 
ENDBRANCH  31  32
ENDBRANCH  30  31
ENDBRANCH  29  30
ENDBRANCH  24  29
ENDBRANCH   9  21
TORSDOF 6
ENDMDL
MODEL 3
REMARK VINA RESULT:      -8.0      4.055      8.714
REMARK  6 active torsions:
REMARK  status: ('A' for Active; 'I' for Inactive)
REMARK    1  A    between atoms: C_9  and  C_10 
REMARK    2  A    between atoms: C_12  and  O_13 
REMARK    3  A    between atoms: C_15  and  O_16 
REMARK    4  A    between atoms: O_16  and  C_17 
REMARK    5  A    between atoms: C_17  and  C_18 
REMARK    6  A    between atoms: C_18  and  N_19 
ROOT
HETATM    1  H   UNL     1      -8.402   3.084 -29.626  1.00  0.00     0.186 HD
HETATM    2  N   UNL     1      -8.170   3.553 -30.514  1.00  0.00    -0.304 NA
HETATM    3  C   UNL     1      -7.909   2.751 -31.500  1.00  0.00     0.062 C 
HETATM    4  C   UNL     1      -7.594   3.313 -32.900  1.00  0.00     0.173 C 
HETATM    5  C   UNL     1      -8.769   2.998 -33.812  1.00  0.00     0.012 C 
HETATM    6  N   UNL     1      -9.743   2.737 -34.569  1.00  0.00    -0.099 N 
HETATM    7  C   UNL     1      -7.434   4.787 -32.876  1.00  0.00     0.090 C 
HETATM    8  N   UNL     1      -7.224   5.929 -32.905  1.00  0.00    -0.195 NA
HETATM    9  C   UNL     1      -6.285   2.650 -33.472  1.00  0.00     0.070 C 
HETATM   10  C   UNL     1      -6.326   1.092 -33.363  1.00  0.00     0.053 C 
HETATM   11  C   UNL     1      -6.662   0.621 -31.955  1.00  0.00    -0.052 C 
HETATM   12  C   UNL     1      -5.970  -0.386 -31.382  1.00  0.00     0.005 C 
HETATM   13  C   UNL     1      -7.881   1.238 -31.281  1.00  0.00     0.171 C 
HETATM   14  C   UNL     1      -9.101   0.585 -31.776  1.00  0.00     0.074 C 
HETATM   15  N   UNL     1     -10.001   0.004 -32.216  1.00  0.00    -0.196 NA
HETATM   16  C   UNL     1      -5.054   0.425 -33.954  1.00  0.00     0.244 C 
HETATM   17  N   UNL     1      -4.967  -1.034 -33.575  1.00  0.00    -0.071 N 
HETATM   18  H   UNL     1      -4.066  -1.383 -33.927  1.00  0.00     0.279 HD
HETATM   19  C   UNL     1      -6.003  -1.911 -34.236  1.00  0.00     0.270 C 
HETATM   20  C   UNL     1      -4.914  -1.193 -32.077  1.00  0.00     0.262 C 
ENDROOT
BRANCH   9  21
HETATM   21  C   UNL     1      -4.985   3.284 -32.941  1.00  0.00    -0.047 A 
HETATM   22  C   UNL     1      -4.133   4.068 -33.733  1.00  0.00     0.047 A 
HETATM   23  C   UNL     1      -2.853   4.420 -33.277  1.00  0.00     0.102 A 
HETATM   24  C   UNL     1      -2.428   4.081 -31.987  1.00  0.00     0.102 A 
HETATM   25  C   UNL     1      -3.310   3.392 -31.155  1.00  0.00     0.040 A 
HETATM   26  C   UNL     1      -4.562   2.977 -31.635  1.00  0.00     0.010 A 
BRANCH  23  27
HETATM   27  O   UNL     1      -1.984   5.117 -34.083  1.00  0.00    -0.353 OA
HETATM   28  C   UNL     1      -2.371   6.488 -34.229  1.00  0.00     0.210 C 
ENDBRANCH  23  27
BRANCH  24  29
HETATM   29  O   UNL     1      -1.151   4.447 -31.643  1.00  0.00    -0.347 OA
BRANCH  29  30
HETATM   30  C   UNL     1      -1.019   5.606 -30.813  1.00  0.00     0.203 C 
BRANCH  30  31
HETATM   31  C   UNL     1       0.064   5.335 -29.759  1.00  0.00     0.261 C 
BRANCH  31  32
HETATM   32  N   UNL     1      -0.293   5.917 -28.403  1.00  0.00    -0.065 N 
HETATM   33  H   UNL     1      -0.597   5.119 -27.824  1.00  0.00     0.280 HD
HETATM   34  C   UNL     1       0.874   6.587 -27.690  1.00  0.00     0.261 C 
HETATM   35  C   UNL     1       0.401   7.174 -26.355  1.00  0.00     0.195 C 
HETATM   36  O   UNL     1      -0.669   8.102 -26.555  1.00  0.00    -0.388 OA
HETATM   37  C   UNL     1      -1.810   7.473 -27.144  1.00  0.00     0.195 C 
HETATM   38  C   UNL     1      -1.465   6.894 -28.520  1.00  0.00     0.261 C 
ENDBRANCH  31  32
ENDBRANCH  30  31
ENDBRANCH  29  30
ENDBRANCH  24  29
ENDBRANCH   9  21
TORSDOF 6
ENDMDL
MODEL 4
REMARK VINA RESULT:      -7.7      3.246      7.980
REMARK  6 active torsions:
REMARK  status: ('A' for Active; 'I' for Inactive)
REMARK    1  A    between atoms: C_9  and  C_10 
REMARK    2  A    between atoms: C_12  and  O_13 
REMARK    3  A    between atoms: C_15  and  O_16 
REMARK    4  A    between atoms: O_16  and  C_17 
REMARK    5  A    between atoms: C_17  and  C_18 
REMARK    6  A    between atoms: C_18  and  N_19 
ROOT
HETATM    1  H   UNL     1     -10.034   2.275 -29.946  1.00  0.00     0.186 HD
HETATM    2  N   UNL     1      -9.927   2.848 -30.797  1.00  0.00    -0.304 NA
HETATM    3  C   UNL     1      -9.466   2.208 -31.827  1.00  0.00     0.062 C 
HETATM    4  C   UNL     1      -9.301   2.926 -33.181  1.00  0.00     0.173 C 
HETATM    5  C   UNL     1     -10.352   2.383 -34.136  1.00  0.00     0.012 C 
HETATM    6  N   UNL     1     -11.223   1.933 -34.928  1.00  0.00    -0.099 N 
HETATM    7  C   UNL     1      -9.526   4.387 -33.058  1.00  0.00     0.090 C 
HETATM    8  N   UNL     1      -9.617   5.543 -33.009  1.00  0.00    -0.195 NA
HETATM    9  C   UNL     1      -7.864   2.662 -33.767  1.00  0.00     0.070 C 
HETATM   10  C   UNL     1      -7.502   1.142 -33.760  1.00  0.00     0.053 C 
HETATM   11  C   UNL     1      -7.711   0.506 -32.393  1.00  0.00    -0.052 C 
HETATM   12  C   UNL     1      -6.784  -0.327 -31.873  1.00  0.00     0.005 C 
HETATM   13  C   UNL     1      -9.050   0.742 -31.706  1.00  0.00     0.171 C 
HETATM   14  C   UNL     1     -10.059  -0.167 -32.268  1.00  0.00     0.074 C 
HETATM   15  N   UNL     1     -10.777  -0.928 -32.763  1.00  0.00    -0.196 NA
HETATM   16  C   UNL     1      -6.100   0.865 -34.367  1.00  0.00     0.244 C 
HETATM   17  N   UNL     1      -5.642  -0.544 -34.081  1.00  0.00    -0.071 N 
HETATM   18  H   UNL     1      -4.679  -0.626 -34.437  1.00  0.00     0.279 HD
HETATM   19  C   UNL     1      -6.414  -1.611 -34.819  1.00  0.00     0.270 C 
HETATM   20  C   UNL     1      -5.554  -0.786 -32.596  1.00  0.00     0.262 C 
ENDROOT
BRANCH   9  21
HETATM   21  C   UNL     1      -6.773   3.570 -33.169  1.00  0.00    -0.047 A 
HETATM   22  C   UNL     1      -6.456   3.593 -31.802  1.00  0.00     0.047 A 
HETATM   23  C   UNL     1      -5.630   4.600 -31.275  1.00  0.00     0.102 A 
HETATM   24  C   UNL     1      -5.026   5.548 -32.109  1.00  0.00     0.102 A 
HETATM   25  C   UNL     1      -5.253   5.467 -33.483  1.00  0.00     0.040 A 
HETATM   26  C   UNL     1      -6.134   4.508 -34.002  1.00  0.00     0.010 A 
BRANCH  23  27
HETATM   27  O   UNL     1      -5.386   4.675 -29.924  1.00  0.00    -0.353 OA
HETATM   28  C   UNL     1      -6.586   4.903 -29.176  1.00  0.00     0.210 C 
ENDBRANCH  23  27
BRANCH  24  29
HETATM   29  O   UNL     1      -4.258   6.507 -31.496  1.00  0.00    -0.347 OA
BRANCH  29  30
HETATM   30  C   UNL     1      -2.898   6.610 -31.931  1.00  0.00     0.203 C 
BRANCH  30  31
HETATM   31  C   UNL     1      -2.091   5.472 -31.289  1.00  0.00     0.261 C 
BRANCH  31  32
HETATM   32  N   UNL     1      -1.365   5.918 -30.033  1.00  0.00    -0.065 N 
HETATM   33  H   UNL     1      -1.954   5.614 -29.242  1.00  0.00     0.280 HD
HETATM   34  C   UNL     1       0.010   5.287 -29.854  1.00  0.00     0.261 C 
HETATM   35  C   UNL     1       0.672   5.832 -28.583  1.00  0.00     0.195 C 
HETATM   36  O   UNL     1       0.774   7.258 -28.630  1.00  0.00    -0.388 OA
HETATM   37  C   UNL     1      -0.514   7.876 -28.709  1.00  0.00     0.195 C 
HETATM   38  C   UNL     1      -1.250   7.443 -29.981  1.00  0.00     0.261 C 
ENDBRANCH  31  32
ENDBRANCH  30  31
ENDBRANCH  29  30
ENDBRANCH  24  29
ENDBRANCH   9  21
TORSDOF 6
ENDMDL
MODEL 5
REMARK VINA RESULT:      -7.7      0.952      1.804
REMARK  6 active torsions:
REMARK  status: ('A' for Active; 'I' for Inactive)
REMARK    1  A    between atoms: C_9  and  C_10 
REMARK    2  A    between atoms: C_12  and  O_13 
REMARK    3  A    between atoms: C_15  and  O_16 
REMARK    4  A    between atoms: O_16  and  C_17 
REMARK    5  A    between atoms: C_17  and  C_18 
REMARK    6  A    between atoms: C_18  and  N_19 
ROOT
HETATM    1  H   UNL     1      -6.526   0.002 -29.332  1.00  0.00     0.186 HD
HETATM    2  N   UNL     1      -6.873  -0.044 -30.301  1.00  0.00    -0.304 NA
HETATM    3  C   UNL     1      -6.116   0.543 -31.176  1.00  0.00     0.062 C 
HETATM    4  C   UNL     1      -6.486   0.511 -32.673  1.00  0.00     0.173 C 
HETATM    5  C   UNL     1      -5.492  -0.392 -33.386  1.00  0.00     0.012 C 
HETATM    6  N   UNL     1      -4.669  -1.141 -33.978  1.00  0.00    -0.099 N 
HETATM    7  C   UNL     1      -7.838  -0.057 -32.892  1.00  0.00     0.090 C 
HETATM    8  N   UNL     1      -8.916  -0.422 -33.118  1.00  0.00    -0.195 NA
HETATM    9  C   UNL     1      -6.417   1.961 -33.282  1.00  0.00     0.070 C 
HETATM   10  C   UNL     1      -5.073   2.678 -32.933  1.00  0.00     0.053 C 
HETATM   11  C   UNL     1      -4.775   2.647 -31.440  1.00  0.00    -0.052 C 
HETATM   12  C   UNL     1      -4.336   3.754 -30.804  1.00  0.00     0.005 C 
HETATM   13  C   UNL     1      -4.865   1.301 -30.734  1.00  0.00     0.171 C 
HETATM   14  C   UNL     1      -3.637   0.532 -30.981  1.00  0.00     0.074 C 
HETATM   15  N   UNL     1      -2.631   0.010 -31.222  1.00  0.00    -0.196 NA
HETATM   16  C   UNL     1      -4.980   4.097 -33.557  1.00  0.00     0.244 C 
HETATM   17  N   UNL     1      -3.833   4.884 -32.972  1.00  0.00    -0.071 N 
HETATM   18  H   UNL     1      -3.887   5.833 -33.367  1.00  0.00     0.279 HD
HETATM   19  C   UNL     1      -2.467   4.380 -33.369  1.00  0.00     0.270 C 
HETATM   20  C   UNL     1      -4.003   5.048 -31.483  1.00  0.00     0.262 C 
ENDROOT
BRANCH   9  21
HETATM   21  C   UNL     1      -7.672   2.811 -33.006  1.00  0.00    -0.047 A 
HETATM   22  C   UNL     1      -8.393   3.468 -34.014  1.00  0.00     0.047 A 
HETATM   23  C   UNL     1      -9.378   4.415 -33.690  1.00  0.00     0.102 A 
HETATM   24  C   UNL     1      -9.733   4.660 -32.358  1.00  0.00     0.102 A 
HETATM   25  C   UNL     1      -9.094   3.934 -31.355  1.00  0.00     0.040 A 
HETATM   26  C   UNL     1      -8.060   3.040 -31.673  1.00  0.00     0.010 A 
BRANCH  23  27
HETATM   27  O   UNL     1     -10.027   5.123 -34.675  1.00  0.00    -0.353 OA
HETATM   28  C   UNL     1     -10.766   4.265 -35.552  1.00  0.00     0.210 C 
ENDBRANCH  23  27
BRANCH  24  29
HETATM   29  O   UNL     1     -10.687   5.623 -32.143  1.00  0.00    -0.347 OA
BRANCH  29  30
HETATM   30  C   UNL     1     -11.910   5.188 -31.539  1.00  0.00     0.203 C 
BRANCH  30  31
HETATM   31  C   UNL     1     -12.922   4.875 -32.652  1.00  0.00     0.261 C 
BRANCH  31  32
HETATM   32  N   UNL     1     -13.590   3.526 -32.459  1.00  0.00    -0.065 N 
HETATM   33  H   UNL     1     -13.103   3.079 -31.666  1.00  0.00     0.280 HD
HETATM   34  C   UNL     1     -15.069   3.612 -32.104  1.00  0.00     0.261 C 
HETATM   35  C   UNL     1     -15.656   2.202 -31.971  1.00  0.00     0.195 C 
HETATM   36  O   UNL     1     -15.470   1.455 -33.176  1.00  0.00    -0.388 OA
HETATM   37  C   UNL     1     -14.083   1.286 -33.482  1.00  0.00     0.195 C 
HETATM   38  C   UNL     1     -13.401   2.641 -33.693  1.00  0.00     0.261 C 
ENDBRANCH  31  32
ENDBRANCH  30  31
ENDBRANCH  29  30
ENDBRANCH  24  29
ENDBRANCH   9  21
TORSDOF 6
ENDMDL
MODEL 6
REMARK VINA RESULT:      -7.6      3.158      8.511
REMARK  6 active torsions:
REMARK  status: ('A' for Active; 'I' for Inactive)
REMARK    1  A    between atoms: C_9  and  C_10 
REMARK    2  A    between atoms: C_12  and  O_13 
REMARK    3  A    between atoms: C_15  and  O_16 
REMARK    4  A    between atoms: O_16  and  C_17 
REMARK    5  A    between atoms: C_17  and  C_18 
REMARK    6  A    between atoms: C_18  and  N_19 
ROOT
HETATM    1  H   UNL     1      -8.403   2.228 -35.988  1.00  0.00     0.186 HD
HETATM    2  N   UNL     1      -8.131   1.708 -35.141  1.00  0.00    -0.304 NA
HETATM    3  C   UNL     1      -8.951   1.829 -34.143  1.00  0.00     0.062 C 
HETATM    4  C   UNL     1      -8.696   1.066 -32.828  1.00  0.00     0.173 C 
HETATM    5  C   UNL     1      -9.741  -0.031 -32.706  1.00  0.00     0.012 C 
HETATM    6  N   UNL     1     -10.608  -0.940 -32.606  1.00  0.00    -0.099 N 
HETATM    7  C   UNL     1      -7.365   0.412 -32.823  1.00  0.00     0.090 C 
HETATM    8  N   UNL     1      -6.307  -0.058 -32.731  1.00  0.00    -0.195 NA
HETATM    9  C   UNL     1      -8.808   2.044 -31.599  1.00  0.00     0.070 C 
HETATM   10  C   UNL     1     -10.120   2.891 -31.646  1.00  0.00     0.053 C 
HETATM   11  C   UNL     1     -10.305   3.594 -32.983  1.00  0.00    -0.052 C 
HETATM   12  C   UNL     1     -10.693   4.887 -33.032  1.00  0.00     0.005 C 
HETATM   13  C   UNL     1     -10.164   2.752 -34.244  1.00  0.00     0.171 C 
HETATM   14  C   UNL     1     -11.408   2.007 -34.480  1.00  0.00     0.074 C 
HETATM   15  N   UNL     1     -12.430   1.472 -34.589  1.00  0.00    -0.196 NA
HETATM   16  C   UNL     1     -10.258   3.836 -30.421  1.00  0.00     0.244 C 
HETATM   17  N   UNL     1     -11.357   4.850 -30.626  1.00  0.00    -0.071 N 
HETATM   18  H   UNL     1     -11.331   5.488 -29.819  1.00  0.00     0.279 HD
HETATM   19  C   UNL     1     -12.750   4.269 -30.613  1.00  0.00     0.270 C 
HETATM   20  C   UNL     1     -11.075   5.704 -31.836  1.00  0.00     0.262 C 
ENDROOT
BRANCH   9  21
HETATM   21  C   UNL     1      -7.534   2.873 -31.348  1.00  0.00    -0.047 A 
HETATM   22  C   UNL     1      -7.079   3.870 -32.226  1.00  0.00     0.047 A 
HETATM   23  C   UNL     1      -5.799   4.426 -32.077  1.00  0.00     0.102 A 
HETATM   24  C   UNL     1      -4.979   4.073 -30.998  1.00  0.00     0.102 A 
HETATM   25  C   UNL     1      -5.467   3.161 -30.063  1.00  0.00     0.040 A 
HETATM   26  C   UNL     1      -6.716   2.551 -30.249  1.00  0.00     0.010 A 
BRANCH  23  27
HETATM   27  O   UNL     1      -5.318   5.340 -32.985  1.00  0.00    -0.353 OA
HETATM   28  C   UNL     1      -5.195   4.778 -34.297  1.00  0.00     0.210 C 
ENDBRANCH  23  27
BRANCH  24  29
HETATM   29  O   UNL     1      -3.735   4.651 -30.955  1.00  0.00    -0.347 OA
BRANCH  29  30
HETATM   30  C   UNL     1      -2.669   3.920 -31.568  1.00  0.00     0.203 C 
BRANCH  30  31
HETATM   31  C   UNL     1      -1.460   4.854 -31.723  1.00  0.00     0.261 C 
BRANCH  31  32
HETATM   32  N   UNL     1      -1.072   5.517 -30.414  1.00  0.00    -0.065 N 
HETATM   33  H   UNL     1      -1.797   5.242 -29.732  1.00  0.00     0.280 HD
HETATM   34  C   UNL     1       0.275   5.065 -29.864  1.00  0.00     0.261 C 
HETATM   35  C   UNL     1       0.588   5.819 -28.567  1.00  0.00     0.195 C 
HETATM   36  O   UNL     1       0.581   7.232 -28.783  1.00  0.00    -0.388 OA
HETATM   37  C   UNL     1      -0.702   7.693 -29.216  1.00  0.00     0.195 C 
HETATM   38  C   UNL     1      -1.097   7.041 -30.545  1.00  0.00     0.261 C 
ENDBRANCH  31  32
ENDBRANCH  30  31
ENDBRANCH  29  30
ENDBRANCH  24  29
ENDBRANCH   9  21
TORSDOF 6
ENDMDL
MODEL 7
REMARK VINA RESULT:      -7.6      3.562      6.899
REMARK  6 active torsions:
REMARK  status: ('A' for Active; 'I' for Inactive)
REMARK    1  A    between atoms: C_9  and  C_10 
REMARK    2  A    between atoms: C_12  and  O_13 
REMARK    3  A    between atoms: C_15  and  O_16 
REMARK    4  A    between atoms: O_16  and  C_17 
REMARK    5  A    between atoms: C_17  and  C_18 
REMARK    6  A    between atoms: C_18  and  N_19 
ROOT
HETATM    1  H   UNL     1      -6.515   5.556 -34.626  1.00  0.00     0.186 HD
HETATM    2  N   UNL     1      -7.023   4.823 -34.110  1.00  0.00    -0.304 NA
HETATM    3  C   UNL     1      -7.390   5.159 -32.911  1.00  0.00     0.062 C 
HETATM    4  C   UNL     1      -8.202   4.179 -32.041  1.00  0.00     0.173 C 
HETATM    5  C   UNL     1      -9.618   4.717 -31.919  1.00  0.00     0.012 C 
HETATM    6  N   UNL     1     -10.793   5.163 -31.819  1.00  0.00    -0.099 N 
HETATM    7  C   UNL     1      -8.289   2.836 -32.664  1.00  0.00     0.090 C 
HETATM    8  N   UNL     1      -8.328   1.748 -33.065  1.00  0.00    -0.195 NA
HETATM    9  C   UNL     1      -7.556   4.057 -30.611  1.00  0.00     0.070 C 
HETATM   10  C   UNL     1      -7.279   5.457 -29.974  1.00  0.00     0.053 C 
HETATM   11  C   UNL     1      -6.491   6.367 -30.905  1.00  0.00    -0.052 C 
HETATM   12  C   UNL     1      -5.455   7.097 -30.438  1.00  0.00     0.005 C 
HETATM   13  C   UNL     1      -6.996   6.518 -32.333  1.00  0.00     0.171 C 
HETATM   14  C   UNL     1      -8.110   7.475 -32.363  1.00  0.00     0.074 C 
HETATM   15  N   UNL     1      -8.969   8.249 -32.288  1.00  0.00    -0.196 NA
HETATM   16  C   UNL     1      -6.673   5.348 -28.548  1.00  0.00     0.244 C 
HETATM   17  N   UNL     1      -6.136   6.677 -28.073  1.00  0.00    -0.071 N 
HETATM   18  H   UNL     1      -5.679   6.509 -27.167  1.00  0.00     0.279 HD
HETATM   19  C   UNL     1      -7.198   7.708 -27.782  1.00  0.00     0.270 C 
HETATM   20  C   UNL     1      -5.053   7.175 -28.996  1.00  0.00     0.262 C 
ENDROOT
BRANCH   9  21
HETATM   21  C   UNL     1      -6.356   3.092 -30.552  1.00  0.00    -0.047 A 
HETATM   22  C   UNL     1      -5.106   3.384 -31.118  1.00  0.00     0.047 A 
HETATM   23  C   UNL     1      -4.127   2.385 -31.247  1.00  0.00     0.102 A 
HETATM   24  C   UNL     1      -4.334   1.101 -30.731  1.00  0.00     0.102 A 
HETATM   25  C   UNL     1      -5.534   0.833 -30.073  1.00  0.00     0.040 A 
HETATM   26  C   UNL     1      -6.541   1.807 -30.007  1.00  0.00     0.010 A 
BRANCH  23  27
HETATM   27  O   UNL     1      -2.933   2.647 -31.878  1.00  0.00    -0.353 OA
HETATM   28  C   UNL     1      -2.505   3.998 -31.675  1.00  0.00     0.210 C 
ENDBRANCH  23  27
BRANCH  24  29
HETATM   29  O   UNL     1      -3.328   0.188 -30.931  1.00  0.00    -0.347 OA
BRANCH  29  30
HETATM   30  C   UNL     1      -3.673  -0.993 -31.663  1.00  0.00     0.203 C 
BRANCH  30  31
HETATM   31  C   UNL     1      -3.527  -0.700 -33.163  1.00  0.00     0.261 C 
BRANCH  31  32
HETATM   32  N   UNL     1      -4.653  -1.306 -33.981  1.00  0.00    -0.065 N 
HETATM   33  H   UNL     1      -4.656  -0.797 -34.879  1.00  0.00     0.280 HD
HETATM   34  C   UNL     1      -4.467  -2.786 -34.289  1.00  0.00     0.261 C 
HETATM   35  C   UNL     1      -5.671  -3.308 -35.081  1.00  0.00     0.195 C 
HETATM   36  O   UNL     1      -6.889  -3.092 -34.362  1.00  0.00    -0.388 OA
HETATM   37  C   UNL     1      -7.128  -1.700 -34.137  1.00  0.00     0.195 C 
HETATM   38  C   UNL     1      -6.005  -1.081 -33.300  1.00  0.00     0.261 C 
ENDBRANCH  31  32
ENDBRANCH  30  31
ENDBRANCH  29  30
ENDBRANCH  24  29
ENDBRANCH   9  21
TORSDOF 6
ENDMDL
MODEL 8
REMARK VINA RESULT:      -7.5      2.892      5.267
REMARK  6 active torsions:
REMARK  status: ('A' for Active; 'I' for Inactive)
REMARK    1  A    between atoms: C_9  and  C_10 
REMARK    2  A    between atoms: C_12  and  O_13 
REMARK    3  A    between atoms: C_15  and  O_16 
REMARK    4  A    between atoms: O_16  and  C_17 
REMARK    5  A    between atoms: C_17  and  C_18 
REMARK    6  A    between atoms: C_18  and  N_19 
ROOT
HETATM    1  H   UNL     1      -7.193   7.756 -32.327  1.00  0.00     0.186 HD
HETATM    2  N   UNL     1      -7.158   7.000 -31.627  1.00  0.00    -0.304 NA
HETATM    3  C   UNL     1      -5.963   6.658 -31.257  1.00  0.00     0.062 C 
HETATM    4  C   UNL     1      -5.760   5.574 -30.180  1.00  0.00     0.173 C 
HETATM    5  C   UNL     1      -5.250   6.251 -28.917  1.00  0.00     0.012 C 
HETATM    6  N   UNL     1      -4.828   6.812 -27.871  1.00  0.00    -0.099 N 
HETATM    7  C   UNL     1      -7.034   4.898 -29.836  1.00  0.00     0.090 C 
HETATM    8  N   UNL     1      -7.985   4.282 -29.582  1.00  0.00    -0.195 NA
HETATM    9  C   UNL     1      -4.712   4.507 -30.670  1.00  0.00     0.070 C 
HETATM   10  C   UNL     1      -3.407   5.177 -31.209  1.00  0.00     0.053 C 
HETATM   11  C   UNL     1      -3.696   6.247 -32.252  1.00  0.00    -0.052 C 
HETATM   12  C   UNL     1      -2.970   6.314 -33.388  1.00  0.00     0.005 C 
HETATM   13  C   UNL     1      -4.737   7.302 -31.904  1.00  0.00     0.171 C 
HETATM   14  C   UNL     1      -4.131   8.327 -31.042  1.00  0.00     0.074 C 
HETATM   15  N   UNL     1      -3.563   9.087 -30.379  1.00  0.00    -0.196 NA
HETATM   16  C   UNL     1      -2.351   4.133 -31.665  1.00  0.00     0.244 C 
HETATM   17  N   UNL     1      -1.238   4.780 -32.452  1.00  0.00    -0.071 N 
HETATM   18  H   UNL     1      -0.629   4.022 -32.789  1.00  0.00     0.279 HD
HETATM   19  C   UNL     1      -0.330   5.665 -31.634  1.00  0.00     0.270 C 
HETATM   20  C   UNL     1      -1.779   5.453 -33.687  1.00  0.00     0.262 C 
ENDROOT
BRANCH   9  21
HETATM   21  C   UNL     1      -5.305   3.441 -31.611  1.00  0.00    -0.047 A 
HETATM   22  C   UNL     1      -5.407   2.084 -31.267  1.00  0.00     0.047 A 
HETATM   23  C   UNL     1      -5.729   1.121 -32.237  1.00  0.00     0.102 A 
HETATM   24  C   UNL     1      -6.049   1.496 -33.548  1.00  0.00     0.102 A 
HETATM   25  C   UNL     1      -6.052   2.853 -33.869  1.00  0.00     0.040 A 
HETATM   26  C   UNL     1      -5.661   3.810 -32.921  1.00  0.00     0.010 A 
BRANCH  23  27
HETATM   27  O   UNL     1      -5.747  -0.218 -31.923  1.00  0.00    -0.353 OA
HETATM   28  C   UNL     1      -4.428  -0.775 -31.882  1.00  0.00     0.210 C 
ENDBRANCH  23  27
BRANCH  24  29
HETATM   29  O   UNL     1      -6.324   0.480 -34.429  1.00  0.00    -0.347 OA
BRANCH  29  30
HETATM   30  C   UNL     1      -7.573   0.558 -35.124  1.00  0.00     0.203 C 
BRANCH  30  31
HETATM   31  C   UNL     1      -8.711   0.355 -34.113  1.00  0.00     0.261 C 
BRANCH  31  32
HETATM   32  N   UNL     1      -9.934   1.189 -34.447  1.00  0.00    -0.065 N 
HETATM   33  H   UNL     1     -10.161   0.978 -35.432  1.00  0.00     0.280 HD
HETATM   34  C   UNL     1     -11.161   0.855 -33.608  1.00  0.00     0.261 C 
HETATM   35  C   UNL     1     -12.323   1.776 -33.995  1.00  0.00     0.195 C 
HETATM   36  O   UNL     1     -11.962   3.151 -33.833  1.00  0.00    -0.388 OA
HETATM   37  C   UNL     1     -10.865   3.510 -34.679  1.00  0.00     0.195 C 
HETATM   38  C   UNL     1      -9.621   2.684 -34.341  1.00  0.00     0.261 C 
ENDBRANCH  31  32
ENDBRANCH  30  31
ENDBRANCH  29  30
ENDBRANCH  24  29
ENDBRANCH   9  21
TORSDOF 6
ENDMDL
MODEL 9
REMARK VINA RESULT:      -7.4      3.367      7.607
REMARK  6 active torsions:
REMARK  status: ('A' for Active; 'I' for Inactive)
REMARK    1  A    between atoms: C_9  and  C_10 
REMARK    2  A    between atoms: C_12  and  O_13 
REMARK    3  A    between atoms: C_15  and  O_16 
REMARK    4  A    between atoms: O_16  and  C_17 
REMARK    5  A    between atoms: C_17  and  C_18 
REMARK    6  A    between atoms: C_18  and  N_19 
ROOT
HETATM    1  H   UNL     1     -10.885   3.926 -36.416  1.00  0.00     0.186 HD
HETATM    2  N   UNL     1     -11.063   3.290 -35.625  1.00  0.00    -0.304 NA
HETATM    3  C   UNL     1     -11.268   3.883 -34.489  1.00  0.00     0.062 C 
HETATM    4  C   UNL     1     -11.596   3.058 -33.228  1.00  0.00     0.173 C 
HETATM    5  C   UNL     1     -13.054   3.298 -32.871  1.00  0.00     0.012 C 
HETATM    6  N   UNL     1     -14.263   3.496 -32.576  1.00  0.00    -0.099 N 
HETATM    7  C   UNL     1     -11.430   1.604 -33.466  1.00  0.00     0.090 C 
HETATM    8  N   UNL     1     -11.246   0.462 -33.570  1.00  0.00    -0.195 NA
HETATM    9  C   UNL     1     -10.676   3.504 -32.030  1.00  0.00     0.070 C 
HETATM   10  C   UNL     1     -10.676   5.056 -31.842  1.00  0.00     0.053 C 
HETATM   11  C   UNL     1     -10.363   5.793 -33.137  1.00  0.00    -0.052 C 
HETATM   12  C   UNL     1      -9.497   6.829 -33.146  1.00  0.00     0.005 C 
HETATM   13  C   UNL     1     -11.157   5.403 -34.376  1.00  0.00     0.171 C 
HETATM   14  C   UNL     1     -12.476   6.051 -34.341  1.00  0.00     0.074 C 
HETATM   15  N   UNL     1     -13.482   6.614 -34.231  1.00  0.00    -0.196 NA
HETATM   16  C   UNL     1      -9.799   5.505 -30.642  1.00  0.00     0.244 C 
HETATM   17  N   UNL     1      -9.565   6.997 -30.657  1.00  0.00    -0.071 N 
HETATM   18  H   UNL     1      -8.912   7.206 -29.889  1.00  0.00     0.279 HD
HETATM   19  C   UNL     1     -10.792   7.821 -30.352  1.00  0.00     0.270 C 
HETATM   20  C   UNL     1      -8.860   7.414 -31.922  1.00  0.00     0.262 C 
ENDROOT
BRANCH   9  21
HETATM   21  C   UNL     1      -9.270   2.875 -32.059  1.00  0.00    -0.047 A 
HETATM   22  C   UNL     1      -8.324   3.152 -33.058  1.00  0.00     0.047 A 
HETATM   23  C   UNL     1      -7.157   2.379 -33.173  1.00  0.00     0.102 A 
HETATM   24  C   UNL     1      -6.860   1.377 -32.242  1.00  0.00     0.102 A 
HETATM   25  C   UNL     1      -7.745   1.167 -31.185  1.00  0.00     0.040 A 
HETATM   26  C   UNL     1      -8.946   1.888 -31.109  1.00  0.00     0.010 A 
BRANCH  23  27
HETATM   27  O   UNL     1      -6.270   2.592 -34.202  1.00  0.00    -0.353 OA
HETATM   28  C   UNL     1      -5.621   3.864 -34.093  1.00  0.00     0.210 C 
ENDBRANCH  23  27
BRANCH  24  29
HETATM   29  O   UNL     1      -5.710   0.659 -32.455  1.00  0.00    -0.347 OA
BRANCH  29  30
HETATM   30  C   UNL     1      -5.872  -0.694 -32.893  1.00  0.00     0.203 C 
BRANCH  30  31
HETATM   31  C   UNL     1      -4.669  -1.073 -33.769  1.00  0.00     0.261 C 
BRANCH  31  32
HETATM   32  N   UNL     1      -4.834  -2.438 -34.413  1.00  0.00    -0.065 N 
HETATM   33  H   UNL     1      -4.445  -2.350 -35.366  1.00  0.00     0.280 HD
HETATM   34  C   UNL     1      -4.075  -3.554 -33.706  1.00  0.00     0.261 C 
HETATM   35  C   UNL     1      -4.339  -4.890 -34.409  1.00  0.00     0.195 C 
HETATM   36  O   UNL     1      -5.739  -5.179 -34.449  1.00  0.00    -0.388 OA
HETATM   37  C   UNL     1      -6.461  -4.188 -35.186  1.00  0.00     0.195 C 
HETATM   38  C   UNL     1      -6.313  -2.809 -34.536  1.00  0.00     0.261 C 
ENDBRANCH  31  32
ENDBRANCH  30  31
ENDBRANCH  29  30
ENDBRANCH  24  29
ENDBRANCH   9  21
TORSDOF 6
ENDMDL
MODEL 10
REMARK VINA RESULT:      -7.4      2.280      3.525
REMARK  6 active torsions:
REMARK  status: ('A' for Active; 'I' for Inactive)
REMARK    1  A    between atoms: C_9  and  C_10 
REMARK    2  A    between atoms: C_12  and  O_13 
REMARK    3  A    between atoms: C_15  and  O_16 
REMARK    4  A    between atoms: O_16  and  C_17 
REMARK    5  A    between atoms: C_17  and  C_18 
REMARK    6  A    between atoms: C_18  and  N_19 
ROOT
HETATM    1  H   UNL     1      -8.914   0.282 -30.293  1.00  0.00     0.186 HD
HETATM    2  N   UNL     1      -9.391   0.414 -31.198  1.00  0.00    -0.304 NA
HETATM    3  C   UNL     1      -8.736   1.135 -32.055  1.00  0.00     0.062 C 
HETATM    4  C   UNL     1      -9.305   1.375 -33.468  1.00  0.00     0.173 C 
HETATM    5  C   UNL     1      -8.455   0.598 -34.459  1.00  0.00     0.012 C 
HETATM    6  N   UNL     1      -7.750  -0.047 -35.281  1.00  0.00    -0.099 N 
HETATM    7  C   UNL     1     -10.697   0.877 -33.590  1.00  0.00     0.090 C 
HETATM    8  N   UNL     1     -11.810   0.575 -33.723  1.00  0.00    -0.195 NA
HETATM    9  C   UNL     1      -9.262   2.909 -33.820  1.00  0.00     0.070 C 
HETATM   10  C   UNL     1      -7.855   3.531 -33.543  1.00  0.00     0.053 C 
HETATM   11  C   UNL     1      -7.359   3.231 -32.136  1.00  0.00    -0.052 C 
HETATM   12  C   UNL     1      -6.794   4.201 -31.385  1.00  0.00     0.005 C 
HETATM   13  C   UNL     1      -7.407   1.783 -31.669  1.00  0.00     0.171 C 
HETATM   14  C   UNL     1      -6.256   1.051 -32.215  1.00  0.00     0.074 C 
HETATM   15  N   UNL     1      -5.314   0.564 -32.681  1.00  0.00    -0.196 NA
HETATM   16  C   UNL     1      -7.790   5.037 -33.919  1.00  0.00     0.244 C 
HETATM   17  N   UNL     1      -6.544   5.689 -33.373  1.00  0.00    -0.071 N 
HETATM   18  H   UNL     1      -6.612   6.694 -33.586  1.00  0.00     0.279 HD
HETATM   19  C   UNL     1      -5.265   5.242 -34.039  1.00  0.00     0.270 C 
HETATM   20  C   UNL     1      -6.504   5.589 -31.869  1.00  0.00     0.262 C 
ENDROOT
BRANCH   9  21
HETATM   21  C   UNL     1     -10.433   3.716 -33.227  1.00  0.00    -0.047 A 
HETATM   22  C   UNL     1     -11.373   4.397 -34.014  1.00  0.00     0.047 A 
HETATM   23  C   UNL     1     -12.271   5.306 -33.432  1.00  0.00     0.102 A 
HETATM   24  C   UNL     1     -12.317   5.486 -32.044  1.00  0.00     0.102 A 
HETATM   25  C   UNL     1     -11.457   4.734 -31.246  1.00  0.00     0.040 A 
HETATM   26  C   UNL     1     -10.510   3.879 -31.831  1.00  0.00     0.010 A 
BRANCH  23  27
HETATM   27  O   UNL     1     -13.137   6.039 -34.210  1.00  0.00    -0.353 OA
HETATM   28  C   UNL     1     -12.450   7.020 -34.996  1.00  0.00     0.210 C 
ENDBRANCH  23  27
BRANCH  24  29
HETATM   29  O   UNL     1     -13.211   6.416 -31.573  1.00  0.00    -0.347 OA
BRANCH  29  30
HETATM   30  C   UNL     1     -14.386   5.907 -30.934  1.00  0.00     0.203 C 
BRANCH  30  31
HETATM   31  C   UNL     1     -15.574   6.062 -31.894  1.00  0.00     0.261 C 
BRANCH  31  32
HETATM   32  N   UNL     1     -16.159   4.724 -32.307  1.00  0.00    -0.065 N 
HETATM   33  H   UNL     1     -16.247   4.758 -33.335  1.00  0.00     0.280 HD
HETATM   34  C   UNL     1     -15.280   3.529 -31.960  1.00  0.00     0.261 C 
HETATM   35  C   UNL     1     -15.976   2.230 -32.382  1.00  0.00     0.195 C 
HETATM   36  O   UNL     1     -17.258   2.111 -31.758  1.00  0.00    -0.388 OA
HETATM   37  C   UNL     1     -18.131   3.178 -32.140  1.00  0.00     0.195 C 
HETATM   38  C   UNL     1     -17.557   4.532 -31.715  1.00  0.00     0.261 C 
ENDBRANCH  31  32
ENDBRANCH  30  31
ENDBRANCH  29  30
ENDBRANCH  24  29
ENDBRANCH   9  21
TORSDOF 6
ENDMDL
