MODEL 1
REMARK VINA RESULT:      -7.0      0.000      0.000
REMARK  3 active torsions:
REMARK  status: ('A' for Active; 'I' for Inactive)
REMARK    1  A    between atoms: N_7  and  O_8 
REMARK    2  A    between atoms: O_8  and  C_9 
REMARK    3  A    between atoms: C_9  and  C_10 
ROOT
HETATM    1  O   UNL     1      -6.842   1.036 -33.368  1.00  0.00    -0.170 OA
ENDROOT
BRANCH   1   2
HETATM    2  N   UNL     1      -7.734   2.111 -33.533  1.00  0.00    -0.134 NA
HETATM    3  C   UNL     1      -8.839   1.965 -32.879  1.00  0.00     0.043 C 
HETATM    4  C   UNL     1      -9.232   0.783 -32.037  1.00  0.00     0.084 C 
HETATM    5  C   UNL     1      -9.919   2.992 -33.086  1.00  0.00     0.084 C 
HETATM    6  C   UNL     1     -10.348   0.080 -32.795  1.00  0.00     0.240 C 
HETATM    7  N   UNL     1     -11.481   1.054 -33.097  1.00  0.00    -0.074 N 
HETATM    8  C   UNL     1     -12.610   0.363 -33.819  1.00  0.00     0.269 C 
HETATM    9  H   UNL     1     -11.872   1.378 -32.201  1.00  0.00     0.279 HD
HETATM   10  C   UNL     1     -11.011   2.283 -33.869  1.00  0.00     0.240 C 
ENDBRANCH   1   2
BRANCH   1  11
HETATM   11  C   UNL     1      -6.717   0.374 -34.563  1.00  0.00     0.317 C 
HETATM   12  O   UNL     1      -7.181   0.722 -35.640  1.00  0.00    -0.257 OA
BRANCH  11  13
HETATM   13  C   UNL     1      -6.002  -0.919 -34.378  1.00  0.00     0.041 A 
HETATM   14  C   UNL     1      -4.824  -0.907 -33.614  1.00  0.00     0.019 A 
HETATM   15  C   UNL     1      -4.091  -2.080 -33.424  1.00  0.00     0.020 A 
HETATM   16  C   UNL     1      -4.534  -3.270 -33.995  1.00  0.00     0.011 A 
HETATM   17 BR   UNL     1      -3.535  -4.856 -33.752  1.00  0.00    -0.051 Br
HETATM   18  C   UNL     1      -5.708  -3.299 -34.748  1.00  0.00     0.020 A 
HETATM   19  C   UNL     1      -6.445  -2.125 -34.940  1.00  0.00     0.019 A 
ENDBRANCH  11  13
ENDBRANCH   1  11
TORSDOF 3
ENDMDL
MODEL 2
REMARK VINA RESULT:      -6.9      2.265      3.084
REMARK  3 active torsions:
REMARK  status: ('A' for Active; 'I' for Inactive)
REMARK    1  A    between atoms: N_7  and  O_8 
REMARK    2  A    between atoms: O_8  and  C_9 
REMARK    3  A    between atoms: C_9  and  C_10 
ROOT
HETATM    1  O   UNL     1      -5.789   1.672 -32.943  1.00  0.00    -0.170 OA
ENDROOT
BRANCH   1   2
HETATM    2  N   UNL     1      -5.848   2.384 -31.732  1.00  0.00    -0.134 NA
HETATM    3  C   UNL     1      -6.879   2.087 -31.013  1.00  0.00     0.043 C 
HETATM    4  C   UNL     1      -7.976   1.123 -31.374  1.00  0.00     0.084 C 
HETATM    5  C   UNL     1      -7.113   2.882 -29.757  1.00  0.00     0.084 C 
HETATM    6  C   UNL     1      -9.213   1.971 -31.631  1.00  0.00     0.240 C 
HETATM    7  N   UNL     1      -9.511   2.854 -30.426  1.00  0.00    -0.074 N 
HETATM    8  C   UNL     1     -10.755   3.677 -30.652  1.00  0.00     0.269 C 
HETATM    9  H   UNL     1      -9.716   2.243 -29.623  1.00  0.00     0.279 HD
HETATM   10  C   UNL     1      -8.332   3.744 -30.041  1.00  0.00     0.240 C 
ENDBRANCH   1   2
BRANCH   1  11
HETATM   11  C   UNL     1      -4.712   0.822 -32.908  1.00  0.00     0.317 C 
HETATM   12  O   UNL     1      -3.587   1.089 -32.512  1.00  0.00    -0.257 OA
BRANCH  11  13
HETATM   13  C   UNL     1      -5.056  -0.491 -33.521  1.00  0.00     0.041 A 
HETATM   14  C   UNL     1      -6.338  -0.633 -34.077  1.00  0.00     0.019 A 
HETATM   15  C   UNL     1      -6.734  -1.847 -34.642  1.00  0.00     0.020 A 
HETATM   16  C   UNL     1      -5.849  -2.922 -34.656  1.00  0.00     0.011 A 
HETATM   17 BR   UNL     1      -6.388  -4.570 -35.409  1.00  0.00    -0.051 Br
HETATM   18  C   UNL     1      -4.569  -2.792 -34.118  1.00  0.00     0.020 A 
HETATM   19  C   UNL     1      -4.169  -1.577 -33.551  1.00  0.00     0.019 A 
ENDBRANCH  11  13
ENDBRANCH   1  11
TORSDOF 3
ENDMDL
MODEL 3
REMARK VINA RESULT:      -6.8      1.431      1.928
REMARK  3 active torsions:
REMARK  status: ('A' for Active; 'I' for Inactive)
REMARK    1  A    between atoms: N_7  and  O_8 
REMARK    2  A    between atoms: O_8  and  C_9 
REMARK    3  A    between atoms: C_9  and  C_10 
ROOT
HETATM    1  O   UNL     1      -6.484   1.109 -31.690  1.00  0.00    -0.170 OA
ENDROOT
BRANCH   1   2
HETATM    2  N   UNL     1      -7.325   2.231 -31.584  1.00  0.00    -0.134 NA
HETATM    3  C   UNL     1      -8.575   1.926 -31.471  1.00  0.00     0.043 C 
HETATM    4  C   UNL     1      -9.164   0.542 -31.485  1.00  0.00     0.084 C 
HETATM    5  C   UNL     1      -9.577   3.049 -31.483  1.00  0.00     0.084 C 
HETATM    6  C   UNL     1      -9.924   0.421 -32.797  1.00  0.00     0.240 C 
HETATM    7  N   UNL     1     -10.941   1.549 -32.927  1.00  0.00    -0.074 N 
HETATM    8  C   UNL     1     -11.726   1.423 -34.209  1.00  0.00     0.269 C 
HETATM    9  H   UNL     1     -11.625   1.454 -32.164  1.00  0.00     0.279 HD
HETATM   10  C   UNL     1     -10.306   2.932 -32.811  1.00  0.00     0.240 C 
ENDBRANCH   1   2
BRANCH   1  11
HETATM   11  C   UNL     1      -5.875   1.123 -32.920  1.00  0.00     0.317 C 
HETATM   12  O   UNL     1      -5.473   2.109 -33.521  1.00  0.00    -0.257 OA
BRANCH  11  13
HETATM   13  C   UNL     1      -5.842  -0.244 -33.508  1.00  0.00     0.041 A 
HETATM   14  C   UNL     1      -6.997  -0.696 -34.167  1.00  0.00     0.019 A 
HETATM   15  C   UNL     1      -7.042  -1.979 -34.718  1.00  0.00     0.020 A 
HETATM   16  C   UNL     1      -5.932  -2.812 -34.615  1.00  0.00     0.011 A 
HETATM   17 BR   UNL     1      -5.995  -4.553 -35.347  1.00  0.00    -0.051 Br
HETATM   18  C   UNL     1      -4.774  -2.373 -33.973  1.00  0.00     0.020 A 
HETATM   19  C   UNL     1      -4.725  -1.088 -33.420  1.00  0.00     0.019 A 
ENDBRANCH  11  13
ENDBRANCH   1  11
TORSDOF 3
ENDMDL
MODEL 4
REMARK VINA RESULT:      -6.6      3.461      6.410
REMARK  3 active torsions:
REMARK  status: ('A' for Active; 'I' for Inactive)
REMARK    1  A    between atoms: N_7  and  O_8 
REMARK    2  A    between atoms: O_8  and  C_9 
REMARK    3  A    between atoms: C_9  and  C_10 
ROOT
HETATM    1  O   UNL     1      -7.215  -0.251 -31.937  1.00  0.00    -0.170 OA
ENDROOT
BRANCH   1   2
HETATM    2  N   UNL     1      -5.866  -0.502 -32.245  1.00  0.00    -0.134 NA
HETATM    3  C   UNL     1      -5.694  -1.004 -33.422  1.00  0.00     0.043 C 
HETATM    4  C   UNL     1      -6.770  -1.358 -34.411  1.00  0.00     0.084 C 
HETATM    5  C   UNL     1      -4.304  -1.434 -33.807  1.00  0.00     0.084 C 
HETATM    6  C   UNL     1      -6.798  -2.877 -34.479  1.00  0.00     0.240 C 
HETATM    7  N   UNL     1      -5.414  -3.418 -34.820  1.00  0.00    -0.074 N 
HETATM    8  C   UNL     1      -5.433  -4.923 -34.924  1.00  0.00     0.269 C 
HETATM    9  H   UNL     1      -5.156  -3.071 -35.755  1.00  0.00     0.279 HD
HETATM   10  C   UNL     1      -4.341  -2.952 -33.840  1.00  0.00     0.240 C 
ENDBRANCH   1   2
BRANCH   1  11
HETATM   11  C   UNL     1      -7.456   1.095 -32.051  1.00  0.00     0.317 C 
HETATM   12  O   UNL     1      -6.809   1.996 -31.536  1.00  0.00    -0.257 OA
BRANCH  11  13
HETATM   13  C   UNL     1      -8.700   1.345 -32.830  1.00  0.00     0.041 A 
HETATM   14  C   UNL     1      -8.746   2.497 -33.631  1.00  0.00     0.019 A 
HETATM   15  C   UNL     1      -9.894   2.805 -34.365  1.00  0.00     0.020 A 
HETATM   16  C   UNL     1     -10.998   1.960 -34.303  1.00  0.00     0.011 A 
HETATM   17 BR   UNL     1     -12.557   2.381 -35.284  1.00  0.00    -0.051 Br
HETATM   18  C   UNL     1     -10.963   0.805 -33.520  1.00  0.00     0.020 A 
HETATM   19  C   UNL     1      -9.814   0.494 -32.784  1.00  0.00     0.019 A 
ENDBRANCH  11  13
ENDBRANCH   1  11
TORSDOF 3
ENDMDL
MODEL 5
REMARK VINA RESULT:      -6.4      7.849      8.935
REMARK  3 active torsions:
REMARK  status: ('A' for Active; 'I' for Inactive)
REMARK    1  A    between atoms: N_7  and  O_8 
REMARK    2  A    between atoms: O_8  and  C_9 
REMARK    3  A    between atoms: C_9  and  C_10 
ROOT
HETATM    1  O   UNL     1      -2.095   5.872 -33.702  1.00  0.00    -0.170 OA
ENDROOT
BRANCH   1   2
HETATM    2  N   UNL     1      -3.432   5.948 -34.130  1.00  0.00    -0.134 NA
HETATM    3  C   UNL     1      -4.257   5.337 -33.346  1.00  0.00     0.043 C 
HETATM    4  C   UNL     1      -3.907   4.563 -32.105  1.00  0.00     0.084 C 
HETATM    5  C   UNL     1      -5.697   5.242 -33.776  1.00  0.00     0.084 C 
HETATM    6  C   UNL     1      -4.156   3.100 -32.438  1.00  0.00     0.240 C 
HETATM    7  N   UNL     1      -5.585   2.904 -32.931  1.00  0.00    -0.074 N 
HETATM    8  C   UNL     1      -5.858   1.451 -33.233  1.00  0.00     0.269 C 
HETATM    9  H   UNL     1      -6.226   3.161 -32.167  1.00  0.00     0.279 HD
HETATM   10  C   UNL     1      -5.920   3.783 -34.132  1.00  0.00     0.240 C 
ENDBRANCH   1   2
BRANCH   1  11
HETATM   11  C   UNL     1      -1.679   7.122 -33.316  1.00  0.00     0.317 C 
HETATM   12  O   UNL     1      -1.709   8.140 -33.993  1.00  0.00    -0.257 OA
BRANCH  11  13
HETATM   13  C   UNL     1      -1.074   7.080 -31.956  1.00  0.00     0.041 A 
HETATM   14  C   UNL     1      -1.616   7.929 -30.978  1.00  0.00     0.019 A 
HETATM   15  C   UNL     1      -1.078   7.959 -29.689  1.00  0.00     0.020 A 
HETATM   16  C   UNL     1       0.002   7.139 -29.374  1.00  0.00     0.011 A 
HETATM   17 BR   UNL     1       0.741   7.189 -27.635  1.00  0.00    -0.051 Br
HETATM   18  C   UNL     1       0.544   6.283 -30.333  1.00  0.00     0.020 A 
HETATM   19  C   UNL     1       0.006   6.250 -31.625  1.00  0.00     0.019 A 
ENDBRANCH  11  13
ENDBRANCH   1  11
TORSDOF 3
ENDMDL
MODEL 6
REMARK VINA RESULT:      -6.4      4.185      5.794
REMARK  3 active torsions:
REMARK  status: ('A' for Active; 'I' for Inactive)
REMARK    1  A    between atoms: N_7  and  O_8 
REMARK    2  A    between atoms: O_8  and  C_9 
REMARK    3  A    between atoms: C_9  and  C_10 
ROOT
HETATM    1  O   UNL     1      -4.581   1.861 -32.748  1.00  0.00    -0.170 OA
ENDROOT
BRANCH   1   2
HETATM    2  N   UNL     1      -5.081   3.150 -33.000  1.00  0.00    -0.134 NA
HETATM    3  C   UNL     1      -4.160   4.052 -33.075  1.00  0.00     0.043 C 
HETATM    4  C   UNL     1      -2.683   3.842 -32.883  1.00  0.00     0.084 C 
HETATM    5  C   UNL     1      -4.590   5.488 -33.211  1.00  0.00     0.084 C 
HETATM    6  C   UNL     1      -2.328   4.519 -31.568  1.00  0.00     0.240 C 
HETATM    7  N   UNL     1      -2.768   5.978 -31.587  1.00  0.00    -0.074 N 
HETATM    8  C   UNL     1      -2.393   6.672 -30.301  1.00  0.00     0.269 C 
HETATM    9  H   UNL     1      -2.248   6.460 -32.333  1.00  0.00     0.279 HD
HETATM   10  C   UNL     1      -4.257   6.141 -31.880  1.00  0.00     0.240 C 
ENDBRANCH   1   2
BRANCH   1  11
HETATM   11  C   UNL     1      -5.595   1.079 -32.253  1.00  0.00     0.317 C 
HETATM   12  O   UNL     1      -6.301   1.329 -31.287  1.00  0.00    -0.257 OA
BRANCH  11  13
HETATM   13  C   UNL     1      -5.681  -0.208 -32.998  1.00  0.00     0.041 A 
HETATM   14  C   UNL     1      -6.948  -0.617 -33.443  1.00  0.00     0.019 A 
HETATM   15  C   UNL     1      -7.103  -1.827 -34.124  1.00  0.00     0.020 A 
HETATM   16  C   UNL     1      -5.992  -2.629 -34.364  1.00  0.00     0.011 A 
HETATM   17 BR   UNL     1      -6.201  -4.273 -35.273  1.00  0.00    -0.051 Br
HETATM   18  C   UNL     1      -4.725  -2.230 -33.938  1.00  0.00     0.020 A 
HETATM   19  C   UNL     1      -4.566  -1.018 -33.256  1.00  0.00     0.019 A 
ENDBRANCH  11  13
ENDBRANCH   1  11
TORSDOF 3
ENDMDL
MODEL 7
REMARK VINA RESULT:      -6.4     13.836     15.956
REMARK  3 active torsions:
REMARK  status: ('A' for Active; 'I' for Inactive)
REMARK    1  A    between atoms: N_7  and  O_8 
REMARK    2  A    between atoms: O_8  and  C_9 
REMARK    3  A    between atoms: C_9  and  C_10 
ROOT
HETATM    1  O   UNL     1     -10.628 -13.310 -39.508  1.00  0.00    -0.170 OA
ENDROOT
BRANCH   1   2
HETATM    2  N   UNL     1     -11.149 -14.073 -40.567  1.00  0.00    -0.134 NA
HETATM    3  C   UNL     1     -10.680 -15.276 -40.612  1.00  0.00     0.043 C 
HETATM    4  C   UNL     1      -9.648 -15.869 -39.693  1.00  0.00     0.084 C 
HETATM    5  C   UNL     1     -11.069 -16.139 -41.782  1.00  0.00     0.084 C 
HETATM    6  C   UNL     1      -8.390 -16.044 -40.531  1.00  0.00     0.240 C 
HETATM    7  N   UNL     1      -8.691 -16.874 -41.773  1.00  0.00    -0.074 N 
HETATM    8  C   UNL     1      -7.445 -17.085 -42.598  1.00  0.00     0.269 C 
HETATM    9  H   UNL     1      -8.993 -17.810 -41.469  1.00  0.00     0.279 HD
HETATM   10  C   UNL     1      -9.812 -16.279 -42.622  1.00  0.00     0.240 C 
ENDBRANCH   1   2
BRANCH   1  11
HETATM   11  C   UNL     1      -9.966 -12.224 -40.025  1.00  0.00     0.317 C 
HETATM   12  O   UNL     1     -10.458 -11.317 -40.681  1.00  0.00    -0.257 OA
BRANCH  11  13
HETATM   13  C   UNL     1      -8.503 -12.326 -39.769  1.00  0.00     0.041 A 
HETATM   14  C   UNL     1      -8.089 -12.558 -38.447  1.00  0.00     0.019 A 
HETATM   15  C   UNL     1      -6.730 -12.638 -38.133  1.00  0.00     0.020 A 
HETATM   16  C   UNL     1      -5.781 -12.488 -39.140  1.00  0.00     0.011 A 
HETATM   17 BR   UNL     1      -3.942 -12.581 -38.715  1.00  0.00    -0.051 Br
HETATM   18  C   UNL     1      -6.177 -12.268 -40.459  1.00  0.00     0.020 A 
HETATM   19  C   UNL     1      -7.538 -12.189 -40.777  1.00  0.00     0.019 A 
ENDBRANCH  11  13
ENDBRANCH   1  11
TORSDOF 3
ENDMDL
MODEL 8
REMARK VINA RESULT:      -6.3      3.821      5.331
REMARK  3 active torsions:
REMARK  status: ('A' for Active; 'I' for Inactive)
REMARK    1  A    between atoms: N_7  and  O_8 
REMARK    2  A    between atoms: O_8  and  C_9 
REMARK    3  A    between atoms: C_9  and  C_10 
ROOT
HETATM    1  O   UNL     1      -5.210   1.397 -32.256  1.00  0.00    -0.170 OA
ENDROOT
BRANCH   1   2
HETATM    2  N   UNL     1      -4.664   2.377 -31.408  1.00  0.00    -0.134 NA
HETATM    3  C   UNL     1      -4.876   3.584 -31.816  1.00  0.00     0.043 C 
HETATM    4  C   UNL     1      -5.585   3.992 -33.077  1.00  0.00     0.084 C 
HETATM    5  C   UNL     1      -4.224   4.707 -31.055  1.00  0.00     0.084 C 
HETATM    6  C   UNL     1      -4.517   4.564 -33.996  1.00  0.00     0.240 C 
HETATM    7  N   UNL     1      -3.762   5.688 -33.296  1.00  0.00    -0.074 N 
HETATM    8  C   UNL     1      -2.719   6.288 -34.207  1.00  0.00     0.269 C 
HETATM    9  H   UNL     1      -4.430   6.444 -33.091  1.00  0.00     0.279 HD
HETATM   10  C   UNL     1      -3.141   5.247 -31.973  1.00  0.00     0.240 C 
ENDBRANCH   1   2
BRANCH   1  11
HETATM   11  C   UNL     1      -4.271   0.419 -32.469  1.00  0.00     0.317 C 
HETATM   12  O   UNL     1      -3.081   0.481 -32.196  1.00  0.00    -0.257 OA
BRANCH  11  13
HETATM   13  C   UNL     1      -4.870  -0.741 -33.186  1.00  0.00     0.041 A 
HETATM   14  C   UNL     1      -4.075  -1.887 -33.346  1.00  0.00     0.019 A 
HETATM   15  C   UNL     1      -4.566  -3.000 -34.032  1.00  0.00     0.020 A 
HETATM   16  C   UNL     1      -5.854  -2.971 -34.559  1.00  0.00     0.011 A 
HETATM   17 BR   UNL     1      -6.516  -4.470 -35.500  1.00  0.00    -0.051 Br
HETATM   18  C   UNL     1      -6.660  -1.843 -34.399  1.00  0.00     0.020 A 
HETATM   19  C   UNL     1      -6.170  -0.727 -33.711  1.00  0.00     0.019 A 
ENDBRANCH  11  13
ENDBRANCH   1  11
TORSDOF 3
ENDMDL
MODEL 9
REMARK VINA RESULT:      -6.2      2.136      2.788
REMARK  3 active torsions:
REMARK  status: ('A' for Active; 'I' for Inactive)
REMARK    1  A    between atoms: N_7  and  O_8 
REMARK    2  A    between atoms: O_8  and  C_9 
REMARK    3  A    between atoms: C_9  and  C_10 
ROOT
HETATM    1  O   UNL     1      -7.672   3.261 -33.573  1.00  0.00    -0.170 OA
ENDROOT
BRANCH   1   2
HETATM    2  N   UNL     1      -8.017   3.448 -32.223  1.00  0.00    -0.134 NA
HETATM    3  C   UNL     1      -9.120   2.866 -31.890  1.00  0.00     0.043 C 
HETATM    4  C   UNL     1     -10.029   2.083 -32.797  1.00  0.00     0.084 C 
HETATM    5  C   UNL     1      -9.653   3.108 -30.503  1.00  0.00     0.084 C 
HETATM    6  C   UNL     1     -11.284   2.926 -32.965  1.00  0.00     0.240 C 
HETATM    7  N   UNL     1     -11.880   3.267 -31.604  1.00  0.00    -0.074 N 
HETATM    8  C   UNL     1     -13.145   4.075 -31.755  1.00  0.00     0.269 C 
HETATM    9  H   UNL     1     -12.157   2.388 -31.146  1.00  0.00     0.279 HD
HETATM   10  C   UNL     1     -10.887   3.975 -30.686  1.00  0.00     0.240 C 
ENDBRANCH   1   2
BRANCH   1  11
HETATM   11  C   UNL     1      -6.428   2.683 -33.639  1.00  0.00     0.317 C 
HETATM   12  O   UNL     1      -5.353   3.260 -33.564  1.00  0.00    -0.257 OA
BRANCH  11  13
HETATM   13  C   UNL     1      -6.538   1.224 -33.918  1.00  0.00     0.041 A 
HETATM   14  C   UNL     1      -5.899   0.343 -33.031  1.00  0.00     0.019 A 
HETATM   15  C   UNL     1      -5.940  -1.036 -33.249  1.00  0.00     0.020 A 
HETATM   16  C   UNL     1      -6.622  -1.538 -34.354  1.00  0.00     0.011 A 
HETATM   17 BR   UNL     1      -6.666  -3.402 -34.660  1.00  0.00    -0.051 Br
HETATM   18  C   UNL     1      -7.270  -0.676 -35.238  1.00  0.00     0.020 A 
HETATM   19  C   UNL     1      -7.232   0.707 -35.021  1.00  0.00     0.019 A 
ENDBRANCH  11  13
ENDBRANCH   1  11
TORSDOF 3
ENDMDL
MODEL 10
REMARK VINA RESULT:      -6.2      2.286      3.646
REMARK  3 active torsions:
REMARK  status: ('A' for Active; 'I' for Inactive)
REMARK    1  A    between atoms: N_7  and  O_8 
REMARK    2  A    between atoms: O_8  and  C_9 
REMARK    3  A    between atoms: C_9  and  C_10 
ROOT
HETATM    1  O   UNL     1     -10.026   2.172 -34.342  1.00  0.00    -0.170 OA
ENDROOT
BRANCH   1   2
HETATM    2  N   UNL     1     -11.093   1.259 -34.267  1.00  0.00    -0.134 NA
HETATM    3  C   UNL     1     -12.244   1.796 -34.500  1.00  0.00     0.043 C 
HETATM    4  C   UNL     1     -12.514   3.247 -34.788  1.00  0.00     0.084 C 
HETATM    5  C   UNL     1     -13.469   0.940 -34.318  1.00  0.00     0.084 C 
HETATM    6  C   UNL     1     -13.236   3.791 -33.564  1.00  0.00     0.240 C 
HETATM    7  N   UNL     1     -14.477   2.958 -33.266  1.00  0.00    -0.074 N 
HETATM    8  C   UNL     1     -15.222   3.506 -32.074  1.00  0.00     0.269 C 
HETATM    9  H   UNL     1     -15.119   3.041 -34.066  1.00  0.00     0.279 HD
HETATM   10  C   UNL     1     -14.161   1.477 -33.077  1.00  0.00     0.240 C 
ENDBRANCH   1   2
BRANCH   1  11
HETATM   11  C   UNL     1      -9.191   1.969 -33.272  1.00  0.00     0.317 C 
HETATM   12  O   UNL     1      -9.171   2.612 -32.232  1.00  0.00    -0.257 OA
BRANCH  11  13
HETATM   13  C   UNL     1      -8.204   0.894 -33.569  1.00  0.00     0.041 A 
HETATM   14  C   UNL     1      -7.528   0.314 -32.483  1.00  0.00     0.019 A 
HETATM   15  C   UNL     1      -6.570  -0.680 -32.693  1.00  0.00     0.020 A 
HETATM   16  C   UNL     1      -6.288  -1.101 -33.990  1.00  0.00     0.011 A 
HETATM   17 BR   UNL     1      -4.983  -2.437 -34.278  1.00  0.00    -0.051 Br
HETATM   18  C   UNL     1      -6.960  -0.543 -35.078  1.00  0.00     0.020 A 
HETATM   19  C   UNL     1      -7.920   0.454 -34.870  1.00  0.00     0.019 A 
ENDBRANCH  11  13
ENDBRANCH   1  11
TORSDOF 3
ENDMDL
