MODEL 1
REMARK VINA RESULT:      -8.8      0.000      0.000
REMARK  2 active torsions:
REMARK  status: ('A' for Active; 'I' for Inactive)
REMARK    1  A    between atoms: N_2  and  C_3 
REMARK       I    between atoms: N_4  and  C_5 
REMARK       I    between atoms: C_5  and  N_6 
REMARK    2  A    between atoms: C_9  and  C_10 
ROOT
HETATM    1  C   UNL     1      -2.963  -0.533 -31.625  1.00  0.00     0.703 A 
HETATM    2  N   UNL     1      -3.872   0.262 -32.321  1.00  0.00    -0.141 N 
HETATM    3  C   UNL     1      -3.937   1.653 -32.260  1.00  0.00     0.188 C 
HETATM    4  N   UNL     1      -3.451   2.228 -31.130  1.00  0.00    -0.272 NA
HETATM    5  N   UNL     1      -4.428   2.418 -33.184  1.00  0.00    -0.273 NA
HETATM    6  H   UNL     1      -4.404   3.381 -32.843  1.00  0.00     0.189 HD
HETATM    7  C   UNL     1      -4.817  -0.349 -33.298  1.00  0.00     0.179 A 
HETATM    8  C   UNL     1      -4.638  -1.844 -33.534  1.00  0.00    -0.001 A 
HETATM    9  C   UNL     1      -3.680  -2.544 -32.807  1.00  0.00     0.058 A 
HETATM   10  N   UNL     1      -2.911  -1.871 -31.865  1.00  0.00    -0.190 N 
HETATM   11  C   UNL     1      -5.436  -2.536 -34.467  1.00  0.00     0.035 A 
HETATM   12  C   UNL     1      -5.283  -3.909 -34.647  1.00  0.00     0.034 A 
HETATM   13 CL   UNL     1      -6.289  -4.747 -35.761  1.00  0.00    -0.084 Cl
HETATM   14  C   UNL     1      -4.325  -4.606 -33.921  1.00  0.00     0.026 A 
HETATM   15  C   UNL     1      -3.524  -3.922 -33.004  1.00  0.00     0.032 A 
HETATM   16  H   UNL     1      -2.776   1.607 -30.666  1.00  0.00     0.127 HD
HETATM   17  H   UNL     1      -3.078   3.159 -31.232  1.00  0.00     0.127 HD
HETATM   18  H   UNL     1      -2.193  -2.414 -31.410  1.00  0.00     0.184 HD
ENDROOT
BRANCH   1  19
HETATM   19  N   UNL     1      -2.119  -0.030 -30.763  1.00  0.00    -0.117 NA
HETATM   20  H   UNL     1      -1.948  -0.705 -30.016  1.00  0.00     0.206 HD
ENDBRANCH   1  19
BRANCH   7  21
HETATM   21  C   UNL     1      -6.277  -0.050 -32.916  1.00  0.00    -0.030 A 
HETATM   22  C   UNL     1      -7.222   0.213 -33.924  1.00  0.00     0.009 A 
HETATM   23  C   UNL     1      -8.559   0.457 -33.605  1.00  0.00     0.001 A 
HETATM   24  C   UNL     1      -8.968   0.443 -32.275  1.00  0.00     0.000 A 
HETATM   25  C   UNL     1      -8.042   0.193 -31.262  1.00  0.00     0.001 A 
HETATM   26  C   UNL     1      -6.703  -0.051 -31.577  1.00  0.00     0.009 A 
ENDBRANCH   7  21
TORSDOF 2
ENDMDL
MODEL 2
REMARK VINA RESULT:      -8.6      1.011      1.578
REMARK  2 active torsions:
REMARK  status: ('A' for Active; 'I' for Inactive)
REMARK    1  A    between atoms: N_2  and  C_3 
REMARK       I    between atoms: N_4  and  C_5 
REMARK       I    between atoms: C_5  and  N_6 
REMARK    2  A    between atoms: C_9  and  C_10 
ROOT
HETATM    1  C   UNL     1      -3.827   0.592 -32.019  1.00  0.00     0.703 A 
HETATM    2  N   UNL     1      -4.847   1.136 -32.798  1.00  0.00    -0.141 N 
HETATM    3  C   UNL     1      -5.160   2.491 -32.884  1.00  0.00     0.188 C 
HETATM    4  N   UNL     1      -4.808   3.257 -31.820  1.00  0.00    -0.272 NA
HETATM    5  N   UNL     1      -5.759   3.056 -33.885  1.00  0.00    -0.273 NA
HETATM    6  H   UNL     1      -5.913   4.038 -33.647  1.00  0.00     0.189 HD
HETATM    7  C   UNL     1      -5.647   0.267 -33.707  1.00  0.00     0.179 A 
HETATM    8  C   UNL     1      -5.200  -1.188 -33.784  1.00  0.00    -0.001 A 
HETATM    9  C   UNL     1      -4.149  -1.626 -32.985  1.00  0.00     0.058 A 
HETATM   10  N   UNL     1      -3.533  -0.732 -32.116  1.00  0.00    -0.190 N 
HETATM   11  C   UNL     1      -5.842  -2.104 -34.641  1.00  0.00     0.035 A 
HETATM   12  C   UNL     1      -5.444  -3.439 -34.675  1.00  0.00     0.034 A 
HETATM   13 CL   UNL     1      -6.261  -4.554 -35.697  1.00  0.00    -0.084 Cl
HETATM   14  C   UNL     1      -4.393  -3.874 -33.877  1.00  0.00     0.026 A 
HETATM   15  C   UNL     1      -3.747  -2.967 -33.035  1.00  0.00     0.032 A 
HETATM   16  H   UNL     1      -4.044   2.819 -31.291  1.00  0.00     0.127 HD
HETATM   17  H   UNL     1      -4.605   4.225 -32.018  1.00  0.00     0.127 HD
HETATM   18  H   UNL     1      -2.740  -1.089 -31.604  1.00  0.00     0.184 HD
ENDROOT
BRANCH   1  19
HETATM   19  N   UNL     1      -3.105   1.324 -31.212  1.00  0.00    -0.117 NA
HETATM   20  H   UNL     1      -3.714   1.809 -30.551  1.00  0.00     0.206 HD
ENDBRANCH   1  19
BRANCH   7  21
HETATM   21  C   UNL     1      -7.145   0.338 -33.363  1.00  0.00    -0.030 A 
HETATM   22  C   UNL     1      -7.562   0.200 -32.026  1.00  0.00     0.009 A 
HETATM   23  C   UNL     1      -8.912   0.292 -31.685  1.00  0.00     0.001 A 
HETATM   24  C   UNL     1      -9.863   0.521 -32.675  1.00  0.00     0.000 A 
HETATM   25  C   UNL     1      -9.469   0.650 -34.006  1.00  0.00     0.001 A 
HETATM   26  C   UNL     1      -8.118   0.559 -34.352  1.00  0.00     0.009 A 
ENDBRANCH   7  21
TORSDOF 2
ENDMDL
MODEL 3
REMARK VINA RESULT:      -8.0      3.322      5.018
REMARK  2 active torsions:
REMARK  status: ('A' for Active; 'I' for Inactive)
REMARK    1  A    between atoms: N_2  and  C_3 
REMARK       I    between atoms: N_4  and  C_5 
REMARK       I    between atoms: C_5  and  N_6 
REMARK    2  A    between atoms: C_9  and  C_10 
ROOT
HETATM    1  C   UNL     1      -8.990   0.920 -34.028  1.00  0.00     0.703 A 
HETATM    2  N   UNL     1      -8.716   1.357 -32.734  1.00  0.00    -0.141 N 
HETATM    3  C   UNL     1      -9.546   2.171 -31.965  1.00  0.00     0.188 C 
HETATM    4  N   UNL     1     -10.401   2.973 -32.650  1.00  0.00    -0.272 NA
HETATM    5  N   UNL     1      -9.550   2.220 -30.670  1.00  0.00    -0.273 NA
HETATM    6  H   UNL     1     -10.210   2.946 -30.384  1.00  0.00     0.189 HD
HETATM    7  C   UNL     1      -7.499   0.878 -32.018  1.00  0.00     0.179 A 
HETATM    8  C   UNL     1      -6.674  -0.167 -32.757  1.00  0.00    -0.001 A 
HETATM    9  C   UNL     1      -7.049  -0.558 -34.038  1.00  0.00     0.058 A 
HETATM   10  N   UNL     1      -8.164   0.023 -34.630  1.00  0.00    -0.190 N 
HETATM   11  C   UNL     1      -5.525  -0.736 -32.172  1.00  0.00     0.035 A 
HETATM   12  C   UNL     1      -4.760  -1.666 -32.874  1.00  0.00     0.034 A 
HETATM   13 CL   UNL     1      -3.340  -2.324 -32.163  1.00  0.00    -0.084 Cl
HETATM   14  C   UNL     1      -5.138  -2.056 -34.153  1.00  0.00     0.026 A 
HETATM   15  C   UNL     1      -6.282  -1.504 -34.732  1.00  0.00     0.032 A 
HETATM   16  H   UNL     1     -10.581   2.597 -33.589  1.00  0.00     0.127 HD
HETATM   17  H   UNL     1     -11.264   3.204 -32.180  1.00  0.00     0.127 HD
HETATM   18  H   UNL     1      -8.424  -0.340 -35.535  1.00  0.00     0.184 HD
ENDROOT
BRANCH   1  19
HETATM   19  N   UNL     1     -10.048   1.318 -34.685  1.00  0.00    -0.117 NA
HETATM   20  H   UNL     1     -10.052   2.338 -34.745  1.00  0.00     0.206 HD
ENDBRANCH   1  19
BRANCH   7  21
HETATM   21  C   UNL     1      -6.603   2.057 -31.602  1.00  0.00    -0.030 A 
HETATM   22  C   UNL     1      -6.256   2.227 -30.249  1.00  0.00     0.009 A 
HETATM   23  C   UNL     1      -5.418   3.270 -29.851  1.00  0.00     0.001 A 
HETATM   24  C   UNL     1      -4.920   4.159 -30.800  1.00  0.00     0.000 A 
HETATM   25  C   UNL     1      -5.262   4.011 -32.143  1.00  0.00     0.001 A 
HETATM   26  C   UNL     1      -6.100   2.968 -32.546  1.00  0.00     0.009 A 
ENDBRANCH   7  21
TORSDOF 2
ENDMDL
MODEL 4
REMARK VINA RESULT:      -7.8      1.799      2.798
REMARK  2 active torsions:
REMARK  status: ('A' for Active; 'I' for Inactive)
REMARK    1  A    between atoms: N_2  and  C_3 
REMARK       I    between atoms: N_4  and  C_5 
REMARK       I    between atoms: C_5  and  N_6 
REMARK    2  A    between atoms: C_9  and  C_10 
ROOT
HETATM    1  C   UNL     1      -4.322   2.856 -31.457  1.00  0.00     0.703 A 
HETATM    2  N   UNL     1      -5.263   2.864 -32.485  1.00  0.00    -0.141 N 
HETATM    3  C   UNL     1      -5.926   3.994 -32.962  1.00  0.00     0.188 C 
HETATM    4  N   UNL     1      -6.045   5.031 -32.094  1.00  0.00    -0.272 NA
HETATM    5  N   UNL     1      -6.432   4.116 -34.149  1.00  0.00    -0.273 NA
HETATM    6  H   UNL     1      -6.909   5.019 -34.198  1.00  0.00     0.189 HD
HETATM    7  C   UNL     1      -5.566   1.616 -33.241  1.00  0.00     0.179 A 
HETATM    8  C   UNL     1      -4.715   0.406 -32.875  1.00  0.00    -0.001 A 
HETATM    9  C   UNL     1      -3.779   0.510 -31.850  1.00  0.00     0.058 A 
HETATM   10  N   UNL     1      -3.647   1.712 -31.165  1.00  0.00    -0.190 N 
HETATM   11  C   UNL     1      -4.868  -0.823 -33.546  1.00  0.00     0.035 A 
HETATM   12  C   UNL     1      -4.106  -1.930 -33.177  1.00  0.00     0.034 A 
HETATM   13 CL   UNL     1      -4.330  -3.434 -33.980  1.00  0.00    -0.084 Cl
HETATM   14  C   UNL     1      -3.172  -1.824 -32.155  1.00  0.00     0.026 A 
HETATM   15  C   UNL     1      -3.009  -0.605 -31.494  1.00  0.00     0.032 A 
HETATM   16  H   UNL     1      -5.319   4.985 -31.368  1.00  0.00     0.127 HD
HETATM   17  H   UNL     1      -6.090   5.951 -32.505  1.00  0.00     0.127 HD
HETATM   18  H   UNL     1      -2.914   1.748 -30.473  1.00  0.00     0.184 HD
ENDROOT
BRANCH   1  19
HETATM   19  N   UNL     1      -4.031   3.932 -30.774  1.00  0.00    -0.117 NA
HETATM   20  H   UNL     1      -3.073   3.868 -30.424  1.00  0.00     0.206 HD
ENDBRANCH   1  19
BRANCH   7  21
HETATM   21  C   UNL     1      -7.059   1.257 -33.140  1.00  0.00    -0.030 A 
HETATM   22  C   UNL     1      -7.821   1.105 -34.313  1.00  0.00     0.009 A 
HETATM   23  C   UNL     1      -9.169   0.749 -34.250  1.00  0.00     0.001 A 
HETATM   24  C   UNL     1      -9.773   0.543 -33.013  1.00  0.00     0.000 A 
HETATM   25  C   UNL     1      -9.036   0.699 -31.840  1.00  0.00     0.001 A 
HETATM   26  C   UNL     1      -7.686   1.056 -31.900  1.00  0.00     0.009 A 
ENDBRANCH   7  21
TORSDOF 2
ENDMDL
MODEL 5
REMARK VINA RESULT:      -7.8     12.725     14.229
REMARK  2 active torsions:
REMARK  status: ('A' for Active; 'I' for Inactive)
REMARK    1  A    between atoms: N_2  and  C_3 
REMARK       I    between atoms: N_4  and  C_5 
REMARK       I    between atoms: C_5  and  N_6 
REMARK    2  A    between atoms: C_9  and  C_10 
ROOT
HETATM    1  C   UNL     1      -4.115 -12.621 -37.863  1.00  0.00     0.703 A 
HETATM    2  N   UNL     1      -4.926 -13.529 -38.542  1.00  0.00    -0.141 N 
HETATM    3  C   UNL     1      -4.835 -13.835 -39.898  1.00  0.00     0.188 C 
HETATM    4  N   UNL     1      -4.290 -12.879 -40.694  1.00  0.00    -0.272 NA
HETATM    5  N   UNL     1      -5.234 -14.942 -40.441  1.00  0.00    -0.273 NA
HETATM    6  H   UNL     1      -5.102 -14.863 -41.452  1.00  0.00     0.189 HD
HETATM    7  C   UNL     1      -5.931 -14.342 -37.801  1.00  0.00     0.179 A 
HETATM    8  C   UNL     1      -5.921 -14.174 -36.286  1.00  0.00    -0.001 A 
HETATM    9  C   UNL     1      -5.049 -13.260 -35.703  1.00  0.00     0.058 A 
HETATM   10  N   UNL     1      -4.213 -12.501 -36.513  1.00  0.00    -0.190 N 
HETATM   11  C   UNL     1      -6.789 -14.920 -35.464  1.00  0.00     0.035 A 
HETATM   12  C   UNL     1      -6.792 -14.731 -34.083  1.00  0.00     0.034 A 
HETATM   13 CL   UNL     1      -7.882 -15.620 -33.096  1.00  0.00    -0.084 Cl
HETATM   14  C   UNL     1      -5.920 -13.818 -33.502  1.00  0.00     0.026 A 
HETATM   15  C   UNL     1      -5.050 -13.086 -34.312  1.00  0.00     0.032 A 
HETATM   16  H   UNL     1      -3.690 -12.247 -40.148  1.00  0.00     0.127 HD
HETATM   17  H   UNL     1      -3.814 -13.208 -41.520  1.00  0.00     0.127 HD
HETATM   18  H   UNL     1      -3.562 -11.898 -36.034  1.00  0.00     0.184 HD
ENDROOT
BRANCH   1  19
HETATM   19  N   UNL     1      -3.222 -11.893 -38.482  1.00  0.00    -0.117 NA
HETATM   20  H   UNL     1      -3.255 -10.935 -38.127  1.00  0.00     0.206 HD
ENDBRANCH   1  19
BRANCH   7  21
HETATM   21  C   UNL     1      -7.349 -14.099 -38.345  1.00  0.00    -0.030 A 
HETATM   22  C   UNL     1      -7.805 -12.782 -38.543  1.00  0.00     0.009 A 
HETATM   23  C   UNL     1      -9.075 -12.536 -39.066  1.00  0.00     0.001 A 
HETATM   24  C   UNL     1      -9.908 -13.602 -39.395  1.00  0.00     0.000 A 
HETATM   25  C   UNL     1      -9.476 -14.913 -39.196  1.00  0.00     0.001 A 
HETATM   26  C   UNL     1      -8.204 -15.164 -38.673  1.00  0.00     0.009 A 
ENDBRANCH   7  21
TORSDOF 2
ENDMDL
MODEL 6
REMARK VINA RESULT:      -7.5      3.937      6.140
REMARK  2 active torsions:
REMARK  status: ('A' for Active; 'I' for Inactive)
REMARK    1  A    between atoms: N_2  and  C_3 
REMARK       I    between atoms: N_4  and  C_5 
REMARK       I    between atoms: C_5  and  N_6 
REMARK    2  A    between atoms: C_9  and  C_10 
ROOT
HETATM    1  C   UNL     1      -6.889   3.349 -30.231  1.00  0.00     0.703 A 
HETATM    2  N   UNL     1      -7.470   2.983 -31.444  1.00  0.00    -0.141 N 
HETATM    3  C   UNL     1      -8.781   2.540 -31.609  1.00  0.00     0.188 C 
HETATM    4  N   UNL     1      -9.362   1.969 -30.523  1.00  0.00    -0.272 NA
HETATM    5  N   UNL     1      -9.464   2.626 -32.707  1.00  0.00    -0.273 NA
HETATM    6  H   UNL     1     -10.364   2.165 -32.555  1.00  0.00     0.189 HD
HETATM    7  C   UNL     1      -6.715   3.142 -32.719  1.00  0.00     0.179 A 
HETATM    8  C   UNL     1      -5.351   3.809 -32.594  1.00  0.00    -0.001 A 
HETATM    9  C   UNL     1      -4.873   4.164 -31.337  1.00  0.00     0.058 A 
HETATM   10  N   UNL     1      -5.641   3.889 -30.212  1.00  0.00    -0.190 N 
HETATM   11  C   UNL     1      -4.556   4.062 -33.730  1.00  0.00     0.035 A 
HETATM   12  C   UNL     1      -3.296   4.641 -33.596  1.00  0.00     0.034 A 
HETATM   13 CL   UNL     1      -2.321   4.909 -34.987  1.00  0.00    -0.084 Cl
HETATM   14  C   UNL     1      -2.821   4.996 -32.340  1.00  0.00     0.026 A 
HETATM   15  C   UNL     1      -3.610   4.758 -31.213  1.00  0.00     0.032 A 
HETATM   16  H   UNL     1      -8.907   2.284 -29.657  1.00  0.00     0.127 HD
HETATM   17  H   UNL     1     -10.365   2.057 -30.459  1.00  0.00     0.127 HD
HETATM   18  H   UNL     1      -5.273   4.220 -29.333  1.00  0.00     0.184 HD
ENDROOT
BRANCH   1  19
HETATM   19  N   UNL     1      -7.522   3.224 -29.093  1.00  0.00    -0.117 NA
HETATM   20  H   UNL     1      -7.722   4.149 -28.709  1.00  0.00     0.206 HD
ENDBRANCH   1  19
BRANCH   7  21
HETATM   21  C   UNL     1      -6.576   1.796 -33.451  1.00  0.00    -0.030 A 
HETATM   22  C   UNL     1      -5.913   0.726 -32.823  1.00  0.00     0.009 A 
HETATM   23  C   UNL     1      -5.802  -0.515 -33.452  1.00  0.00     0.001 A 
HETATM   24  C   UNL     1      -6.348  -0.700 -34.719  1.00  0.00     0.000 A 
HETATM   25  C   UNL     1      -7.000   0.353 -35.360  1.00  0.00     0.001 A 
HETATM   26  C   UNL     1      -7.114   1.596 -34.733  1.00  0.00     0.009 A 
ENDBRANCH   7  21
TORSDOF 2
ENDMDL
MODEL 7
REMARK VINA RESULT:      -7.4      3.999      6.693
REMARK  2 active torsions:
REMARK  status: ('A' for Active; 'I' for Inactive)
REMARK    1  A    between atoms: N_2  and  C_3 
REMARK       I    between atoms: N_4  and  C_5 
REMARK       I    between atoms: C_5  and  N_6 
REMARK    2  A    between atoms: C_9  and  C_10 
ROOT
HETATM    1  C   UNL     1      -5.344   4.537 -29.736  1.00  0.00     0.703 A 
HETATM    2  N   UNL     1      -5.759   3.574 -30.654  1.00  0.00    -0.141 N 
HETATM    3  C   UNL     1      -6.897   2.780 -30.531  1.00  0.00     0.188 C 
HETATM    4  N   UNL     1      -7.348   2.570 -29.267  1.00  0.00    -0.272 NA
HETATM    5  N   UNL     1      -7.535   2.233 -31.517  1.00  0.00    -0.273 NA
HETATM    6  H   UNL     1      -8.286   1.658 -31.127  1.00  0.00     0.189 HD
HETATM    7  C   UNL     1      -5.025   3.391 -31.939  1.00  0.00     0.179 A 
HETATM    8  C   UNL     1      -3.893   4.379 -32.193  1.00  0.00    -0.001 A 
HETATM    9  C   UNL     1      -3.576   5.324 -31.222  1.00  0.00     0.058 A 
HETATM   10  N   UNL     1      -4.287   5.341 -30.028  1.00  0.00    -0.190 N 
HETATM   11  C   UNL     1      -3.150   4.345 -33.390  1.00  0.00     0.035 A 
HETATM   12  C   UNL     1      -2.096   5.233 -33.593  1.00  0.00     0.034 A 
HETATM   13 CL   UNL     1      -1.174   5.155 -35.042  1.00  0.00    -0.084 Cl
HETATM   14  C   UNL     1      -1.781   6.176 -32.623  1.00  0.00     0.026 A 
HETATM   15  C   UNL     1      -2.522   6.221 -31.441  1.00  0.00     0.032 A 
HETATM   16  H   UNL     1      -7.027   3.315 -28.636  1.00  0.00     0.127 HD
HETATM   17  H   UNL     1      -8.339   2.414 -29.171  1.00  0.00     0.127 HD
HETATM   18  H   UNL     1      -4.054   6.083 -29.385  1.00  0.00     0.184 HD
ENDROOT
BRANCH   1  19
HETATM   19  N   UNL     1      -5.965   4.726 -28.601  1.00  0.00    -0.117 NA
HETATM   20  H   UNL     1      -6.886   4.287 -28.637  1.00  0.00     0.206 HD
ENDBRANCH   1  19
BRANCH   7  21
HETATM   21  C   UNL     1      -4.505   1.950 -32.077  1.00  0.00    -0.030 A 
HETATM   22  C   UNL     1      -3.537   1.468 -31.176  1.00  0.00     0.009 A 
HETATM   23  C   UNL     1      -3.072   0.155 -31.261  1.00  0.00     0.001 A 
HETATM   24  C   UNL     1      -3.566  -0.693 -32.250  1.00  0.00     0.000 A 
HETATM   25  C   UNL     1      -4.518  -0.228 -33.156  1.00  0.00     0.001 A 
HETATM   26  C   UNL     1      -4.986   1.086 -33.074  1.00  0.00     0.009 A 
ENDBRANCH   7  21
TORSDOF 2
ENDMDL
MODEL 8
REMARK VINA RESULT:      -7.4     13.382     15.119
REMARK  2 active torsions:
REMARK  status: ('A' for Active; 'I' for Inactive)
REMARK    1  A    between atoms: N_2  and  C_3 
REMARK       I    between atoms: N_4  and  C_5 
REMARK       I    between atoms: C_5  and  N_6 
REMARK    2  A    between atoms: C_9  and  C_10 
ROOT
HETATM    1  C   UNL     1      -4.200 -13.673 -40.837  1.00  0.00     0.703 A 
HETATM    2  N   UNL     1      -5.415 -14.353 -40.896  1.00  0.00    -0.141 N 
HETATM    3  C   UNL     1      -5.935 -14.980 -42.027  1.00  0.00     0.188 C 
HETATM    4  N   UNL     1      -5.508 -14.505 -43.225  1.00  0.00    -0.272 NA
HETATM    5  N   UNL     1      -6.785 -15.957 -42.013  1.00  0.00    -0.273 NA
HETATM    6  H   UNL     1      -7.036 -16.172 -42.981  1.00  0.00     0.189 HD
HETATM    7  C   UNL     1      -6.234 -14.543 -39.665  1.00  0.00     0.179 A 
HETATM    8  C   UNL     1      -5.600 -14.041 -38.373  1.00  0.00    -0.001 A 
HETATM    9  C   UNL     1      -4.366 -13.400 -38.418  1.00  0.00     0.058 A 
HETATM   10  N   UNL     1      -3.738 -13.213 -39.644  1.00  0.00    -0.190 N 
HETATM   11  C   UNL     1      -6.248 -14.202 -37.132  1.00  0.00     0.035 A 
HETATM   12  C   UNL     1      -5.672 -13.707 -35.964  1.00  0.00     0.034 A 
HETATM   13 CL   UNL     1      -6.491 -13.877 -34.462  1.00  0.00    -0.084 Cl
HETATM   14  C   UNL     1      -4.439 -13.068 -36.011  1.00  0.00     0.026 A 
HETATM   15  C   UNL     1      -3.788 -12.917 -37.236  1.00  0.00     0.032 A 
HETATM   16  H   UNL     1      -4.602 -14.028 -43.128  1.00  0.00     0.127 HD
HETATM   17  H   UNL     1      -5.489 -15.169 -43.984  1.00  0.00     0.127 HD
HETATM   18  H   UNL     1      -2.820 -12.796 -39.611  1.00  0.00     0.184 HD
ENDROOT
BRANCH   1  19
HETATM   19  N   UNL     1      -3.456 -13.490 -41.896  1.00  0.00    -0.117 NA
HETATM   20  H   UNL     1      -3.180 -14.394 -42.282  1.00  0.00     0.206 HD
ENDBRANCH   1  19
BRANCH   7  21
HETATM   21  C   UNL     1      -7.636 -13.932 -39.833  1.00  0.00    -0.030 A 
HETATM   22  C   UNL     1      -8.775 -14.731 -39.625  1.00  0.00     0.009 A 
HETATM   23  C   UNL     1     -10.057 -14.193 -39.740  1.00  0.00     0.001 A 
HETATM   24  C   UNL     1     -10.218 -12.849 -40.069  1.00  0.00     0.000 A 
HETATM   25  C   UNL     1      -9.100 -12.045 -40.288  1.00  0.00     0.001 A 
HETATM   26  C   UNL     1      -7.814 -12.581 -40.173  1.00  0.00     0.009 A 
ENDBRANCH   7  21
TORSDOF 2
ENDMDL
MODEL 9
REMARK VINA RESULT:      -7.1      3.804      6.281
REMARK  2 active torsions:
REMARK  status: ('A' for Active; 'I' for Inactive)
REMARK    1  A    between atoms: N_2  and  C_3 
REMARK       I    between atoms: N_4  and  C_5 
REMARK       I    between atoms: C_5  and  N_6 
REMARK    2  A    between atoms: C_9  and  C_10 
ROOT
HETATM    1  C   UNL     1      -7.838   2.968 -30.853  1.00  0.00     0.703 A 
HETATM    2  N   UNL     1      -7.605   2.003 -31.831  1.00  0.00    -0.141 N 
HETATM    3  C   UNL     1      -8.484   0.978 -32.179  1.00  0.00     0.188 C 
HETATM    4  N   UNL     1      -9.366   0.594 -31.221  1.00  0.00    -0.272 NA
HETATM    5  N   UNL     1      -8.509   0.376 -33.326  1.00  0.00    -0.273 NA
HETATM    6  H   UNL     1      -9.208  -0.370 -33.275  1.00  0.00     0.189 HD
HETATM    7  C   UNL     1      -6.378   2.065 -32.675  1.00  0.00     0.179 A 
HETATM    8  C   UNL     1      -5.492   3.285 -32.453  1.00  0.00    -0.001 A 
HETATM    9  C   UNL     1      -5.830   4.209 -31.469  1.00  0.00     0.058 A 
HETATM   10  N   UNL     1      -6.962   3.995 -30.692  1.00  0.00    -0.190 N 
HETATM   11  C   UNL     1      -4.327   3.489 -33.219  1.00  0.00     0.035 A 
HETATM   12  C   UNL     1      -3.509   4.592 -32.982  1.00  0.00     0.034 A 
HETATM   13 CL   UNL     1      -2.070   4.808 -33.897  1.00  0.00    -0.084 Cl
HETATM   14  C   UNL     1      -3.848   5.513 -31.999  1.00  0.00     0.026 A 
HETATM   15  C   UNL     1      -5.008   5.321 -31.246  1.00  0.00     0.032 A 
HETATM   16  H   UNL     1      -9.513   1.346 -30.536  1.00  0.00     0.127 HD
HETATM   17  H   UNL     1     -10.245   0.225 -31.551  1.00  0.00     0.127 HD
HETATM   18  H   UNL     1      -7.191   4.725 -30.034  1.00  0.00     0.184 HD
ENDROOT
BRANCH   1  19
HETATM   19  N   UNL     1      -8.904   2.945 -30.096  1.00  0.00    -0.117 NA
HETATM   20  H   UNL     1      -8.635   2.750 -29.130  1.00  0.00     0.206 HD
ENDBRANCH   1  19
BRANCH   7  21
HETATM   21  C   UNL     1      -5.544   0.779 -32.535  1.00  0.00    -0.030 A 
HETATM   22  C   UNL     1      -5.337  -0.044 -33.657  1.00  0.00     0.009 A 
HETATM   23  C   UNL     1      -4.559  -1.199 -33.563  1.00  0.00     0.001 A 
HETATM   24  C   UNL     1      -3.980  -1.547 -32.345  1.00  0.00     0.000 A 
HETATM   25  C   UNL     1      -4.183  -0.748 -31.221  1.00  0.00     0.001 A 
HETATM   26  C   UNL     1      -4.962   0.409 -31.311  1.00  0.00     0.009 A 
ENDBRANCH   7  21
TORSDOF 2
ENDMDL
MODEL 10
REMARK VINA RESULT:      -7.1      4.026      6.263
REMARK  2 active torsions:
REMARK  status: ('A' for Active; 'I' for Inactive)
REMARK    1  A    between atoms: N_2  and  C_3 
REMARK       I    between atoms: N_4  and  C_5 
REMARK       I    between atoms: C_5  and  N_6 
REMARK    2  A    between atoms: C_9  and  C_10 
ROOT
HETATM    1  C   UNL     1      -7.946   4.878 -33.624  1.00  0.00     0.703 A 
HETATM    2  N   UNL     1      -6.769   5.076 -32.903  1.00  0.00    -0.141 N 
HETATM    3  C   UNL     1      -6.426   6.244 -32.225  1.00  0.00     0.188 C 
HETATM    4  N   UNL     1      -6.997   7.390 -32.677  1.00  0.00    -0.272 NA
HETATM    5  N   UNL     1      -5.610   6.311 -31.221  1.00  0.00    -0.273 NA
HETATM    6  H   UNL     1      -5.499   7.296 -30.969  1.00  0.00     0.189 HD
HETATM    7  C   UNL     1      -5.798   3.960 -32.723  1.00  0.00     0.179 A 
HETATM    8  C   UNL     1      -6.237   2.613 -33.285  1.00  0.00    -0.001 A 
HETATM    9  C   UNL     1      -7.447   2.515 -33.965  1.00  0.00     0.058 A 
HETATM   10  N   UNL     1      -8.229   3.651 -34.135  1.00  0.00    -0.190 N 
HETATM   11  C   UNL     1      -5.432   1.465 -33.141  1.00  0.00     0.035 A 
HETATM   12  C   UNL     1      -5.831   0.248 -33.690  1.00  0.00     0.034 A 
HETATM   13 CL   UNL     1      -4.822  -1.135 -33.539  1.00  0.00    -0.084 Cl
HETATM   14  C   UNL     1      -7.041   0.152 -34.367  1.00  0.00     0.026 A 
HETATM   15  C   UNL     1      -7.846   1.284 -34.502  1.00  0.00     0.032 A 
HETATM   16  H   UNL     1      -7.867   7.189 -33.187  1.00  0.00     0.127 HD
HETATM   17  H   UNL     1      -7.137   8.116 -31.991  1.00  0.00     0.127 HD
HETATM   18  H   UNL     1      -9.122   3.510 -34.584  1.00  0.00     0.184 HD
ENDROOT
BRANCH   1  19
HETATM   19  N   UNL     1      -8.820   5.834 -33.800  1.00  0.00    -0.117 NA
HETATM   20  H   UNL     1      -9.742   5.429 -33.969  1.00  0.00     0.206 HD
ENDBRANCH   1  19
BRANCH   7  21
HETATM   21  C   UNL     1      -4.415   4.335 -33.282  1.00  0.00    -0.030 A 
HETATM   22  C   UNL     1      -4.315   4.953 -34.542  1.00  0.00     0.009 A 
HETATM   23  C   UNL     1      -3.075   5.332 -35.057  1.00  0.00     0.001 A 
HETATM   24  C   UNL     1      -1.917   5.096 -34.320  1.00  0.00     0.000 A 
HETATM   25  C   UNL     1      -1.997   4.476 -33.074  1.00  0.00     0.001 A 
HETATM   26  C   UNL     1      -3.237   4.095 -32.555  1.00  0.00     0.009 A 
ENDBRANCH   7  21
TORSDOF 2
ENDMDL
