MODEL 1
REMARK VINA RESULT:     -10.2      0.000      0.000
REMARK  5 active torsions:
REMARK  status: ('A' for Active; 'I' for Inactive)
REMARK    1  A    between atoms: C_7  and  C_8 
REMARK    2  A    between atoms: C_16  and  C_17 
REMARK    3  A    between atoms: C_19  and  O_20 
REMARK    4  A    between atoms: C_24  and  C_25 
REMARK       I    between atoms: C_25  and  N_26 
REMARK    5  A    between atoms: N_26  and  C_27 
ROOT
HETATM    1  C   UNL     1      -5.246   3.003 -29.745  1.00  0.00     0.070 C 
HETATM    2  C   UNL     1      -5.941   2.389 -30.936  1.00  0.00     0.037 C 
HETATM    3  N   UNL     1      -7.281   2.044 -30.739  1.00  0.00    -0.192 N 
HETATM    4  C   UNL     1      -8.110   1.778 -31.769  1.00  0.00     0.726 A 
HETATM    5  N   UNL     1      -7.578   1.541 -33.002  1.00  0.00    -0.083 N 
HETATM    6  N   UNL     1      -8.529   1.424 -33.945  1.00  0.00    -0.135 NA
HETATM    7  C   UNL     1      -9.648   1.558 -33.206  1.00  0.00     0.199 A 
HETATM    8  N   UNL     1      -9.415   1.766 -31.854  1.00  0.00    -0.041 NA
HETATM    9  C   UNL     1      -6.141   1.520 -33.277  1.00  0.00     0.202 C 
HETATM   10  C   UNL     1      -5.357   2.183 -32.147  1.00  0.00     0.062 C 
HETATM   11  H   UNL     1      -7.705   2.367 -29.871  1.00  0.00     0.184 HD
ENDROOT
BRANCH  10  12
HETATM   12  C   UNL     1      -4.035   2.802 -32.481  1.00  0.00     0.256 C 
HETATM   13  N   UNL     1      -4.110   4.058 -33.045  1.00  0.00    -0.323 N 
HETATM   14  H   UNL     1      -5.017   4.425 -33.298  1.00  0.00     0.169 HD
HETATM   15  O   UNL     1      -3.006   2.205 -32.188  1.00  0.00    -0.267 OA
BRANCH  13  16
HETATM   16  C   UNL     1      -3.036   4.937 -33.314  1.00  0.00     0.035 A 
HETATM   17  C   UNL     1      -2.220   4.860 -34.444  1.00  0.00     0.029 A 
HETATM   18  C   UNL     1      -1.162   5.758 -34.618  1.00  0.00     0.002 A 
HETATM   19  C   UNL     1      -0.906   6.736 -33.661  1.00  0.00     0.000 A 
HETATM   20  C   UNL     1      -1.714   6.823 -32.531  1.00  0.00     0.002 A 
HETATM   21  C   UNL     1      -2.777   5.933 -32.361  1.00  0.00     0.029 A 
ENDBRANCH  13  16
ENDBRANCH  10  12
BRANCH   9  22
HETATM   22  C   UNL     1      -5.713   0.077 -33.554  1.00  0.00    -0.025 A 
HETATM   23  C   UNL     1      -4.726  -0.570 -32.784  1.00  0.00     0.046 A 
HETATM   24  C   UNL     1      -4.350  -1.877 -33.085  1.00  0.00     0.066 A 
HETATM   25  C   UNL     1      -4.947  -2.568 -34.129  1.00  0.00     0.036 A 
HETATM   26  C   UNL     1      -5.944  -1.951 -34.883  1.00  0.00     0.003 A 
HETATM   27  C   UNL     1      -6.327  -0.639 -34.597  1.00  0.00     0.010 A 
BRANCH  24  28
HETATM   28  O   UNL     1      -3.385  -2.521 -32.370  1.00  0.00    -0.361 OA
HETATM   29  H   UNL     1      -2.551  -2.501 -32.866  1.00  0.00     0.217 HD
ENDBRANCH  24  28
ENDBRANCH   9  22
BRANCH   7  30
HETATM   30  C   UNL     1     -10.993   1.537 -33.772  1.00  0.00     0.016 A 
HETATM   31  C   UNL     1     -11.903   0.527 -33.425  1.00  0.00     0.039 A 
HETATM   32  C   UNL     1     -13.177   0.506 -33.992  1.00  0.00     0.035 A 
HETATM   33 CL   UNL     1     -14.280  -0.743 -33.562  1.00  0.00    -0.084 Cl
HETATM   34  C   UNL     1     -13.562   1.482 -34.906  1.00  0.00     0.024 A 
HETATM   35  C   UNL     1     -12.668   2.493 -35.257  1.00  0.00     0.003 A 
HETATM   36  C   UNL     1     -11.391   2.521 -34.691  1.00  0.00     0.015 A 
ENDBRANCH   7  30
TORSDOF 5
ENDMDL
MODEL 2
REMARK VINA RESULT:      -9.8      3.725      6.878
REMARK  5 active torsions:
REMARK  status: ('A' for Active; 'I' for Inactive)
REMARK    1  A    between atoms: C_7  and  C_8 
REMARK    2  A    between atoms: C_16  and  C_17 
REMARK    3  A    between atoms: C_19  and  O_20 
REMARK    4  A    between atoms: C_24  and  C_25 
REMARK       I    between atoms: C_25  and  N_26 
REMARK    5  A    between atoms: N_26  and  C_27 
ROOT
HETATM    1  C   UNL     1      -8.794   3.563 -30.099  1.00  0.00     0.070 C 
HETATM    2  C   UNL     1      -7.933   2.959 -31.181  1.00  0.00     0.037 C 
HETATM    3  N   UNL     1      -7.460   1.669 -30.923  1.00  0.00    -0.192 N 
HETATM    4  C   UNL     1      -6.948   0.887 -31.896  1.00  0.00     0.726 A 
HETATM    5  N   UNL     1      -6.599   1.455 -33.085  1.00  0.00    -0.083 N 
HETATM    6  N   UNL     1      -6.231   0.534 -33.993  1.00  0.00    -0.135 NA
HETATM    7  C   UNL     1      -6.334  -0.599 -33.271  1.00  0.00     0.199 A 
HETATM    8  N   UNL     1      -6.764  -0.405 -31.966  1.00  0.00    -0.041 NA
HETATM    9  C   UNL     1      -6.714   2.886 -33.368  1.00  0.00     0.202 C 
HETATM   10  C   UNL     1      -7.625   3.574 -32.354  1.00  0.00     0.062 C 
HETATM   11  H   UNL     1      -7.852   1.201 -30.108  1.00  0.00     0.184 HD
ENDROOT
BRANCH  10  12
HETATM   12  C   UNL     1      -8.346   4.813 -32.787  1.00  0.00     0.256 C 
HETATM   13  N   UNL     1      -9.466   4.592 -33.559  1.00  0.00    -0.323 N 
HETATM   14  H   UNL     1      -9.664   3.652 -33.873  1.00  0.00     0.169 HD
HETATM   15  O   UNL     1      -7.947   5.903 -32.393  1.00  0.00    -0.267 OA
BRANCH  13  16
HETATM   16  C   UNL     1     -10.419   5.550 -33.972  1.00  0.00     0.035 A 
HETATM   17  C   UNL     1     -11.577   5.866 -33.259  1.00  0.00     0.029 A 
HETATM   18  C   UNL     1     -12.481   6.811 -33.756  1.00  0.00     0.002 A 
HETATM   19  C   UNL     1     -12.240   7.442 -34.973  1.00  0.00     0.000 A 
HETATM   20  C   UNL     1     -11.089   7.136 -35.693  1.00  0.00     0.002 A 
HETATM   21  C   UNL     1     -10.180   6.200 -35.192  1.00  0.00     0.029 A 
ENDBRANCH  13  16
ENDBRANCH  10  12
BRANCH   9  22
HETATM   22  C   UNL     1      -5.309   3.490 -33.435  1.00  0.00    -0.025 A 
HETATM   23  C   UNL     1      -4.986   4.536 -34.323  1.00  0.00     0.046 A 
HETATM   24  C   UNL     1      -3.689   5.039 -34.367  1.00  0.00     0.066 A 
HETATM   25  C   UNL     1      -2.701   4.538 -33.532  1.00  0.00     0.036 A 
HETATM   26  C   UNL     1      -3.010   3.523 -32.630  1.00  0.00     0.003 A 
HETATM   27  C   UNL     1      -4.306   3.003 -32.578  1.00  0.00     0.010 A 
BRANCH  24  28
HETATM   28  O   UNL     1      -3.343   6.037 -35.229  1.00  0.00    -0.361 OA
HETATM   29  H   UNL     1      -2.477   5.837 -35.620  1.00  0.00     0.217 HD
ENDBRANCH  24  28
ENDBRANCH   9  22
BRANCH   7  30
HETATM   30  C   UNL     1      -6.067  -1.927 -33.816  1.00  0.00     0.016 A 
HETATM   31  C   UNL     1      -4.838  -2.563 -33.587  1.00  0.00     0.039 A 
HETATM   32  C   UNL     1      -4.587  -3.821 -34.133  1.00  0.00     0.035 A 
HETATM   33 CL   UNL     1      -3.073  -4.588 -33.849  1.00  0.00    -0.084 Cl
HETATM   34  C   UNL     1      -5.548  -4.461 -34.911  1.00  0.00     0.024 A 
HETATM   35  C   UNL     1      -6.775  -3.840 -35.144  1.00  0.00     0.003 A 
HETATM   36  C   UNL     1      -7.033  -2.580 -34.597  1.00  0.00     0.015 A 
ENDBRANCH   7  30
TORSDOF 5
ENDMDL
MODEL 3
REMARK VINA RESULT:      -9.7      3.940      7.929
REMARK  5 active torsions:
REMARK  status: ('A' for Active; 'I' for Inactive)
REMARK    1  A    between atoms: C_7  and  C_8 
REMARK    2  A    between atoms: C_16  and  C_17 
REMARK    3  A    between atoms: C_19  and  O_20 
REMARK    4  A    between atoms: C_24  and  C_25 
REMARK       I    between atoms: C_25  and  N_26 
REMARK    5  A    between atoms: N_26  and  C_27 
ROOT
HETATM    1  C   UNL     1     -13.186   1.744 -33.477  1.00  0.00     0.070 C 
HETATM    2  C   UNL     1     -11.686   1.822 -33.628  1.00  0.00     0.037 C 
HETATM    3  N   UNL     1     -10.969   0.766 -33.058  1.00  0.00    -0.192 N 
HETATM    4  C   UNL     1      -9.676   0.532 -33.365  1.00  0.00     0.726 A 
HETATM    5  N   UNL     1      -8.961   1.504 -34.000  1.00  0.00    -0.083 N 
HETATM    6  N   UNL     1      -7.736   1.075 -34.355  1.00  0.00    -0.135 NA
HETATM    7  C   UNL     1      -7.745  -0.178 -33.859  1.00  0.00     0.199 A 
HETATM    8  N   UNL     1      -8.930  -0.533 -33.232  1.00  0.00    -0.041 NA
HETATM    9  C   UNL     1      -9.502   2.818 -34.345  1.00  0.00     0.202 C 
HETATM   10  C   UNL     1     -11.027   2.817 -34.281  1.00  0.00     0.062 C 
HETATM   11  H   UNL     1     -11.518  -0.023 -32.726  1.00  0.00     0.184 HD
ENDROOT
BRANCH  10  12
HETATM   12  C   UNL     1     -11.766   3.791 -35.147  1.00  0.00     0.256 C 
HETATM   13  N   UNL     1     -11.809   5.080 -34.662  1.00  0.00    -0.323 N 
HETATM   14  H   UNL     1     -11.454   5.264 -33.733  1.00  0.00     0.169 HD
HETATM   15  O   UNL     1     -12.217   3.411 -36.221  1.00  0.00    -0.267 OA
BRANCH  13  16
HETATM   16  C   UNL     1     -12.292   6.228 -35.331  1.00  0.00     0.035 A 
HETATM   17  C   UNL     1     -13.630   6.432 -35.675  1.00  0.00     0.029 A 
HETATM   18  C   UNL     1     -14.018   7.588 -36.361  1.00  0.00     0.002 A 
HETATM   19  C   UNL     1     -13.071   8.546 -36.715  1.00  0.00     0.000 A 
HETATM   20  C   UNL     1     -11.735   8.353 -36.376  1.00  0.00     0.002 A 
HETATM   21  C   UNL     1     -11.348   7.204 -35.683  1.00  0.00     0.029 A 
ENDBRANCH  13  16
ENDBRANCH  10  12
BRANCH   9  22
HETATM   22  C   UNL     1      -8.854   3.871 -33.441  1.00  0.00    -0.025 A 
HETATM   23  C   UNL     1      -7.772   4.663 -33.873  1.00  0.00     0.046 A 
HETATM   24  C   UNL     1      -7.197   5.592 -33.010  1.00  0.00     0.066 A 
HETATM   25  C   UNL     1      -7.687   5.768 -31.724  1.00  0.00     0.036 A 
HETATM   26  C   UNL     1      -8.774   5.013 -31.291  1.00  0.00     0.003 A 
HETATM   27  C   UNL     1      -9.357   4.072 -32.143  1.00  0.00     0.010 A 
BRANCH  24  28
HETATM   28  O   UNL     1      -6.137   6.358 -33.394  1.00  0.00    -0.361 OA
HETATM   29  H   UNL     1      -6.382   7.296 -33.339  1.00  0.00     0.217 HD
ENDBRANCH  24  28
ENDBRANCH   9  22
BRANCH   7  30
HETATM   30  C   UNL     1      -6.630  -1.109 -34.007  1.00  0.00     0.016 A 
HETATM   31  C   UNL     1      -6.818  -2.364 -34.604  1.00  0.00     0.039 A 
HETATM   32  C   UNL     1      -5.750  -3.254 -34.717  1.00  0.00     0.035 A 
HETATM   33 CL   UNL     1      -5.997  -4.793 -35.446  1.00  0.00    -0.084 Cl
HETATM   34  C   UNL     1      -4.487  -2.910 -34.243  1.00  0.00     0.024 A 
HETATM   35  C   UNL     1      -4.287  -1.663 -33.651  1.00  0.00     0.003 A 
HETATM   36  C   UNL     1      -5.353  -0.767 -33.536  1.00  0.00     0.015 A 
ENDBRANCH   7  30
TORSDOF 5
ENDMDL
MODEL 4
REMARK VINA RESULT:      -9.7      4.103      7.777
REMARK  5 active torsions:
REMARK  status: ('A' for Active; 'I' for Inactive)
REMARK    1  A    between atoms: C_7  and  C_8 
REMARK    2  A    between atoms: C_16  and  C_17 
REMARK    3  A    between atoms: C_19  and  O_20 
REMARK    4  A    between atoms: C_24  and  C_25 
REMARK       I    between atoms: C_25  and  N_26 
REMARK    5  A    between atoms: N_26  and  C_27 
ROOT
HETATM    1  C   UNL     1      -8.097   5.720 -33.073  1.00  0.00     0.070 C 
HETATM    2  C   UNL     1      -8.354   4.234 -33.130  1.00  0.00     0.037 C 
HETATM    3  N   UNL     1      -7.509   3.509 -33.975  1.00  0.00    -0.192 N 
HETATM    4  C   UNL     1      -7.408   2.165 -33.904  1.00  0.00     0.726 A 
HETATM    5  N   UNL     1      -8.356   1.466 -33.218  1.00  0.00    -0.083 N 
HETATM    6  N   UNL     1      -8.049   0.160 -33.126  1.00  0.00    -0.135 NA
HETATM    7  C   UNL     1      -6.899   0.113 -33.827  1.00  0.00     0.199 A 
HETATM    8  N   UNL     1      -6.489   1.339 -34.329  1.00  0.00    -0.041 NA
HETATM    9  C   UNL     1      -9.515   2.085 -32.573  1.00  0.00     0.202 C 
HETATM   10  C   UNL     1      -9.315   3.590 -32.415  1.00  0.00     0.062 C 
HETATM   11  H   UNL     1      -6.713   4.016 -34.357  1.00  0.00     0.184 HD
ENDROOT
BRANCH  10  12
HETATM   12  C   UNL     1     -10.032   4.278 -31.293  1.00  0.00     0.256 C 
HETATM   13  N   UNL     1     -11.160   4.975 -31.668  1.00  0.00    -0.323 N 
HETATM   14  H   UNL     1     -11.366   5.074 -32.653  1.00  0.00     0.169 HD
HETATM   15  O   UNL     1      -9.622   4.133 -30.147  1.00  0.00    -0.267 OA
BRANCH  13  16
HETATM   16  C   UNL     1     -12.111   5.581 -30.816  1.00  0.00     0.035 A 
HETATM   17  C   UNL     1     -13.291   4.967 -30.391  1.00  0.00     0.029 A 
HETATM   18  C   UNL     1     -14.189   5.651 -29.566  1.00  0.00     0.002 A 
HETATM   19  C   UNL     1     -13.921   6.957 -29.165  1.00  0.00     0.000 A 
HETATM   20  C   UNL     1     -12.747   7.579 -29.581  1.00  0.00     0.002 A 
HETATM   21  C   UNL     1     -11.844   6.893 -30.397  1.00  0.00     0.029 A 
ENDBRANCH  13  16
ENDBRANCH  10  12
BRANCH   9  22
HETATM   22  C   UNL     1     -10.774   1.715 -33.361  1.00  0.00    -0.025 A 
HETATM   23  C   UNL     1     -11.517   0.552 -33.080  1.00  0.00     0.046 A 
HETATM   24  C   UNL     1     -12.644   0.242 -33.839  1.00  0.00     0.066 A 
HETATM   25  C   UNL     1     -13.063   1.075 -34.865  1.00  0.00     0.036 A 
HETATM   26  C   UNL     1     -12.355   2.244 -35.138  1.00  0.00     0.003 A 
HETATM   27  C   UNL     1     -11.219   2.564 -34.390  1.00  0.00     0.010 A 
BRANCH  24  28
HETATM   28  O   UNL     1     -13.370  -0.887 -33.602  1.00  0.00    -0.361 OA
HETATM   29  H   UNL     1     -13.316  -1.471 -34.376  1.00  0.00     0.217 HD
ENDBRANCH  24  28
ENDBRANCH   9  22
BRANCH   7  30
HETATM   30  C   UNL     1      -6.118  -1.107 -34.008  1.00  0.00     0.016 A 
HETATM   31  C   UNL     1      -6.663  -2.216 -34.672  1.00  0.00     0.039 A 
HETATM   32  C   UNL     1      -5.915  -3.384 -34.818  1.00  0.00     0.035 A 
HETATM   33 CL   UNL     1      -6.598  -4.739 -35.629  1.00  0.00    -0.084 Cl
HETATM   34  C   UNL     1      -4.622  -3.465 -34.308  1.00  0.00     0.024 A 
HETATM   35  C   UNL     1      -4.068  -2.369 -33.648  1.00  0.00     0.003 A 
HETATM   36  C   UNL     1      -4.812  -1.195 -33.502  1.00  0.00     0.015 A 
ENDBRANCH   7  30
TORSDOF 5
ENDMDL
MODEL 5
REMARK VINA RESULT:      -9.5      3.874      8.466
REMARK  5 active torsions:
REMARK  status: ('A' for Active; 'I' for Inactive)
REMARK    1  A    between atoms: C_7  and  C_8 
REMARK    2  A    between atoms: C_16  and  C_17 
REMARK    3  A    between atoms: C_19  and  O_20 
REMARK    4  A    between atoms: C_24  and  C_25 
REMARK       I    between atoms: C_25  and  N_26 
REMARK    5  A    between atoms: N_26  and  C_27 
ROOT
HETATM    1  C   UNL     1      -6.369  -0.170 -30.086  1.00  0.00     0.070 C 
HETATM    2  C   UNL     1      -6.094   0.961 -31.046  1.00  0.00     0.037 C 
HETATM    3  N   UNL     1      -5.483   2.088 -30.488  1.00  0.00    -0.192 N 
HETATM    4  C   UNL     1      -4.902   3.038 -31.251  1.00  0.00     0.726 A 
HETATM    5  N   UNL     1      -5.172   3.069 -32.587  1.00  0.00    -0.083 N 
HETATM    6  N   UNL     1      -4.422   3.982 -33.229  1.00  0.00    -0.135 NA
HETATM    7  C   UNL     1      -3.731   4.519 -32.204  1.00  0.00     0.199 A 
HETATM    8  N   UNL     1      -4.020   3.960 -30.968  1.00  0.00    -0.041 NA
HETATM    9  C   UNL     1      -6.091   2.146 -33.253  1.00  0.00     0.202 C 
HETATM   10  C   UNL     1      -6.379   0.931 -32.376  1.00  0.00     0.062 C 
HETATM   11  H   UNL     1      -5.149   1.991 -29.532  1.00  0.00     0.184 HD
ENDROOT
BRANCH  10  12
HETATM   12  C   UNL     1      -6.754  -0.351 -33.054  1.00  0.00     0.256 C 
HETATM   13  N   UNL     1      -5.691  -1.080 -33.542  1.00  0.00    -0.323 N 
HETATM   14  H   UNL     1      -4.766  -0.670 -33.517  1.00  0.00     0.169 HD
HETATM   15  O   UNL     1      -7.931  -0.690 -33.080  1.00  0.00    -0.267 OA
BRANCH  13  16
HETATM   16  C   UNL     1      -5.728  -2.386 -34.081  1.00  0.00     0.035 A 
HETATM   17  C   UNL     1      -6.850  -2.955 -34.687  1.00  0.00     0.029 A 
HETATM   18  C   UNL     1      -6.805  -4.267 -35.172  1.00  0.00     0.002 A 
HETATM   19  C   UNL     1      -5.644  -5.023 -35.048  1.00  0.00     0.000 A 
HETATM   20  C   UNL     1      -4.519  -4.466 -34.446  1.00  0.00     0.002 A 
HETATM   21  C   UNL     1      -4.559  -3.153 -33.970  1.00  0.00     0.029 A 
ENDBRANCH  13  16
ENDBRANCH  10  12
BRANCH   9  22
HETATM   22  C   UNL     1      -7.349   2.915 -33.664  1.00  0.00    -0.025 A 
HETATM   23  C   UNL     1      -8.508   2.260 -34.127  1.00  0.00     0.046 A 
HETATM   24  C   UNL     1      -9.622   3.001 -34.513  1.00  0.00     0.066 A 
HETATM   25  C   UNL     1      -9.621   4.385 -34.432  1.00  0.00     0.036 A 
HETATM   26  C   UNL     1      -8.494   5.047 -33.950  1.00  0.00     0.003 A 
HETATM   27  C   UNL     1      -7.365   4.318 -33.566  1.00  0.00     0.010 A 
BRANCH  24  28
HETATM   28  O   UNL     1     -10.749   2.395 -34.983  1.00  0.00    -0.361 OA
HETATM   29  H   UNL     1     -11.091   1.786 -34.308  1.00  0.00     0.217 HD
ENDBRANCH  24  28
ENDBRANCH   9  22
BRANCH   7  30
HETATM   30  C   UNL     1      -2.726   5.565 -32.373  1.00  0.00     0.016 A 
HETATM   31  C   UNL     1      -1.727   5.762 -31.408  1.00  0.00     0.039 A 
HETATM   32  C   UNL     1      -0.788   6.780 -31.569  1.00  0.00     0.035 A 
HETATM   33 CL   UNL     1       0.429   7.014 -30.374  1.00  0.00    -0.084 Cl
HETATM   34  C   UNL     1      -0.828   7.612 -32.685  1.00  0.00     0.024 A 
HETATM   35  C   UNL     1      -1.815   7.424 -33.652  1.00  0.00     0.003 A 
HETATM   36  C   UNL     1      -2.757   6.404 -33.497  1.00  0.00     0.015 A 
ENDBRANCH   7  30
TORSDOF 5
ENDMDL
MODEL 6
REMARK VINA RESULT:      -9.4      4.792      7.681
REMARK  5 active torsions:
REMARK  status: ('A' for Active; 'I' for Inactive)
REMARK    1  A    between atoms: C_7  and  C_8 
REMARK    2  A    between atoms: C_16  and  C_17 
REMARK    3  A    between atoms: C_19  and  O_20 
REMARK    4  A    between atoms: C_24  and  C_25 
REMARK       I    between atoms: C_25  and  N_26 
REMARK    5  A    between atoms: N_26  and  C_27 
ROOT
HETATM    1  C   UNL     1      -8.465   3.325 -31.150  1.00  0.00     0.070 C 
HETATM    2  C   UNL     1      -9.495   3.590 -32.220  1.00  0.00     0.037 C 
HETATM    3  N   UNL     1      -9.890   4.924 -32.357  1.00  0.00    -0.192 N 
HETATM    4  C   UNL     1     -10.554   5.365 -33.446  1.00  0.00     0.726 A 
HETATM    5  N   UNL     1     -11.121   4.455 -34.288  1.00  0.00    -0.083 N 
HETATM    6  N   UNL     1     -11.629   5.037 -35.388  1.00  0.00    -0.135 NA
HETATM    7  C   UNL     1     -11.377   6.336 -35.136  1.00  0.00     0.199 A 
HETATM    8  N   UNL     1     -10.724   6.565 -33.934  1.00  0.00    -0.041 NA
HETATM    9  C   UNL     1     -11.085   3.009 -34.066  1.00  0.00     0.202 C 
HETATM   10  C   UNL     1     -10.020   2.638 -33.037  1.00  0.00     0.062 C 
HETATM   11  H   UNL     1      -9.350   5.609 -31.833  1.00  0.00     0.184 HD
ENDROOT
BRANCH  10  12
HETATM   12  C   UNL     1      -9.412   1.272 -33.119  1.00  0.00     0.256 C 
HETATM   13  N   UNL     1      -8.211   1.212 -33.792  1.00  0.00    -0.323 N 
HETATM   14  H   UNL     1      -7.879   2.038 -34.272  1.00  0.00     0.169 HD
HETATM   15  O   UNL     1      -9.967   0.338 -32.552  1.00  0.00    -0.267 OA
BRANCH  13  16
HETATM   16  C   UNL     1      -7.341   0.101 -33.888  1.00  0.00     0.035 A 
HETATM   17  C   UNL     1      -7.360  -0.823 -34.934  1.00  0.00     0.029 A 
HETATM   18  C   UNL     1      -6.478  -1.909 -34.937  1.00  0.00     0.002 A 
HETATM   19  C   UNL     1      -5.577  -2.085 -33.891  1.00  0.00     0.000 A 
HETATM   20  C   UNL     1      -5.549  -1.169 -32.844  1.00  0.00     0.002 A 
HETATM   21  C   UNL     1      -6.421  -0.079 -32.845  1.00  0.00     0.029 A 
ENDBRANCH  13  16
ENDBRANCH  10  12
BRANCH   9  22
HETATM   22  C   UNL     1     -12.491   2.533 -33.689  1.00  0.00    -0.025 A 
HETATM   23  C   UNL     1     -13.196   1.594 -34.468  1.00  0.00     0.046 A 
HETATM   24  C   UNL     1     -14.482   1.207 -34.101  1.00  0.00     0.066 A 
HETATM   25  C   UNL     1     -15.082   1.719 -32.960  1.00  0.00     0.036 A 
HETATM   26  C   UNL     1     -14.387   2.627 -32.163  1.00  0.00     0.003 A 
HETATM   27  C   UNL     1     -13.099   3.030 -32.523  1.00  0.00     0.010 A 
BRANCH  24  28
HETATM   28  O   UNL     1     -15.196   0.316 -34.846  1.00  0.00    -0.361 OA
HETATM   29  H   UNL     1     -15.473  -0.424 -34.282  1.00  0.00     0.217 HD
ENDBRANCH  24  28
ENDBRANCH   9  22
BRANCH   7  30
HETATM   30  C   UNL     1     -11.713   7.415 -36.061  1.00  0.00     0.016 A 
HETATM   31  C   UNL     1     -10.706   8.108 -36.749  1.00  0.00     0.039 A 
HETATM   32  C   UNL     1     -11.038   9.152 -37.612  1.00  0.00     0.035 A 
HETATM   33 CL   UNL     1      -9.792   9.997 -38.446  1.00  0.00    -0.084 Cl
HETATM   34  C   UNL     1     -12.368   9.520 -37.801  1.00  0.00     0.024 A 
HETATM   35  C   UNL     1     -13.377   8.837 -37.124  1.00  0.00     0.003 A 
HETATM   36  C   UNL     1     -13.051   7.788 -36.260  1.00  0.00     0.015 A 
ENDBRANCH   7  30
TORSDOF 5
ENDMDL
MODEL 7
REMARK VINA RESULT:      -9.4      3.597      6.548
REMARK  5 active torsions:
REMARK  status: ('A' for Active; 'I' for Inactive)
REMARK    1  A    between atoms: C_7  and  C_8 
REMARK    2  A    between atoms: C_16  and  C_17 
REMARK    3  A    between atoms: C_19  and  O_20 
REMARK    4  A    between atoms: C_24  and  C_25 
REMARK       I    between atoms: C_25  and  N_26 
REMARK    5  A    between atoms: N_26  and  C_27 
ROOT
HETATM    1  C   UNL     1      -1.095   6.649 -33.599  1.00  0.00     0.070 C 
HETATM    2  C   UNL     1      -2.344   6.040 -33.009  1.00  0.00     0.037 C 
HETATM    3  N   UNL     1      -3.357   5.739 -33.924  1.00  0.00    -0.192 N 
HETATM    4  C   UNL     1      -4.387   4.926 -33.610  1.00  0.00     0.726 A 
HETATM    5  N   UNL     1      -4.620   4.632 -32.299  1.00  0.00    -0.083 N 
HETATM    6  N   UNL     1      -5.590   3.712 -32.156  1.00  0.00    -0.135 NA
HETATM    7  C   UNL     1      -5.950   3.511 -33.439  1.00  0.00     0.199 A 
HETATM    8  N   UNL     1      -5.228   4.260 -34.356  1.00  0.00    -0.041 NA
HETATM    9  C   UNL     1      -3.835   5.177 -31.191  1.00  0.00     0.202 C 
HETATM   10  C   UNL     1      -2.516   5.762 -31.689  1.00  0.00     0.062 C 
HETATM   11  H   UNL     1      -3.111   5.819 -34.909  1.00  0.00     0.184 HD
ENDROOT
BRANCH  10  12
HETATM   12  C   UNL     1      -1.360   5.793 -30.737  1.00  0.00     0.256 C 
HETATM   13  N   UNL     1      -1.334   6.882 -29.893  1.00  0.00    -0.323 N 
HETATM   14  H   UNL     1      -2.004   7.625 -30.036  1.00  0.00     0.169 HD
HETATM   15  O   UNL     1      -0.572   4.854 -30.726  1.00  0.00    -0.267 OA
BRANCH  13  16
HETATM   16  C   UNL     1      -0.462   7.093 -28.800  1.00  0.00     0.035 A 
HETATM   17  C   UNL     1      -0.601   6.480 -27.553  1.00  0.00     0.029 A 
HETATM   18  C   UNL     1       0.295   6.767 -26.518  1.00  0.00     0.002 A 
HETATM   19  C   UNL     1       1.331   7.674 -26.717  1.00  0.00     0.000 A 
HETATM   20  C   UNL     1       1.480   8.291 -27.955  1.00  0.00     0.002 A 
HETATM   21  C   UNL     1       0.592   7.998 -28.993  1.00  0.00     0.029 A 
ENDBRANCH  13  16
ENDBRANCH  10  12
BRANCH   9  22
HETATM   22  C   UNL     1      -4.698   6.182 -30.423  1.00  0.00    -0.025 A 
HETATM   23  C   UNL     1      -4.927   6.065 -29.037  1.00  0.00     0.046 A 
HETATM   24  C   UNL     1      -5.738   6.989 -28.383  1.00  0.00     0.066 A 
HETATM   25  C   UNL     1      -6.316   8.044 -29.073  1.00  0.00     0.036 A 
HETATM   26  C   UNL     1      -6.078   8.189 -30.438  1.00  0.00     0.003 A 
HETATM   27  C   UNL     1      -5.272   7.267 -31.109  1.00  0.00     0.010 A 
BRANCH  24  28
HETATM   28  O   UNL     1      -5.993   6.890 -27.048  1.00  0.00    -0.361 OA
HETATM   29  H   UNL     1      -6.922   6.642 -26.916  1.00  0.00     0.217 HD
ENDBRANCH  24  28
ENDBRANCH   9  22
BRANCH   7  30
HETATM   30  C   UNL     1      -6.975   2.554 -33.846  1.00  0.00     0.016 A 
HETATM   31  C   UNL     1      -8.316   2.740 -33.480  1.00  0.00     0.039 A 
HETATM   32  C   UNL     1      -9.281   1.806 -33.854  1.00  0.00     0.035 A 
HETATM   33 CL   UNL     1     -10.922   2.043 -33.393  1.00  0.00    -0.084 Cl
HETATM   34  C   UNL     1      -8.929   0.680 -34.594  1.00  0.00     0.024 A 
HETATM   35  C   UNL     1      -7.599   0.485 -34.966  1.00  0.00     0.003 A 
HETATM   36  C   UNL     1      -6.628   1.419 -34.596  1.00  0.00     0.015 A 
ENDBRANCH   7  30
TORSDOF 5
ENDMDL
MODEL 8
REMARK VINA RESULT:      -9.2      4.841      9.552
REMARK  5 active torsions:
REMARK  status: ('A' for Active; 'I' for Inactive)
REMARK    1  A    between atoms: C_7  and  C_8 
REMARK    2  A    between atoms: C_16  and  C_17 
REMARK    3  A    between atoms: C_19  and  O_20 
REMARK    4  A    between atoms: C_24  and  C_25 
REMARK       I    between atoms: C_25  and  N_26 
REMARK    5  A    between atoms: N_26  and  C_27 
ROOT
HETATM    1  C   UNL     1      -7.765   5.232 -30.834  1.00  0.00     0.070 C 
HETATM    2  C   UNL     1      -6.284   5.518 -30.798  1.00  0.00     0.037 C 
HETATM    3  N   UNL     1      -5.933   6.829 -30.461  1.00  0.00    -0.192 N 
HETATM    4  C   UNL     1      -4.678   7.160 -30.092  1.00  0.00     0.726 A 
HETATM    5  N   UNL     1      -3.663   6.284 -30.337  1.00  0.00    -0.083 N 
HETATM    6  N   UNL     1      -2.503   6.695 -29.796  1.00  0.00    -0.135 NA
HETATM    7  C   UNL     1      -2.869   7.876 -29.260  1.00  0.00     0.199 A 
HETATM    8  N   UNL     1      -4.208   8.191 -29.441  1.00  0.00    -0.041 NA
HETATM    9  C   UNL     1      -3.843   5.001 -31.018  1.00  0.00     0.202 C 
HETATM   10  C   UNL     1      -5.314   4.597 -31.046  1.00  0.00     0.062 C 
HETATM   11  H   UNL     1      -6.688   7.426 -30.133  1.00  0.00     0.184 HD
ENDROOT
BRANCH  10  12
HETATM   12  C   UNL     1      -5.639   3.136 -31.115  1.00  0.00     0.256 C 
HETATM   13  N   UNL     1      -5.950   2.671 -32.374  1.00  0.00    -0.323 N 
HETATM   14  H   UNL     1      -6.050   3.336 -33.129  1.00  0.00     0.169 HD
HETATM   15  O   UNL     1      -5.552   2.458 -30.098  1.00  0.00    -0.267 OA
BRANCH  13  16
HETATM   16  C   UNL     1      -6.140   1.325 -32.764  1.00  0.00     0.035 A 
HETATM   17  C   UNL     1      -5.103   0.425 -33.016  1.00  0.00     0.029 A 
HETATM   18  C   UNL     1      -5.383  -0.884 -33.422  1.00  0.00     0.002 A 
HETATM   19  C   UNL     1      -6.700  -1.302 -33.588  1.00  0.00     0.000 A 
HETATM   20  C   UNL     1      -7.742  -0.414 -33.338  1.00  0.00     0.002 A 
HETATM   21  C   UNL     1      -7.464   0.891 -32.923  1.00  0.00     0.029 A 
ENDBRANCH  13  16
ENDBRANCH  10  12
BRANCH   9  22
HETATM   22  C   UNL     1      -3.206   5.087 -32.407  1.00  0.00    -0.025 A 
HETATM   23  C   UNL     1      -3.980   5.220 -33.577  1.00  0.00     0.046 A 
HETATM   24  C   UNL     1      -3.360   5.270 -34.823  1.00  0.00     0.066 A 
HETATM   25  C   UNL     1      -1.979   5.210 -34.935  1.00  0.00     0.036 A 
HETATM   26  C   UNL     1      -1.198   5.106 -33.787  1.00  0.00     0.003 A 
HETATM   27  C   UNL     1      -1.806   5.047 -32.530  1.00  0.00     0.010 A 
BRANCH  24  28
HETATM   28  O   UNL     1      -4.085   5.379 -35.973  1.00  0.00    -0.361 OA
HETATM   29  H   UNL     1      -3.489   5.595 -36.708  1.00  0.00     0.217 HD
ENDBRANCH  24  28
ENDBRANCH   9  22
BRANCH   7  30
HETATM   30  C   UNL     1      -1.958   8.735 -28.509  1.00  0.00     0.016 A 
HETATM   31  C   UNL     1      -0.631   8.344 -28.277  1.00  0.00     0.039 A 
HETATM   32  C   UNL     1       0.222   9.162 -27.538  1.00  0.00     0.035 A 
HETATM   33 CL   UNL     1       1.846   8.668 -27.256  1.00  0.00    -0.084 Cl
HETATM   34  C   UNL     1      -0.230  10.374 -27.020  1.00  0.00     0.024 A 
HETATM   35  C   UNL     1      -1.547  10.774 -27.246  1.00  0.00     0.003 A 
HETATM   36  C   UNL     1      -2.405   9.960 -27.989  1.00  0.00     0.015 A 
ENDBRANCH   7  30
TORSDOF 5
ENDMDL
MODEL 9
REMARK VINA RESULT:      -9.2      4.143      7.244
REMARK  5 active torsions:
REMARK  status: ('A' for Active; 'I' for Inactive)
REMARK    1  A    between atoms: C_7  and  C_8 
REMARK    2  A    between atoms: C_16  and  C_17 
REMARK    3  A    between atoms: C_19  and  O_20 
REMARK    4  A    between atoms: C_24  and  C_25 
REMARK       I    between atoms: C_25  and  N_26 
REMARK    5  A    between atoms: N_26  and  C_27 
ROOT
HETATM    1  C   UNL     1      -1.954   7.871 -32.390  1.00  0.00     0.070 C 
HETATM    2  C   UNL     1      -2.930   6.821 -31.918  1.00  0.00     0.037 C 
HETATM    3  N   UNL     1      -3.473   6.012 -32.920  1.00  0.00    -0.192 N 
HETATM    4  C   UNL     1      -4.106   4.854 -32.638  1.00  0.00     0.726 A 
HETATM    5  N   UNL     1      -4.497   4.609 -31.355  1.00  0.00    -0.083 N 
HETATM    6  N   UNL     1      -4.992   3.367 -31.210  1.00  0.00    -0.135 NA
HETATM    7  C   UNL     1      -4.919   2.907 -32.474  1.00  0.00     0.199 A 
HETATM    8  N   UNL     1      -4.385   3.813 -33.379  1.00  0.00    -0.041 NA
HETATM    9  C   UNL     1      -4.302   5.550 -30.252  1.00  0.00     0.202 C 
HETATM   10  C   UNL     1      -3.276   6.619 -30.618  1.00  0.00     0.062 C 
HETATM   11  H   UNL     1      -3.058   6.103 -33.845  1.00  0.00     0.184 HD
ENDROOT
BRANCH  10  12
HETATM   12  C   UNL     1      -2.502   7.258 -29.506  1.00  0.00     0.256 C 
HETATM   13  N   UNL     1      -1.340   6.604 -29.159  1.00  0.00    -0.323 N 
HETATM   14  H   UNL     1      -1.143   5.705 -29.578  1.00  0.00     0.169 HD
HETATM   15  O   UNL     1      -2.902   8.316 -29.033  1.00  0.00    -0.267 OA
BRANCH  13  16
HETATM   16  C   UNL     1      -0.341   7.055 -28.266  1.00  0.00     0.035 A 
HETATM   17  C   UNL     1      -0.225   6.636 -26.939  1.00  0.00     0.029 A 
HETATM   18  C   UNL     1       0.781   7.154 -26.117  1.00  0.00     0.002 A 
HETATM   19  C   UNL     1       1.674   8.101 -26.610  1.00  0.00     0.000 A 
HETATM   20  C   UNL     1       1.568   8.526 -27.931  1.00  0.00     0.002 A 
HETATM   21  C   UNL     1       0.570   8.001 -28.757  1.00  0.00     0.029 A 
ENDBRANCH  13  16
ENDBRANCH  10  12
BRANCH   9  22
HETATM   22  C   UNL     1      -5.663   6.122 -29.846  1.00  0.00    -0.025 A 
HETATM   23  C   UNL     1      -6.383   6.999 -30.681  1.00  0.00     0.046 A 
HETATM   24  C   UNL     1      -7.607   7.515 -30.261  1.00  0.00     0.066 A 
HETATM   25  C   UNL     1      -8.145   7.164 -29.032  1.00  0.00     0.036 A 
HETATM   26  C   UNL     1      -7.458   6.277 -28.207  1.00  0.00     0.003 A 
HETATM   27  C   UNL     1      -6.226   5.756 -28.611  1.00  0.00     0.010 A 
BRANCH  24  28
HETATM   28  O   UNL     1      -8.316   8.381 -31.039  1.00  0.00    -0.361 OA
HETATM   29  H   UNL     1      -8.586   9.145 -30.504  1.00  0.00     0.217 HD
ENDBRANCH  24  28
ENDBRANCH   9  22
BRANCH   7  30
HETATM   30  C   UNL     1      -5.316   1.557 -32.863  1.00  0.00     0.016 A 
HETATM   31  C   UNL     1      -6.305   1.353 -33.837  1.00  0.00     0.039 A 
HETATM   32  C   UNL     1      -6.692   0.058 -34.182  1.00  0.00     0.035 A 
HETATM   33 CL   UNL     1      -7.911  -0.178 -35.374  1.00  0.00    -0.084 Cl
HETATM   34  C   UNL     1      -6.105  -1.045 -33.567  1.00  0.00     0.024 A 
HETATM   35  C   UNL     1      -5.119  -0.854 -32.600  1.00  0.00     0.003 A 
HETATM   36  C   UNL     1      -4.725   0.440 -32.252  1.00  0.00     0.015 A 
ENDBRANCH   7  30
TORSDOF 5
ENDMDL
MODEL 10
REMARK VINA RESULT:      -9.1      4.670      7.506
REMARK  5 active torsions:
REMARK  status: ('A' for Active; 'I' for Inactive)
REMARK    1  A    between atoms: C_7  and  C_8 
REMARK    2  A    between atoms: C_16  and  C_17 
REMARK    3  A    between atoms: C_19  and  O_20 
REMARK    4  A    between atoms: C_24  and  C_25 
REMARK       I    between atoms: C_25  and  N_26 
REMARK    5  A    between atoms: N_26  and  C_27 
ROOT
HETATM    1  C   UNL     1      -0.956   7.216 -32.697  1.00  0.00     0.070 C 
HETATM    2  C   UNL     1      -2.045   6.286 -32.221  1.00  0.00     0.037 C 
HETATM    3  N   UNL     1      -2.459   5.321 -33.145  1.00  0.00    -0.192 N 
HETATM    4  C   UNL     1      -3.185   4.245 -32.778  1.00  0.00     0.726 A 
HETATM    5  N   UNL     1      -3.789   4.240 -31.556  1.00  0.00    -0.083 N 
HETATM    6  N   UNL     1      -4.361   3.054 -31.283  1.00  0.00    -0.135 NA
HETATM    7  C   UNL     1      -4.107   2.375 -32.419  1.00  0.00     0.199 A 
HETATM    8  N   UNL     1      -3.391   3.095 -33.364  1.00  0.00    -0.041 NA
HETATM    9  C   UNL     1      -3.728   5.358 -30.614  1.00  0.00     0.202 C 
HETATM   10  C   UNL     1      -2.606   6.325 -30.983  1.00  0.00     0.062 C 
HETATM   11  H   UNL     1      -1.897   5.238 -33.989  1.00  0.00     0.184 HD
ENDROOT
BRANCH  10  12
HETATM   12  C   UNL     1      -1.991   7.137 -29.884  1.00  0.00     0.256 C 
HETATM   13  N   UNL     1      -0.916   6.544 -29.258  1.00  0.00    -0.323 N 
HETATM   14  H   UNL     1      -0.685   5.586 -29.487  1.00  0.00     0.169 HD
HETATM   15  O   UNL     1      -2.425   8.260 -29.659  1.00  0.00    -0.267 OA
BRANCH  13  16
HETATM   16  C   UNL     1      -0.052   7.132 -28.307  1.00  0.00     0.035 A 
HETATM   17  C   UNL     1       0.903   8.106 -28.608  1.00  0.00     0.029 A 
HETATM   18  C   UNL     1       1.735   8.617 -27.606  1.00  0.00     0.002 A 
HETATM   19  C   UNL     1       1.627   8.154 -26.298  1.00  0.00     0.000 A 
HETATM   20  C   UNL     1       0.679   7.184 -25.986  1.00  0.00     0.002 A 
HETATM   21  C   UNL     1      -0.160   6.680 -26.983  1.00  0.00     0.029 A 
ENDBRANCH  13  16
ENDBRANCH  10  12
BRANCH   9  22
HETATM   22  C   UNL     1      -5.107   6.020 -30.546  1.00  0.00    -0.025 A 
HETATM   23  C   UNL     1      -5.710   6.608 -31.676  1.00  0.00     0.046 A 
HETATM   24  C   UNL     1      -6.956   7.220 -31.563  1.00  0.00     0.066 A 
HETATM   25  C   UNL     1      -7.630   7.248 -30.352  1.00  0.00     0.036 A 
HETATM   26  C   UNL     1      -7.060   6.647 -29.232  1.00  0.00     0.003 A 
HETATM   27  C   UNL     1      -5.808   6.035 -29.327  1.00  0.00     0.010 A 
BRANCH  24  28
HETATM   28  O   UNL     1      -7.554   7.814 -32.635  1.00  0.00    -0.361 OA
HETATM   29  H   UNL     1      -8.497   7.578 -32.647  1.00  0.00     0.217 HD
ENDBRANCH  24  28
ENDBRANCH   9  22
BRANCH   7  30
HETATM   30  C   UNL     1      -4.501   0.985 -32.629  1.00  0.00     0.016 A 
HETATM   31  C   UNL     1      -3.685  -0.067 -32.188  1.00  0.00     0.039 A 
HETATM   32  C   UNL     1      -4.061  -1.390 -32.416  1.00  0.00     0.035 A 
HETATM   33 CL   UNL     1      -3.047  -2.671 -31.874  1.00  0.00    -0.084 Cl
HETATM   34  C   UNL     1      -5.247  -1.685 -33.084  1.00  0.00     0.024 A 
HETATM   35  C   UNL     1      -6.068  -0.647 -33.526  1.00  0.00     0.003 A 
HETATM   36  C   UNL     1      -5.698   0.680 -33.297  1.00  0.00     0.015 A 
ENDBRANCH   7  30
TORSDOF 5
ENDMDL
