MODEL 1
REMARK VINA RESULT:      -8.8      0.000      0.000
REMARK  4 active torsions:
REMARK  status: ('A' for Active; 'I' for Inactive)
REMARK    1  A    between atoms: O_2  and  C_3 
REMARK    2  A    between atoms: C_4  and  C_5 
REMARK    3  A    between atoms: C_9  and  N_10 
REMARK    4  A    between atoms: C_13  and  C_14 
ROOT
HETATM    1  C   UNL     1      -3.718   2.918 -31.892  1.00  0.00     0.167 C 
HETATM    2  N   UNL     1      -4.876   3.275 -31.069  1.00  0.00    -0.074 N 
HETATM    3  C   UNL     1      -5.980   2.475 -30.902  1.00  0.00     0.736 A 
HETATM    4  N   UNL     1      -6.775   3.020 -30.020  1.00  0.00     0.131 NA
HETATM    5  C   UNL     1      -6.077   4.117 -29.615  1.00  0.00     0.753 A 
HETATM    6  N   UNL     1      -4.898   4.306 -30.202  1.00  0.00     0.037 NA
HETATM    7  N   UNL     1      -6.106   1.305 -31.564  1.00  0.00    -0.214 N 
HETATM    8  C   UNL     1      -4.875   0.675 -32.026  1.00  0.00     0.135 C 
HETATM    9  C   UNL     1      -4.051   1.713 -32.802  1.00  0.00     0.063 C 
HETATM   10  H   UNL     1      -6.804   0.666 -31.190  1.00  0.00     0.178 HD
ENDROOT
BRANCH   1  11
HETATM   11  C   UNL     1      -3.158   4.063 -32.734  1.00  0.00     0.001 A 
HETATM   12  C   UNL     1      -1.939   4.666 -32.361  1.00  0.00     0.076 A 
HETATM   13  C   UNL     1      -1.410   5.720 -33.115  1.00  0.00     0.037 A 
HETATM   14  C   UNL     1      -2.060   6.156 -34.269  1.00  0.00     0.003 A 
HETATM   15  C   UNL     1      -3.240   5.542 -34.673  1.00  0.00     0.001 A 
HETATM   16  C   UNL     1      -3.783   4.501 -33.917  1.00  0.00     0.012 A 
BRANCH  12  17
HETATM   17  O   UNL     1      -1.338   4.186 -31.224  1.00  0.00    -0.355 OA
HETATM   18  C   UNL     1      -0.460   5.100 -30.571  1.00  0.00     0.210 C 
ENDBRANCH  12  17
ENDBRANCH   1  11
BRANCH   8  19
HETATM   19  C   UNL     1      -5.204  -0.546 -32.861  1.00  0.00    -0.035 A 
HETATM   20  C   UNL     1      -4.214  -1.471 -33.235  1.00  0.00     0.010 A 
HETATM   21  C   UNL     1      -4.540  -2.600 -33.989  1.00  0.00     0.019 A 
HETATM   22  C   UNL     1      -5.858  -2.811 -34.386  1.00  0.00     0.011 A 
HETATM   23 BR   UNL     1      -6.301  -4.340 -35.404  1.00  0.00    -0.051 Br
HETATM   24  C   UNL     1      -6.853  -1.899 -34.039  1.00  0.00     0.019 A 
HETATM   25  C   UNL     1      -6.525  -0.772 -33.281  1.00  0.00     0.010 A 
ENDBRANCH   8  19
BRANCH   5  26
HETATM   26  N   UNL     1      -6.615   4.906 -28.689  1.00  0.00    -0.229 N 
HETATM   27  H   UNL     1      -7.611   5.060 -28.750  1.00  0.00     0.174 HD
HETATM   28  H   UNL     1      -6.072   5.712 -28.409  1.00  0.00     0.174 HD
ENDBRANCH   5  26
TORSDOF 4
ENDMDL
MODEL 2
REMARK VINA RESULT:      -8.7      4.665      7.013
REMARK  4 active torsions:
REMARK  status: ('A' for Active; 'I' for Inactive)
REMARK    1  A    between atoms: O_2  and  C_3 
REMARK    2  A    between atoms: C_4  and  C_5 
REMARK    3  A    between atoms: C_9  and  N_10 
REMARK    4  A    between atoms: C_13  and  C_14 
ROOT
HETATM    1  C   UNL     1      -9.855   1.603 -33.677  1.00  0.00     0.167 C 
HETATM    2  N   UNL     1      -9.569   2.245 -32.391  1.00  0.00    -0.074 N 
HETATM    3  C   UNL     1      -8.468   1.966 -31.618  1.00  0.00     0.736 A 
HETATM    4  N   UNL     1      -8.440   2.786 -30.600  1.00  0.00     0.131 NA
HETATM    5  C   UNL     1      -9.503   3.603 -30.836  1.00  0.00     0.753 A 
HETATM    6  N   UNL     1     -10.211   3.336 -31.931  1.00  0.00     0.037 NA
HETATM    7  N   UNL     1      -7.591   1.001 -31.966  1.00  0.00    -0.214 N 
HETATM    8  C   UNL     1      -7.538   0.640 -33.378  1.00  0.00     0.135 C 
HETATM    9  C   UNL     1      -8.964   0.354 -33.869  1.00  0.00     0.063 C 
HETATM   10  H   UNL     1      -6.690   1.041 -31.496  1.00  0.00     0.178 HD
ENDROOT
BRANCH   1  11
HETATM   11  C   UNL     1     -11.321   1.232 -33.891  1.00  0.00     0.001 A 
HETATM   12  C   UNL     1     -12.138   2.062 -34.687  1.00  0.00     0.076 A 
HETATM   13  C   UNL     1     -13.485   1.744 -34.892  1.00  0.00     0.037 A 
HETATM   14  C   UNL     1     -14.024   0.579 -34.348  1.00  0.00     0.003 A 
HETATM   15  C   UNL     1     -13.220  -0.272 -33.597  1.00  0.00     0.001 A 
HETATM   16  C   UNL     1     -11.879   0.047 -33.374  1.00  0.00     0.012 A 
BRANCH  12  17
HETATM   17  O   UNL     1     -11.548   3.188 -35.206  1.00  0.00    -0.355 OA
HETATM   18  C   UNL     1     -12.393   4.335 -35.280  1.00  0.00     0.210 C 
ENDBRANCH  12  17
ENDBRANCH   1  11
BRANCH   8  19
HETATM   19  C   UNL     1      -6.610  -0.543 -33.572  1.00  0.00    -0.035 A 
HETATM   20  C   UNL     1      -5.357  -0.608 -32.939  1.00  0.00     0.010 A 
HETATM   21  C   UNL     1      -4.524  -1.715 -33.114  1.00  0.00     0.019 A 
HETATM   22  C   UNL     1      -4.932  -2.764 -33.933  1.00  0.00     0.011 A 
HETATM   23 BR   UNL     1      -3.807  -4.265 -34.169  1.00  0.00    -0.051 Br
HETATM   24  C   UNL     1      -6.164  -2.715 -34.582  1.00  0.00     0.019 A 
HETATM   25  C   UNL     1      -6.997  -1.608 -34.402  1.00  0.00     0.010 A 
ENDBRANCH   8  19
BRANCH   5  26
HETATM   26  N   UNL     1      -9.757   4.582 -29.972  1.00  0.00    -0.229 N 
HETATM   27  H   UNL     1      -9.992   5.482 -30.365  1.00  0.00     0.174 HD
HETATM   28  H   UNL     1      -9.182   4.613 -29.141  1.00  0.00     0.174 HD
ENDBRANCH   5  26
TORSDOF 4
ENDMDL
MODEL 3
REMARK VINA RESULT:      -8.3      3.508      7.055
REMARK  4 active torsions:
REMARK  status: ('A' for Active; 'I' for Inactive)
REMARK    1  A    between atoms: O_2  and  C_3 
REMARK    2  A    between atoms: C_4  and  C_5 
REMARK    3  A    between atoms: C_9  and  N_10 
REMARK    4  A    between atoms: C_13  and  C_14 
ROOT
HETATM    1  C   UNL     1      -4.769   0.162 -33.098  1.00  0.00     0.167 C 
HETATM    2  N   UNL     1      -5.945   0.509 -32.296  1.00  0.00    -0.074 N 
HETATM    3  C   UNL     1      -6.104   1.704 -31.637  1.00  0.00     0.736 A 
HETATM    4  N   UNL     1      -7.303   1.750 -31.117  1.00  0.00     0.131 NA
HETATM    5  C   UNL     1      -7.870   0.591 -31.552  1.00  0.00     0.753 A 
HETATM    6  N   UNL     1      -7.096  -0.191 -32.299  1.00  0.00     0.037 NA
HETATM    7  N   UNL     1      -5.127   2.634 -31.625  1.00  0.00    -0.214 N 
HETATM    8  C   UNL     1      -4.157   2.583 -32.712  1.00  0.00     0.135 C 
HETATM    9  C   UNL     1      -3.614   1.151 -32.821  1.00  0.00     0.063 C 
HETATM   10  H   UNL     1      -5.420   3.569 -31.351  1.00  0.00     0.178 HD
ENDROOT
BRANCH   1  11
HETATM   11  C   UNL     1      -4.277  -1.273 -32.919  1.00  0.00     0.001 A 
HETATM   12  C   UNL     1      -4.697  -2.268 -33.827  1.00  0.00     0.076 A 
HETATM   13  C   UNL     1      -4.262  -3.590 -33.679  1.00  0.00     0.037 A 
HETATM   14  C   UNL     1      -3.375  -3.930 -32.659  1.00  0.00     0.003 A 
HETATM   15  C   UNL     1      -2.918  -2.951 -31.783  1.00  0.00     0.001 A 
HETATM   16  C   UNL     1      -3.360  -1.633 -31.914  1.00  0.00     0.012 A 
BRANCH  12  17
HETATM   17  O   UNL     1      -5.560  -1.871 -34.818  1.00  0.00    -0.355 OA
HETATM   18  C   UNL     1      -6.765  -2.628 -34.910  1.00  0.00     0.210 C 
ENDBRANCH  12  17
ENDBRANCH   1  11
BRANCH   8  19
HETATM   19  C   UNL     1      -3.060   3.602 -32.471  1.00  0.00    -0.035 A 
HETATM   20  C   UNL     1      -2.434   4.275 -33.534  1.00  0.00     0.010 A 
HETATM   21  C   UNL     1      -1.439   5.224 -33.292  1.00  0.00     0.019 A 
HETATM   22  C   UNL     1      -1.053   5.503 -31.983  1.00  0.00     0.011 A 
HETATM   23 BR   UNL     1       0.291   6.789 -31.653  1.00  0.00    -0.051 Br
HETATM   24  C   UNL     1      -1.650   4.836 -30.915  1.00  0.00     0.019 A 
HETATM   25  C   UNL     1      -2.648   3.890 -31.160  1.00  0.00     0.010 A 
ENDBRANCH   8  19
BRANCH   5  26
HETATM   26  N   UNL     1      -9.126   0.328 -31.201  1.00  0.00    -0.229 N 
HETATM   27  H   UNL     1      -9.813   1.036 -31.414  1.00  0.00     0.174 HD
HETATM   28  H   UNL     1      -9.259  -0.148 -30.319  1.00  0.00     0.174 HD
ENDBRANCH   5  26
TORSDOF 4
ENDMDL
MODEL 4
REMARK VINA RESULT:      -8.2      4.156      6.321
REMARK  4 active torsions:
REMARK  status: ('A' for Active; 'I' for Inactive)
REMARK    1  A    between atoms: O_2  and  C_3 
REMARK    2  A    between atoms: C_4  and  C_5 
REMARK    3  A    between atoms: C_9  and  N_10 
REMARK    4  A    between atoms: C_13  and  C_14 
ROOT
HETATM    1  C   UNL     1      -6.919   0.403 -32.827  1.00  0.00     0.167 C 
HETATM    2  N   UNL     1      -6.490   1.738 -33.253  1.00  0.00    -0.074 N 
HETATM    3  C   UNL     1      -7.349   2.731 -33.659  1.00  0.00     0.736 A 
HETATM    4  N   UNL     1      -6.669   3.830 -33.856  1.00  0.00     0.131 NA
HETATM    5  C   UNL     1      -5.408   3.482 -33.481  1.00  0.00     0.753 A 
HETATM    6  N   UNL     1      -5.247   2.224 -33.077  1.00  0.00     0.037 NA
HETATM    7  N   UNL     1      -8.676   2.511 -33.765  1.00  0.00    -0.214 N 
HETATM    8  C   UNL     1      -9.228   1.420 -32.970  1.00  0.00     0.135 C 
HETATM    9  C   UNL     1      -8.393   0.156 -33.221  1.00  0.00     0.063 C 
HETATM   10  H   UNL     1      -9.253   3.348 -33.810  1.00  0.00     0.178 HD
ENDROOT
BRANCH   1  11
HETATM   11  C   UNL     1      -6.046  -0.740 -33.342  1.00  0.00     0.001 A 
HETATM   12  C   UNL     1      -4.927  -1.152 -32.588  1.00  0.00     0.076 A 
HETATM   13  C   UNL     1      -4.111  -2.194 -33.043  1.00  0.00     0.037 A 
HETATM   14  C   UNL     1      -4.421  -2.866 -34.225  1.00  0.00     0.003 A 
HETATM   15  C   UNL     1      -5.545  -2.500 -34.956  1.00  0.00     0.001 A 
HETATM   16  C   UNL     1      -6.355  -1.450 -34.517  1.00  0.00     0.012 A 
BRANCH  12  17
HETATM   17  O   UNL     1      -4.681  -0.462 -31.427  1.00  0.00    -0.355 OA
HETATM   18  C   UNL     1      -3.307  -0.178 -31.172  1.00  0.00     0.210 C 
ENDBRANCH  12  17
ENDBRANCH   1  11
BRANCH   8  19
HETATM   19  C   UNL     1     -10.692   1.225 -33.311  1.00  0.00    -0.035 A 
HETATM   20  C   UNL     1     -11.302  -0.039 -33.242  1.00  0.00     0.010 A 
HETATM   21  C   UNL     1     -12.656  -0.196 -33.541  1.00  0.00     0.019 A 
HETATM   22  C   UNL     1     -13.413   0.909 -33.922  1.00  0.00     0.011 A 
HETATM   23 BR   UNL     1     -15.248   0.699 -34.325  1.00  0.00    -0.051 Br
HETATM   24  C   UNL     1     -12.826   2.169 -34.012  1.00  0.00     0.019 A 
HETATM   25  C   UNL     1     -11.471   2.325 -33.708  1.00  0.00     0.010 A 
ENDBRANCH   8  19
BRANCH   5  26
HETATM   26  N   UNL     1      -4.448   4.401 -33.551  1.00  0.00    -0.229 N 
HETATM   27  H   UNL     1      -4.237   4.900 -32.699  1.00  0.00     0.174 HD
HETATM   28  H   UNL     1      -4.414   4.957 -34.394  1.00  0.00     0.174 HD
ENDBRANCH   5  26
TORSDOF 4
ENDMDL
MODEL 5
REMARK VINA RESULT:      -8.2      2.209      2.466
REMARK  4 active torsions:
REMARK  status: ('A' for Active; 'I' for Inactive)
REMARK    1  A    between atoms: O_2  and  C_3 
REMARK    2  A    between atoms: C_4  and  C_5 
REMARK    3  A    between atoms: C_9  and  N_10 
REMARK    4  A    between atoms: C_13  and  C_14 
ROOT
HETATM    1  C   UNL     1      -4.131   3.856 -32.444  1.00  0.00     0.167 C 
HETATM    2  N   UNL     1      -5.437   4.128 -33.051  1.00  0.00    -0.074 N 
HETATM    3  C   UNL     1      -6.296   3.155 -33.499  1.00  0.00     0.736 A 
HETATM    4  N   UNL     1      -7.418   3.713 -33.872  1.00  0.00     0.131 NA
HETATM    5  C   UNL     1      -7.227   5.024 -33.558  1.00  0.00     0.753 A 
HETATM    6  N   UNL     1      -6.045   5.329 -33.028  1.00  0.00     0.037 NA
HETATM    7  N   UNL     1      -5.953   1.850 -33.477  1.00  0.00    -0.214 N 
HETATM    8  C   UNL     1      -4.922   1.458 -32.524  1.00  0.00     0.135 C 
HETATM    9  C   UNL     1      -3.713   2.389 -32.693  1.00  0.00     0.063 C 
HETATM   10  H   UNL     1      -6.725   1.195 -33.572  1.00  0.00     0.178 HD
ENDROOT
BRANCH   1  11
HETATM   11  C   UNL     1      -3.013   4.796 -32.892  1.00  0.00     0.001 A 
HETATM   12  C   UNL     1      -2.479   5.725 -31.974  1.00  0.00     0.076 A 
HETATM   13  C   UNL     1      -1.458   6.599 -32.363  1.00  0.00     0.037 A 
HETATM   14  C   UNL     1      -0.927   6.532 -33.650  1.00  0.00     0.003 A 
HETATM   15  C   UNL     1      -1.413   5.592 -34.553  1.00  0.00     0.001 A 
HETATM   16  C   UNL     1      -2.443   4.728 -34.176  1.00  0.00     0.012 A 
BRANCH  12  17
HETATM   17  O   UNL     1      -3.033   5.736 -30.718  1.00  0.00    -0.355 OA
HETATM   18  C   UNL     1      -3.210   7.030 -30.145  1.00  0.00     0.210 C 
ENDBRANCH  12  17
ENDBRANCH   1  11
BRANCH   8  19
HETATM   19  C   UNL     1      -4.563  -0.001 -32.726  1.00  0.00    -0.035 A 
HETATM   20  C   UNL     1      -3.607  -0.643 -31.919  1.00  0.00     0.010 A 
HETATM   21  C   UNL     1      -3.303  -1.992 -32.108  1.00  0.00     0.019 A 
HETATM   22  C   UNL     1      -3.944  -2.712 -33.113  1.00  0.00     0.011 A 
HETATM   23 BR   UNL     1      -3.537  -4.540 -33.369  1.00  0.00    -0.051 Br
HETATM   24  C   UNL     1      -4.884  -2.092 -33.934  1.00  0.00     0.019 A 
HETATM   25  C   UNL     1      -5.190  -0.742 -33.741  1.00  0.00     0.010 A 
ENDBRANCH   8  19
BRANCH   5  26
HETATM   26  N   UNL     1      -8.209   5.886 -33.805  1.00  0.00    -0.229 N 
HETATM   27  H   UNL     1      -7.935   6.810 -34.106  1.00  0.00     0.174 HD
HETATM   28  H   UNL     1      -9.006   5.856 -33.184  1.00  0.00     0.174 HD
ENDBRANCH   5  26
TORSDOF 4
ENDMDL
MODEL 6
REMARK VINA RESULT:      -8.0      1.060      2.109
REMARK  4 active torsions:
REMARK  status: ('A' for Active; 'I' for Inactive)
REMARK    1  A    between atoms: O_2  and  C_3 
REMARK    2  A    between atoms: C_4  and  C_5 
REMARK    3  A    between atoms: C_9  and  N_10 
REMARK    4  A    between atoms: C_13  and  C_14 
ROOT
HETATM    1  C   UNL     1      -3.738   2.889 -31.833  1.00  0.00     0.167 C 
HETATM    2  N   UNL     1      -4.917   3.297 -31.066  1.00  0.00    -0.074 N 
HETATM    3  C   UNL     1      -6.049   2.531 -30.927  1.00  0.00     0.736 A 
HETATM    4  N   UNL     1      -6.864   3.118 -30.090  1.00  0.00     0.131 NA
HETATM    5  C   UNL     1      -6.152   4.204 -29.680  1.00  0.00     0.753 A 
HETATM    6  N   UNL     1      -4.945   4.347 -30.223  1.00  0.00     0.037 NA
HETATM    7  N   UNL     1      -6.182   1.350 -31.568  1.00  0.00    -0.214 N 
HETATM    8  C   UNL     1      -4.951   0.677 -31.965  1.00  0.00     0.135 C 
HETATM    9  C   UNL     1      -4.067   1.674 -32.729  1.00  0.00     0.063 C 
HETATM   10  H   UNL     1      -6.912   0.740 -31.209  1.00  0.00     0.178 HD
ENDROOT
BRANCH   1  11
HETATM   11  C   UNL     1      -3.112   3.999 -32.676  1.00  0.00     0.001 A 
HETATM   12  C   UNL     1      -3.867   4.597 -33.707  1.00  0.00     0.076 A 
HETATM   13  C   UNL     1      -3.312   5.612 -34.494  1.00  0.00     0.037 A 
HETATM   14  C   UNL     1      -2.022   6.074 -34.240  1.00  0.00     0.003 A 
HETATM   15  C   UNL     1      -1.282   5.525 -33.199  1.00  0.00     0.001 A 
HETATM   16  C   UNL     1      -1.822   4.501 -32.420  1.00  0.00     0.012 A 
BRANCH  12  17
HETATM   17  O   UNL     1      -5.135   4.108 -33.901  1.00  0.00    -0.355 OA
HETATM   18  C   UNL     1      -6.182   5.066 -33.756  1.00  0.00     0.210 C 
ENDBRANCH  12  17
ENDBRANCH   1  11
BRANCH   8  19
HETATM   19  C   UNL     1      -5.281  -0.554 -32.787  1.00  0.00    -0.035 A 
HETATM   20  C   UNL     1      -6.590  -0.817 -33.226  1.00  0.00     0.010 A 
HETATM   21  C   UNL     1      -6.871  -1.946 -33.999  1.00  0.00     0.019 A 
HETATM   22  C   UNL     1      -5.847  -2.829 -34.332  1.00  0.00     0.011 A 
HETATM   23 BR   UNL     1      -6.225  -4.355 -35.380  1.00  0.00    -0.051 Br
HETATM   24  C   UNL     1      -4.544  -2.595 -33.895  1.00  0.00     0.019 A 
HETATM   25  C   UNL     1      -4.265  -1.463 -33.126  1.00  0.00     0.010 A 
ENDBRANCH   8  19
BRANCH   5  26
HETATM   26  N   UNL     1      -6.704   5.028 -28.794  1.00  0.00    -0.229 N 
HETATM   27  H   UNL     1      -7.376   4.623 -28.158  1.00  0.00     0.174 HD
HETATM   28  H   UNL     1      -6.927   5.959 -29.119  1.00  0.00     0.174 HD
ENDBRANCH   5  26
TORSDOF 4
ENDMDL
MODEL 7
REMARK VINA RESULT:      -7.9      3.625      6.962
REMARK  4 active torsions:
REMARK  status: ('A' for Active; 'I' for Inactive)
REMARK    1  A    between atoms: O_2  and  C_3 
REMARK    2  A    between atoms: C_4  and  C_5 
REMARK    3  A    between atoms: C_9  and  N_10 
REMARK    4  A    between atoms: C_13  and  C_14 
ROOT
HETATM    1  C   UNL     1      -5.543   2.048 -32.690  1.00  0.00     0.167 C 
HETATM    2  N   UNL     1      -6.648   2.295 -31.760  1.00  0.00    -0.074 N 
HETATM    3  C   UNL     1      -6.638   3.268 -30.791  1.00  0.00     0.736 A 
HETATM    4  N   UNL     1      -7.810   3.310 -30.213  1.00  0.00     0.131 NA
HETATM    5  C   UNL     1      -8.532   2.396 -30.918  1.00  0.00     0.753 A 
HETATM    6  N   UNL     1      -7.880   1.766 -31.892  1.00  0.00     0.037 NA
HETATM    7  N   UNL     1      -5.548   4.035 -30.577  1.00  0.00    -0.214 N 
HETATM    8  C   UNL     1      -4.614   4.174 -31.688  1.00  0.00     0.135 C 
HETATM    9  C   UNL     1      -4.264   2.775 -32.216  1.00  0.00     0.063 C 
HETATM   10  H   UNL     1      -5.711   4.884 -30.041  1.00  0.00     0.178 HD
ENDROOT
BRANCH   1  11
HETATM   11  C   UNL     1      -5.239   0.573 -32.940  1.00  0.00     0.001 A 
HETATM   12  C   UNL     1      -5.830  -0.081 -34.041  1.00  0.00     0.076 A 
HETATM   13  C   UNL     1      -5.569  -1.434 -34.287  1.00  0.00     0.037 A 
HETATM   14  C   UNL     1      -4.687  -2.140 -33.470  1.00  0.00     0.003 A 
HETATM   15  C   UNL     1      -4.063  -1.497 -32.406  1.00  0.00     0.001 A 
HETATM   16  C   UNL     1      -4.331  -0.152 -32.145  1.00  0.00     0.012 A 
BRANCH  12  17
HETATM   17  O   UNL     1      -6.679   0.669 -34.817  1.00  0.00    -0.355 OA
HETATM   18  C   UNL     1      -7.814  -0.031 -35.323  1.00  0.00     0.210 C 
ENDBRANCH  12  17
ENDBRANCH   1  11
BRANCH   8  19
HETATM   19  C   UNL     1      -3.389   4.946 -31.237  1.00  0.00    -0.035 A 
HETATM   20  C   UNL     1      -3.500   6.127 -30.483  1.00  0.00     0.010 A 
HETATM   21  C   UNL     1      -2.361   6.814 -30.060  1.00  0.00     0.019 A 
HETATM   22  C   UNL     1      -1.098   6.332 -30.397  1.00  0.00     0.011 A 
HETATM   23 BR   UNL     1       0.446   7.260 -29.823  1.00  0.00    -0.051 Br
HETATM   24  C   UNL     1      -0.965   5.172 -31.156  1.00  0.00     0.019 A 
HETATM   25  C   UNL     1      -2.107   4.484 -31.574  1.00  0.00     0.010 A 
ENDBRANCH   8  19
BRANCH   5  26
HETATM   26  N   UNL     1      -9.803   2.197 -30.584  1.00  0.00    -0.229 N 
HETATM   27  H   UNL     1      -9.972   1.720 -29.709  1.00  0.00     0.174 HD
HETATM   28  H   UNL     1     -10.437   1.954 -31.334  1.00  0.00     0.174 HD
ENDBRANCH   5  26
TORSDOF 4
ENDMDL
MODEL 8
REMARK VINA RESULT:      -7.5      3.521      6.572
REMARK  4 active torsions:
REMARK  status: ('A' for Active; 'I' for Inactive)
REMARK    1  A    between atoms: O_2  and  C_3 
REMARK    2  A    between atoms: C_4  and  C_5 
REMARK    3  A    between atoms: C_9  and  N_10 
REMARK    4  A    between atoms: C_13  and  C_14 
ROOT
HETATM    1  C   UNL     1      -6.671   2.571 -33.216  1.00  0.00     0.167 C 
HETATM    2  N   UNL     1      -7.533   2.847 -32.064  1.00  0.00    -0.074 N 
HETATM    3  C   UNL     1      -7.184   3.668 -31.019  1.00  0.00     0.736 A 
HETATM    4  N   UNL     1      -8.209   3.800 -30.218  1.00  0.00     0.131 NA
HETATM    5  C   UNL     1      -9.189   3.104 -30.857  1.00  0.00     0.753 A 
HETATM    6  N   UNL     1      -8.839   2.524 -32.002  1.00  0.00     0.037 NA
HETATM    7  N   UNL     1      -5.960   4.233 -30.948  1.00  0.00    -0.214 N 
HETATM    8  C   UNL     1      -5.232   4.384 -32.202  1.00  0.00     0.135 C 
HETATM    9  C   UNL     1      -5.223   3.034 -32.933  1.00  0.00     0.063 C 
HETATM   10  H   UNL     1      -5.879   5.016 -30.304  1.00  0.00     0.178 HD
ENDROOT
BRANCH   1  11
HETATM   11  C   UNL     1      -6.668   1.114 -33.675  1.00  0.00     0.001 A 
HETATM   12  C   UNL     1      -6.177   0.115 -32.809  1.00  0.00     0.076 A 
HETATM   13  C   UNL     1      -6.161  -1.226 -33.211  1.00  0.00     0.037 A 
HETATM   14  C   UNL     1      -6.670  -1.594 -34.455  1.00  0.00     0.003 A 
HETATM   15  C   UNL     1      -7.198  -0.625 -35.302  1.00  0.00     0.001 A 
HETATM   16  C   UNL     1      -7.202   0.716 -34.915  1.00  0.00     0.012 A 
BRANCH  12  17
HETATM   17  O   UNL     1      -5.701   0.536 -31.593  1.00  0.00    -0.355 OA
HETATM   18  C   UNL     1      -6.372  -0.008 -30.458  1.00  0.00     0.210 C 
ENDBRANCH  12  17
ENDBRANCH   1  11
BRANCH   8  19
HETATM   19  C   UNL     1      -3.835   4.903 -31.926  1.00  0.00    -0.035 A 
HETATM   20  C   UNL     1      -2.718   4.419 -32.628  1.00  0.00     0.010 A 
HETATM   21  C   UNL     1      -1.441   4.923 -32.373  1.00  0.00     0.019 A 
HETATM   22  C   UNL     1      -1.266   5.909 -31.406  1.00  0.00     0.011 A 
HETATM   23 BR   UNL     1       0.461   6.595 -31.062  1.00  0.00    -0.051 Br
HETATM   24  C   UNL     1      -2.358   6.393 -30.687  1.00  0.00     0.019 A 
HETATM   25  C   UNL     1      -3.635   5.890 -30.946  1.00  0.00     0.010 A 
ENDBRANCH   8  19
BRANCH   5  26
HETATM   26  N   UNL     1     -10.394   3.047 -30.298  1.00  0.00    -0.229 N 
HETATM   27  H   UNL     1     -10.603   2.221 -29.755  1.00  0.00     0.174 HD
HETATM   28  H   UNL     1     -11.165   3.406 -30.846  1.00  0.00     0.174 HD
ENDBRANCH   5  26
TORSDOF 4
ENDMDL
MODEL 9
REMARK VINA RESULT:      -7.4      3.151      5.017
REMARK  4 active torsions:
REMARK  status: ('A' for Active; 'I' for Inactive)
REMARK    1  A    between atoms: O_2  and  C_3 
REMARK    2  A    between atoms: C_4  and  C_5 
REMARK    3  A    between atoms: C_9  and  N_10 
REMARK    4  A    between atoms: C_13  and  C_14 
ROOT
HETATM    1  C   UNL     1      -7.141   3.168 -32.802  1.00  0.00     0.167 C 
HETATM    2  N   UNL     1      -5.942   3.497 -32.027  1.00  0.00    -0.074 N 
HETATM    3  C   UNL     1      -4.870   2.653 -31.869  1.00  0.00     0.736 A 
HETATM    4  N   UNL     1      -3.920   3.282 -31.230  1.00  0.00     0.131 NA
HETATM    5  C   UNL     1      -4.426   4.538 -31.086  1.00  0.00     0.753 A 
HETATM    6  N   UNL     1      -5.647   4.732 -31.579  1.00  0.00     0.037 NA
HETATM    7  N   UNL     1      -4.882   1.400 -32.372  1.00  0.00    -0.214 N 
HETATM    8  C   UNL     1      -5.785   1.149 -33.489  1.00  0.00     0.135 C 
HETATM    9  C   UNL     1      -7.186   1.655 -33.115  1.00  0.00     0.063 C 
HETATM   10  H   UNL     1      -3.973   0.950 -32.442  1.00  0.00     0.178 HD
ENDROOT
BRANCH   1  11
HETATM   11  C   UNL     1      -8.455   3.603 -32.157  1.00  0.00     0.001 A 
HETATM   12  C   UNL     1      -9.367   4.385 -32.898  1.00  0.00     0.076 A 
HETATM   13  C   UNL     1     -10.575   4.799 -32.326  1.00  0.00     0.037 A 
HETATM   14  C   UNL     1     -10.911   4.406 -31.031  1.00  0.00     0.003 A 
HETATM   15  C   UNL     1     -10.042   3.600 -30.304  1.00  0.00     0.001 A 
HETATM   16  C   UNL     1      -8.828   3.197 -30.863  1.00  0.00     0.012 A 
BRANCH  12  17
HETATM   17  O   UNL     1      -8.986   4.729 -34.172  1.00  0.00    -0.355 OA
HETATM   18  C   UNL     1      -9.844   5.660 -34.830  1.00  0.00     0.210 C 
ENDBRANCH  12  17
ENDBRANCH   1  11
BRANCH   8  19
HETATM   19  C   UNL     1      -5.775  -0.326 -33.837  1.00  0.00    -0.035 A 
HETATM   20  C   UNL     1      -6.897  -0.957 -34.402  1.00  0.00     0.010 A 
HETATM   21  C   UNL     1      -6.863  -2.313 -34.733  1.00  0.00     0.019 A 
HETATM   22  C   UNL     1      -5.709  -3.055 -34.493  1.00  0.00     0.011 A 
HETATM   23 BR   UNL     1      -5.660  -4.890 -34.944  1.00  0.00    -0.051 Br
HETATM   24  C   UNL     1      -4.591  -2.453 -33.920  1.00  0.00     0.019 A 
HETATM   25  C   UNL     1      -4.626  -1.095 -33.593  1.00  0.00     0.010 A 
ENDBRANCH   8  19
BRANCH   5  26
HETATM   26  N   UNL     1      -3.686   5.455 -30.470  1.00  0.00    -0.229 N 
HETATM   27  H   UNL     1      -3.290   6.181 -31.050  1.00  0.00     0.174 HD
HETATM   28  H   UNL     1      -3.087   5.128 -29.724  1.00  0.00     0.174 HD
ENDBRANCH   5  26
TORSDOF 4
ENDMDL
MODEL 10
REMARK VINA RESULT:      -7.3      4.723      6.852
REMARK  4 active torsions:
REMARK  status: ('A' for Active; 'I' for Inactive)
REMARK    1  A    between atoms: O_2  and  C_3 
REMARK    2  A    between atoms: C_4  and  C_5 
REMARK    3  A    between atoms: C_9  and  N_10 
REMARK    4  A    between atoms: C_13  and  C_14 
ROOT
HETATM    1  C   UNL     1      -7.216   1.777 -32.723  1.00  0.00     0.167 C 
HETATM    2  N   UNL     1      -6.713   2.979 -33.393  1.00  0.00    -0.074 N 
HETATM    3  C   UNL     1      -7.477   4.089 -33.661  1.00  0.00     0.736 A 
HETATM    4  N   UNL     1      -6.712   5.028 -34.153  1.00  0.00     0.131 NA
HETATM    5  C   UNL     1      -5.470   4.472 -34.094  1.00  0.00     0.753 A 
HETATM    6  N   UNL     1      -5.409   3.233 -33.612  1.00  0.00     0.037 NA
HETATM    7  N   UNL     1      -8.798   4.117 -33.382  1.00  0.00    -0.214 N 
HETATM    8  C   UNL     1      -9.272   3.199 -32.353  1.00  0.00     0.135 C 
HETATM    9  C   UNL     1      -8.761   1.788 -32.678  1.00  0.00     0.063 C 
HETATM   10  H   UNL     1      -9.219   5.043 -33.362  1.00  0.00     0.178 HD
ENDROOT
BRANCH   1  11
HETATM   11  C   UNL     1      -6.725   0.461 -33.324  1.00  0.00     0.001 A 
HETATM   12  C   UNL     1      -5.733  -0.282 -32.649  1.00  0.00     0.076 A 
HETATM   13  C   UNL     1      -5.265  -1.487 -33.184  1.00  0.00     0.037 A 
HETATM   14  C   UNL     1      -5.804  -1.990 -34.367  1.00  0.00     0.003 A 
HETATM   15  C   UNL     1      -6.813  -1.290 -35.020  1.00  0.00     0.001 A 
HETATM   16  C   UNL     1      -7.274  -0.078 -34.502  1.00  0.00     0.012 A 
BRANCH  12  17
HETATM   17  O   UNL     1      -5.249   0.257 -31.483  1.00  0.00    -0.355 OA
HETATM   18  C   UNL     1      -3.827   0.299 -31.379  1.00  0.00     0.210 C 
ENDBRANCH  12  17
ENDBRANCH   1  11
BRANCH   8  19
HETATM   19  C   UNL     1     -10.784   3.262 -32.264  1.00  0.00    -0.035 A 
HETATM   20  C   UNL     1     -11.432   4.031 -31.283  1.00  0.00     0.010 A 
HETATM   21  C   UNL     1     -12.826   4.092 -31.229  1.00  0.00     0.019 A 
HETATM   22  C   UNL     1     -13.586   3.376 -32.150  1.00  0.00     0.011 A 
HETATM   23 BR   UNL     1     -15.473   3.460 -32.081  1.00  0.00    -0.051 Br
HETATM   24  C   UNL     1     -12.964   2.596 -33.123  1.00  0.00     0.019 A 
HETATM   25  C   UNL     1     -11.569   2.539 -33.177  1.00  0.00     0.010 A 
ENDBRANCH   8  19
BRANCH   5  26
HETATM   26  N   UNL     1      -4.433   5.188 -34.519  1.00  0.00    -0.229 N 
HETATM   27  H   UNL     1      -4.225   5.140 -35.507  1.00  0.00     0.174 HD
HETATM   28  H   UNL     1      -3.626   5.223 -33.912  1.00  0.00     0.174 HD
ENDBRANCH   5  26
TORSDOF 4
ENDMDL
