MODEL 1
REMARK VINA RESULT:      -8.3      0.000      0.000
REMARK  8 active torsions:
REMARK  status: ('A' for Active; 'I' for Inactive)
REMARK    1  A    between atoms: C_4  and  C_5 
REMARK    2  A    between atoms: C_11  and  C_12 
REMARK    3  A    between atoms: C_12  and  C_13 
REMARK       I    between atoms: C_13  and  N_14 
REMARK    4  A    between atoms: N_14  and  C_15 
REMARK    5  A    between atoms: C_20  and  C_21 
REMARK       I    between atoms: C_21  and  N_22 
REMARK    6  A    between atoms: N_22  and  C_23 
REMARK    7  A    between atoms: C_23  and  C_24 
REMARK    8  A    between atoms: C_24  and  O_25 
ROOT
HETATM    1  C   UNL     1      -5.622   3.934 -32.085  1.00  0.00     0.228 C 
HETATM    2  N   UNL     1      -4.484   3.684 -32.832  1.00  0.00    -0.325 N 
HETATM    3  O   UNL     1      -5.771   4.850 -31.278  1.00  0.00    -0.273 OA
HETATM    4  H   UNL     1      -4.525   2.879 -33.459  1.00  0.00     0.169 HD
ENDROOT
BRANCH   2   5
HETATM    5  C   UNL     1      -3.247   4.368 -32.811  1.00  0.00     0.057 A 
HETATM    6  C   UNL     1      -2.864   5.095 -33.954  1.00  0.00     0.060 A 
HETATM    7 CL   UNL     1      -3.874   5.151 -35.359  1.00  0.00    -0.082 Cl
HETATM    8  C   UNL     1      -1.659   5.796 -33.985  1.00  0.00     0.027 A 
HETATM    9  C   UNL     1      -0.819   5.780 -32.872  1.00  0.00     0.019 A 
HETATM   10  C   UNL     1      -1.174   5.058 -31.723  1.00  0.00     0.034 A 
HETATM   11  C   UNL     1      -2.385   4.349 -31.707  1.00  0.00     0.048 A 
BRANCH  10  12
HETATM   12  C   UNL     1      -0.217   5.065 -30.573  1.00  0.00     0.251 C 
HETATM   13  N   UNL     1      -0.583   5.754 -29.437  1.00  0.00    -0.355 N 
HETATM   14  H   UNL     1      -1.344   6.420 -29.465  1.00  0.00     0.162 HD
HETATM   15  O   UNL     1       0.858   4.479 -30.670  1.00  0.00    -0.268 OA
BRANCH  13  16
HETATM   16  C   UNL     1       0.330   5.917 -28.318  1.00  0.00     0.149 C 
BRANCH  16  17
HETATM   17  C   UNL     1      -0.424   6.228 -27.025  1.00  0.00     0.186 C 
BRANCH  17  18
HETATM   18  O   UNL     1       0.359   7.147 -26.252  1.00  0.00    -0.394 OA
HETATM   19  C   UNL     1       1.452   7.661 -27.001  1.00  0.00     0.201 C 
ENDBRANCH  17  18
ENDBRANCH  16  17
ENDBRANCH  13  16
ENDBRANCH  10  12
ENDBRANCH   2   5
BRANCH   1  20
HETATM   20  C   UNL     1      -6.770   2.988 -32.402  1.00  0.00     0.165 C 
BRANCH  20  21
HETATM   21  C   UNL     1      -6.356   1.572 -32.254  1.00  0.00     0.075 A 
HETATM   22  C   UNL     1      -6.012   0.862 -31.126  1.00  0.00     0.077 A 
HETATM   23  C   UNL     1      -5.930   1.163 -29.686  1.00  0.00     0.079 C 
HETATM   24  O   UNL     1      -5.674  -0.401 -31.515  1.00  0.00    -0.292 OA
HETATM   25  C   UNL     1      -5.821  -0.405 -32.882  1.00  0.00     0.204 A 
HETATM   26  N   UNL     1      -6.236   0.759 -33.364  1.00  0.00    -0.224 NA
BRANCH  25  27
HETATM   27  C   UNL     1      -5.533  -1.547 -33.700  1.00  0.00     0.128 A 
HETATM   28  O   UNL     1      -4.288  -2.124 -33.770  1.00  0.00    -0.318 OA
HETATM   29  C   UNL     1      -4.362  -3.163 -34.638  1.00  0.00     0.142 A 
HETATM   30  C   UNL     1      -5.635  -3.283 -35.139  1.00  0.00     0.027 A 
HETATM   31  C   UNL     1      -6.388  -2.247 -34.537  1.00  0.00     0.043 A 
ENDBRANCH  25  27
ENDBRANCH  20  21
ENDBRANCH   1  20
TORSDOF 8
ENDMDL
MODEL 2
REMARK VINA RESULT:      -8.2      2.163      8.930
REMARK  8 active torsions:
REMARK  status: ('A' for Active; 'I' for Inactive)
REMARK    1  A    between atoms: C_4  and  C_5 
REMARK    2  A    between atoms: C_11  and  C_12 
REMARK    3  A    between atoms: C_12  and  C_13 
REMARK       I    between atoms: C_13  and  N_14 
REMARK    4  A    between atoms: N_14  and  C_15 
REMARK    5  A    between atoms: C_20  and  C_21 
REMARK       I    between atoms: C_21  and  N_22 
REMARK    6  A    between atoms: N_22  and  C_23 
REMARK    7  A    between atoms: C_23  and  C_24 
REMARK    8  A    between atoms: C_24  and  O_25 
ROOT
HETATM    1  C   UNL     1      -5.427   4.579 -33.323  1.00  0.00     0.228 C 
HETATM    2  N   UNL     1      -5.328   3.602 -32.348  1.00  0.00    -0.325 N 
HETATM    3  O   UNL     1      -6.047   4.486 -34.381  1.00  0.00    -0.273 OA
HETATM    4  H   UNL     1      -4.772   3.841 -31.524  1.00  0.00     0.169 HD
ENDROOT
BRANCH   2   5
HETATM    5  C   UNL     1      -5.856   2.290 -32.357  1.00  0.00     0.057 A 
HETATM    6  C   UNL     1      -7.050   2.044 -31.653  1.00  0.00     0.060 A 
HETATM    7 CL   UNL     1      -7.857   3.309 -30.789  1.00  0.00    -0.082 Cl
HETATM    8  C   UNL     1      -7.620   0.771 -31.636  1.00  0.00     0.027 A 
HETATM    9  C   UNL     1      -7.003  -0.274 -32.323  1.00  0.00     0.019 A 
HETATM   10  C   UNL     1      -5.810  -0.056 -33.027  1.00  0.00     0.034 A 
HETATM   11  C   UNL     1      -5.240   1.226 -33.029  1.00  0.00     0.048 A 
BRANCH  10  12
HETATM   12  C   UNL     1      -5.189  -1.226 -33.724  1.00  0.00     0.251 C 
HETATM   13  N   UNL     1      -5.946  -1.887 -34.667  1.00  0.00    -0.355 N 
HETATM   14  H   UNL     1      -6.947  -1.744 -34.711  1.00  0.00     0.162 HD
HETATM   15  O   UNL     1      -4.046  -1.572 -33.435  1.00  0.00    -0.268 OA
BRANCH  13  16
HETATM   16  C   UNL     1      -5.473  -3.103 -35.306  1.00  0.00     0.149 C 
BRANCH  16  17
HETATM   17  C   UNL     1      -6.277  -4.321 -34.849  1.00  0.00     0.186 C 
BRANCH  17  18
HETATM   18  O   UNL     1      -5.385  -5.436 -34.726  1.00  0.00    -0.394 OA
HETATM   19  C   UNL     1      -4.222  -5.094 -33.984  1.00  0.00     0.201 C 
ENDBRANCH  17  18
ENDBRANCH  16  17
ENDBRANCH  13  16
ENDBRANCH  10  12
ENDBRANCH   2   5
BRANCH   1  20
HETATM   20  C   UNL     1      -4.739   5.881 -32.942  1.00  0.00     0.165 C 
BRANCH  20  21
HETATM   21  C   UNL     1      -3.292   5.671 -32.693  1.00  0.00     0.075 A 
HETATM   22  C   UNL     1      -2.281   5.339 -33.567  1.00  0.00     0.077 A 
HETATM   23  C   UNL     1      -2.193   5.086 -35.015  1.00  0.00     0.079 C 
HETATM   24  O   UNL     1      -1.128   5.229 -32.846  1.00  0.00    -0.292 OA
HETATM   25  C   UNL     1      -1.491   5.495 -31.547  1.00  0.00     0.204 A 
HETATM   26  N   UNL     1      -2.781   5.772 -31.414  1.00  0.00    -0.224 NA
BRANCH  25  27
HETATM   27  C   UNL     1      -0.568   5.454 -30.450  1.00  0.00     0.128 A 
HETATM   28  O   UNL     1       0.366   4.459 -30.293  1.00  0.00    -0.318 OA
HETATM   29  C   UNL     1       1.057   4.716 -29.155  1.00  0.00     0.142 A 
HETATM   30  C   UNL     1       0.597   5.865 -28.561  1.00  0.00     0.027 A 
HETATM   31  C   UNL     1      -0.446   6.341 -29.391  1.00  0.00     0.043 A 
ENDBRANCH  25  27
ENDBRANCH  20  21
ENDBRANCH   1  20
TORSDOF 8
ENDMDL
MODEL 3
REMARK VINA RESULT:      -8.0      1.604      2.021
REMARK  8 active torsions:
REMARK  status: ('A' for Active; 'I' for Inactive)
REMARK    1  A    between atoms: C_4  and  C_5 
REMARK    2  A    between atoms: C_11  and  C_12 
REMARK    3  A    between atoms: C_12  and  C_13 
REMARK       I    between atoms: C_13  and  N_14 
REMARK    4  A    between atoms: N_14  and  C_15 
REMARK    5  A    between atoms: C_20  and  C_21 
REMARK       I    between atoms: C_21  and  N_22 
REMARK    6  A    between atoms: N_22  and  C_23 
REMARK    7  A    between atoms: C_23  and  C_24 
REMARK    8  A    between atoms: C_24  and  O_25 
ROOT
HETATM    1  C   UNL     1      -4.068   2.106 -31.717  1.00  0.00     0.228 C 
HETATM    2  N   UNL     1      -4.219   3.445 -32.031  1.00  0.00    -0.325 N 
HETATM    3  O   UNL     1      -3.002   1.523 -31.527  1.00  0.00    -0.273 OA
HETATM    4  H   UNL     1      -5.180   3.772 -32.156  1.00  0.00     0.169 HD
ENDROOT
BRANCH   2   5
HETATM    5  C   UNL     1      -3.218   4.419 -32.249  1.00  0.00     0.057 A 
HETATM    6  C   UNL     1      -3.221   5.120 -33.470  1.00  0.00     0.060 A 
HETATM    7 CL   UNL     1      -4.415   4.802 -34.683  1.00  0.00    -0.082 Cl
HETATM    8  C   UNL     1      -2.263   6.099 -33.734  1.00  0.00     0.027 A 
HETATM    9  C   UNL     1      -1.287   6.388 -32.781  1.00  0.00     0.019 A 
HETATM   10  C   UNL     1      -1.258   5.699 -31.560  1.00  0.00     0.034 A 
HETATM   11  C   UNL     1      -2.222   4.710 -31.308  1.00  0.00     0.048 A 
BRANCH  10  12
HETATM   12  C   UNL     1      -0.170   6.043 -30.591  1.00  0.00     0.251 C 
HETATM   13  N   UNL     1      -0.198   5.437 -29.353  1.00  0.00    -0.355 N 
HETATM   14  H   UNL     1      -1.037   4.975 -29.029  1.00  0.00     0.162 HD
HETATM   15  O   UNL     1       0.697   6.852 -30.910  1.00  0.00    -0.268 OA
BRANCH  13  16
HETATM   16  C   UNL     1       0.744   5.799 -28.308  1.00  0.00     0.149 C 
BRANCH  16  17
HETATM   17  C   UNL     1       0.094   6.705 -27.262  1.00  0.00     0.186 C 
BRANCH  17  18
HETATM   18  O   UNL     1      -0.597   5.881 -26.313  1.00  0.00    -0.394 OA
HETATM   19  C   UNL     1      -1.850   6.443 -25.948  1.00  0.00     0.201 C 
ENDBRANCH  17  18
ENDBRANCH  16  17
ENDBRANCH  13  16
ENDBRANCH  10  12
ENDBRANCH   2   5
BRANCH   1  20
HETATM   20  C   UNL     1      -5.390   1.376 -31.539  1.00  0.00     0.165 C 
BRANCH  20  21
HETATM   21  C   UNL     1      -5.697   0.526 -32.715  1.00  0.00     0.075 A 
HETATM   22  C   UNL     1      -6.278   0.854 -33.919  1.00  0.00     0.077 A 
HETATM   23  C   UNL     1      -6.788   2.094 -34.529  1.00  0.00     0.079 C 
HETATM   24  O   UNL     1      -6.375  -0.288 -34.660  1.00  0.00    -0.292 OA
HETATM   25  C   UNL     1      -5.850  -1.277 -33.862  1.00  0.00     0.204 A 
HETATM   26  N   UNL     1      -5.426  -0.828 -32.688  1.00  0.00    -0.224 NA
BRANCH  25  27
HETATM   27  C   UNL     1      -5.791  -2.654 -34.256  1.00  0.00     0.128 A 
HETATM   28  O   UNL     1      -4.656  -3.420 -34.141  1.00  0.00    -0.318 OA
HETATM   29  C   UNL     1      -4.942  -4.658 -34.614  1.00  0.00     0.142 A 
HETATM   30  C   UNL     1      -6.247  -4.724 -35.036  1.00  0.00     0.027 A 
HETATM   31  C   UNL     1      -6.794  -3.439 -34.806  1.00  0.00     0.043 A 
ENDBRANCH  25  27
ENDBRANCH  20  21
ENDBRANCH   1  20
TORSDOF 8
ENDMDL
MODEL 4
REMARK VINA RESULT:      -7.6      1.934      2.440
REMARK  8 active torsions:
REMARK  status: ('A' for Active; 'I' for Inactive)
REMARK    1  A    between atoms: C_4  and  C_5 
REMARK    2  A    between atoms: C_11  and  C_12 
REMARK    3  A    between atoms: C_12  and  C_13 
REMARK       I    between atoms: C_13  and  N_14 
REMARK    4  A    between atoms: N_14  and  C_15 
REMARK    5  A    between atoms: C_20  and  C_21 
REMARK       I    between atoms: C_21  and  N_22 
REMARK    6  A    between atoms: N_22  and  C_23 
REMARK    7  A    between atoms: C_23  and  C_24 
REMARK    8  A    between atoms: C_24  and  O_25 
ROOT
HETATM    1  C   UNL     1      -3.681   3.070 -31.162  1.00  0.00     0.228 C 
HETATM    2  N   UNL     1      -3.664   4.454 -31.184  1.00  0.00    -0.325 N 
HETATM    3  O   UNL     1      -2.695   2.335 -31.167  1.00  0.00    -0.273 OA
HETATM    4  H   UNL     1      -4.576   4.915 -31.174  1.00  0.00     0.169 HD
ENDROOT
BRANCH   2   5
HETATM    5  C   UNL     1      -2.551   5.322 -31.265  1.00  0.00     0.057 A 
HETATM    6  C   UNL     1      -1.855   5.406 -32.487  1.00  0.00     0.060 A 
HETATM    7 CL   UNL     1      -2.341   4.470 -33.860  1.00  0.00    -0.082 Cl
HETATM    8  C   UNL     1      -0.756   6.253 -32.627  1.00  0.00     0.027 A 
HETATM    9  C   UNL     1      -0.336   7.027 -31.545  1.00  0.00     0.019 A 
HETATM   10  C   UNL     1      -1.007   6.957 -30.316  1.00  0.00     0.034 A 
HETATM   11  C   UNL     1      -2.107   6.094 -30.184  1.00  0.00     0.048 A 
BRANCH  10  12
HETATM   12  C   UNL     1      -0.491   7.797 -29.191  1.00  0.00     0.251 C 
HETATM   13  N   UNL     1       0.866   7.780 -28.948  1.00  0.00    -0.355 N 
HETATM   14  H   UNL     1       1.448   7.055 -29.346  1.00  0.00     0.162 HD
HETATM   15  O   UNL     1      -1.273   8.460 -28.515  1.00  0.00    -0.268 OA
BRANCH  13  16
HETATM   16  C   UNL     1       1.443   8.467 -27.805  1.00  0.00     0.149 C 
BRANCH  16  17
HETATM   17  C   UNL     1       1.486   7.561 -26.574  1.00  0.00     0.186 C 
BRANCH  17  18
HETATM   18  O   UNL     1       2.226   8.229 -25.543  1.00  0.00    -0.394 OA
HETATM   19  C   UNL     1       1.655   9.490 -25.224  1.00  0.00     0.201 C 
ENDBRANCH  17  18
ENDBRANCH  16  17
ENDBRANCH  13  16
ENDBRANCH  10  12
ENDBRANCH   2   5
BRANCH   1  20
HETATM   20  C   UNL     1      -5.080   2.487 -31.048  1.00  0.00     0.165 C 
BRANCH  20  21
HETATM   21  C   UNL     1      -5.453   1.739 -32.274  1.00  0.00     0.075 A 
HETATM   22  C   UNL     1      -6.018   2.185 -33.447  1.00  0.00     0.077 A 
HETATM   23  C   UNL     1      -6.449   3.494 -33.967  1.00  0.00     0.079 C 
HETATM   24  O   UNL     1      -6.198   1.104 -34.259  1.00  0.00    -0.292 OA
HETATM   25  C   UNL     1      -5.735   0.031 -33.535  1.00  0.00     0.204 A 
HETATM   26  N   UNL     1      -5.273   0.371 -32.339  1.00  0.00    -0.224 NA
BRANCH  25  27
HETATM   27  C   UNL     1      -5.772  -1.317 -34.020  1.00  0.00     0.128 A 
HETATM   28  O   UNL     1      -4.659  -2.120 -34.090  1.00  0.00    -0.318 OA
HETATM   29  C   UNL     1      -5.042  -3.316 -34.603  1.00  0.00     0.142 A 
HETATM   30  C   UNL     1      -6.389  -3.316 -34.869  1.00  0.00     0.027 A 
HETATM   31  C   UNL     1      -6.859  -2.035 -34.495  1.00  0.00     0.043 A 
ENDBRANCH  25  27
ENDBRANCH  20  21
ENDBRANCH   1  20
TORSDOF 8
ENDMDL
MODEL 5
REMARK VINA RESULT:      -7.6      2.348      3.760
REMARK  8 active torsions:
REMARK  status: ('A' for Active; 'I' for Inactive)
REMARK    1  A    between atoms: C_4  and  C_5 
REMARK    2  A    between atoms: C_11  and  C_12 
REMARK    3  A    between atoms: C_12  and  C_13 
REMARK       I    between atoms: C_13  and  N_14 
REMARK    4  A    between atoms: N_14  and  C_15 
REMARK    5  A    between atoms: C_20  and  C_21 
REMARK       I    between atoms: C_21  and  N_22 
REMARK    6  A    between atoms: N_22  and  C_23 
REMARK    7  A    between atoms: C_23  and  C_24 
REMARK    8  A    between atoms: C_24  and  O_25 
ROOT
HETATM    1  C   UNL     1      -4.244   0.248 -31.741  1.00  0.00     0.228 C 
HETATM    2  N   UNL     1      -4.133   1.321 -32.608  1.00  0.00    -0.325 N 
HETATM    3  O   UNL     1      -4.239   0.307 -30.513  1.00  0.00    -0.273 OA
HETATM    4  H   UNL     1      -4.156   1.098 -33.606  1.00  0.00     0.169 HD
ENDROOT
BRANCH   2   5
HETATM    5  C   UNL     1      -3.942   2.688 -32.301  1.00  0.00     0.057 A 
HETATM    6  C   UNL     1      -5.019   3.574 -32.495  1.00  0.00     0.060 A 
HETATM    7 CL   UNL     1      -6.542   3.014 -33.100  1.00  0.00    -0.082 Cl
HETATM    8  C   UNL     1      -4.890   4.931 -32.199  1.00  0.00     0.027 A 
HETATM    9  C   UNL     1      -3.681   5.421 -31.706  1.00  0.00     0.019 A 
HETATM   10  C   UNL     1      -2.591   4.560 -31.509  1.00  0.00     0.034 A 
HETATM   11  C   UNL     1      -2.730   3.198 -31.820  1.00  0.00     0.048 A 
BRANCH  10  12
HETATM   12  C   UNL     1      -1.317   5.155 -30.998  1.00  0.00     0.251 C 
HETATM   13  N   UNL     1      -1.386   5.954 -29.878  1.00  0.00    -0.355 N 
HETATM   14  H   UNL     1      -2.276   6.317 -29.562  1.00  0.00     0.162 HD
HETATM   15  O   UNL     1      -0.261   4.933 -31.586  1.00  0.00    -0.268 OA
BRANCH  13  16
HETATM   16  C   UNL     1      -0.224   6.670 -29.381  1.00  0.00     0.149 C 
BRANCH  16  17
HETATM   17  C   UNL     1       0.330   6.022 -28.112  1.00  0.00     0.186 C 
BRANCH  17  18
HETATM   18  O   UNL     1       0.192   6.951 -27.029  1.00  0.00    -0.394 OA
HETATM   19  C   UNL     1       1.451   7.471 -26.623  1.00  0.00     0.201 C 
ENDBRANCH  17  18
ENDBRANCH  16  17
ENDBRANCH  13  16
ENDBRANCH  10  12
ENDBRANCH   2   5
BRANCH   1  20
HETATM   20  C   UNL     1      -4.462  -1.079 -32.451  1.00  0.00     0.165 C 
BRANCH  20  21
HETATM   21  C   UNL     1      -5.778  -1.114 -33.133  1.00  0.00     0.075 A 
HETATM   22  C   UNL     1      -6.243  -1.952 -34.122  1.00  0.00     0.077 A 
HETATM   23  C   UNL     1      -5.692  -3.099 -34.863  1.00  0.00     0.079 C 
HETATM   24  O   UNL     1      -7.509  -1.558 -34.441  1.00  0.00    -0.292 OA
HETATM   25  C   UNL     1      -7.763  -0.478 -33.628  1.00  0.00     0.204 A 
HETATM   26  N   UNL     1      -6.751  -0.184 -32.822  1.00  0.00    -0.224 NA
BRANCH  25  27
HETATM   27  C   UNL     1      -8.990   0.262 -33.667  1.00  0.00     0.128 A 
HETATM   28  O   UNL     1      -9.182   1.355 -34.478  1.00  0.00    -0.318 OA
HETATM   29  C   UNL     1     -10.436   1.820 -34.257  1.00  0.00     0.142 A 
HETATM   30  C   UNL     1     -11.077   1.051 -33.316  1.00  0.00     0.027 A 
HETATM   31  C   UNL     1     -10.151   0.050 -32.937  1.00  0.00     0.043 A 
ENDBRANCH  25  27
ENDBRANCH  20  21
ENDBRANCH   1  20
TORSDOF 8
ENDMDL
MODEL 6
REMARK VINA RESULT:      -7.4      2.275      9.504
REMARK  8 active torsions:
REMARK  status: ('A' for Active; 'I' for Inactive)
REMARK    1  A    between atoms: C_4  and  C_5 
REMARK    2  A    between atoms: C_11  and  C_12 
REMARK    3  A    between atoms: C_12  and  C_13 
REMARK       I    between atoms: C_13  and  N_14 
REMARK    4  A    between atoms: N_14  and  C_15 
REMARK    5  A    between atoms: C_20  and  C_21 
REMARK       I    between atoms: C_21  and  N_22 
REMARK    6  A    between atoms: N_22  and  C_23 
REMARK    7  A    between atoms: C_23  and  C_24 
REMARK    8  A    between atoms: C_24  and  O_25 
ROOT
HETATM    1  C   UNL     1      -3.174   3.138 -32.040  1.00  0.00     0.228 C 
HETATM    2  N   UNL     1      -4.428   3.100 -32.622  1.00  0.00    -0.325 N 
HETATM    3  O   UNL     1      -2.694   2.283 -31.298  1.00  0.00    -0.273 OA
HETATM    4  H   UNL     1      -4.674   3.895 -33.216  1.00  0.00     0.169 HD
ENDROOT
BRANCH   2   5
HETATM    5  C   UNL     1      -5.442   2.126 -32.470  1.00  0.00     0.057 A 
HETATM    6  C   UNL     1      -6.247   2.172 -31.316  1.00  0.00     0.060 A 
HETATM    7 CL   UNL     1      -6.006   3.385 -30.104  1.00  0.00    -0.082 Cl
HETATM    8  C   UNL     1      -7.269   1.243 -31.119  1.00  0.00     0.027 A 
HETATM    9  C   UNL     1      -7.498   0.253 -32.074  1.00  0.00     0.019 A 
HETATM   10  C   UNL     1      -6.705   0.181 -33.229  1.00  0.00     0.034 A 
HETATM   11  C   UNL     1      -5.675   1.116 -33.412  1.00  0.00     0.048 A 
BRANCH  10  12
HETATM   12  C   UNL     1      -6.991  -0.920 -34.202  1.00  0.00     0.251 C 
HETATM   13  N   UNL     1      -6.440  -2.158 -33.950  1.00  0.00    -0.355 N 
HETATM   14  H   UNL     1      -5.687  -2.257 -33.281  1.00  0.00     0.162 HD
HETATM   15  O   UNL     1      -7.685  -0.696 -35.190  1.00  0.00    -0.268 OA
BRANCH  13  16
HETATM   16  C   UNL     1      -6.562  -3.252 -34.898  1.00  0.00     0.149 C 
BRANCH  16  17
HETATM   17  C   UNL     1      -5.540  -4.353 -34.612  1.00  0.00     0.186 C 
BRANCH  17  18
HETATM   18  O   UNL     1      -4.344  -3.744 -34.108  1.00  0.00    -0.394 OA
HETATM   19  C   UNL     1      -3.431  -4.716 -33.616  1.00  0.00     0.201 C 
ENDBRANCH  17  18
ENDBRANCH  16  17
ENDBRANCH  13  16
ENDBRANCH  10  12
ENDBRANCH   2   5
BRANCH   1  20
HETATM   20  C   UNL     1      -2.351   4.345 -32.463  1.00  0.00     0.165 C 
BRANCH  20  21
HETATM   21  C   UNL     1      -2.230   5.328 -31.359  1.00  0.00     0.075 A 
HETATM   22  C   UNL     1      -3.134   6.259 -30.898  1.00  0.00     0.077 A 
HETATM   23  C   UNL     1      -4.510   6.644 -31.254  1.00  0.00     0.079 C 
HETATM   24  O   UNL     1      -2.539   6.949 -29.883  1.00  0.00    -0.292 OA
HETATM   25  C   UNL     1      -1.280   6.408 -29.772  1.00  0.00     0.204 A 
HETATM   26  N   UNL     1      -1.057   5.426 -30.636  1.00  0.00    -0.224 NA
BRANCH  25  27
HETATM   27  C   UNL     1      -0.304   6.876 -28.831  1.00  0.00     0.128 A 
HETATM   28  O   UNL     1       0.299   8.106 -28.925  1.00  0.00    -0.318 OA
HETATM   29  C   UNL     1       1.171   8.221 -27.893  1.00  0.00     0.142 A 
HETATM   30  C   UNL     1       1.150   7.087 -27.117  1.00  0.00     0.027 A 
HETATM   31  C   UNL     1       0.203   6.223 -27.717  1.00  0.00     0.043 A 
ENDBRANCH  25  27
ENDBRANCH  20  21
ENDBRANCH   1  20
TORSDOF 8
ENDMDL
MODEL 7
REMARK VINA RESULT:      -7.3     17.312     20.071
REMARK  8 active torsions:
REMARK  status: ('A' for Active; 'I' for Inactive)
REMARK    1  A    between atoms: C_4  and  C_5 
REMARK    2  A    between atoms: C_11  and  C_12 
REMARK    3  A    between atoms: C_12  and  C_13 
REMARK       I    between atoms: C_13  and  N_14 
REMARK    4  A    between atoms: N_14  and  C_15 
REMARK    5  A    between atoms: C_20  and  C_21 
REMARK       I    between atoms: C_21  and  N_22 
REMARK    6  A    between atoms: N_22  and  C_23 
REMARK    7  A    between atoms: C_23  and  C_24 
REMARK    8  A    between atoms: C_24  and  O_25 
ROOT
HETATM    1  C   UNL     1      -2.725 -12.516 -38.067  1.00  0.00     0.228 C 
HETATM    2  N   UNL     1      -3.606 -13.491 -37.633  1.00  0.00    -0.325 N 
HETATM    3  O   UNL     1      -3.021 -11.370 -38.401  1.00  0.00    -0.273 OA
HETATM    4  H   UNL     1      -3.194 -14.395 -37.391  1.00  0.00     0.169 HD
ENDROOT
BRANCH   2   5
HETATM    5  C   UNL     1      -5.013 -13.421 -37.521  1.00  0.00     0.057 A 
HETATM    6  C   UNL     1      -5.605 -13.761 -36.289  1.00  0.00     0.060 A 
HETATM    7 CL   UNL     1      -4.640 -14.257 -34.939  1.00  0.00    -0.082 Cl
HETATM    8  C   UNL     1      -6.988 -13.701 -36.119  1.00  0.00     0.027 A 
HETATM    9  C   UNL     1      -7.799 -13.301 -37.180  1.00  0.00     0.019 A 
HETATM   10  C   UNL     1      -7.236 -12.964 -38.420  1.00  0.00     0.034 A 
HETATM   11  C   UNL     1      -5.843 -13.037 -38.582  1.00  0.00     0.048 A 
BRANCH  10  12
HETATM   12  C   UNL     1      -8.165 -12.565 -39.523  1.00  0.00     0.251 C 
HETATM   13  N   UNL     1      -9.519 -12.600 -39.265  1.00  0.00    -0.355 N 
HETATM   14  H   UNL     1      -9.874 -13.100 -38.459  1.00  0.00     0.162 HD
HETATM   15  O   UNL     1      -7.711 -12.235 -40.615  1.00  0.00    -0.268 OA
BRANCH  13  16
HETATM   16  C   UNL     1     -10.499 -12.348 -40.307  1.00  0.00     0.149 C 
BRANCH  16  17
HETATM   17  C   UNL     1     -11.324 -13.598 -40.610  1.00  0.00     0.186 C 
BRANCH  17  18
HETATM   18  O   UNL     1     -10.641 -14.737 -40.071  1.00  0.00    -0.394 OA
HETATM   19  C   UNL     1     -10.303 -15.672 -41.086  1.00  0.00     0.201 C 
ENDBRANCH  17  18
ENDBRANCH  16  17
ENDBRANCH  13  16
ENDBRANCH  10  12
ENDBRANCH   2   5
BRANCH   1  20
HETATM   20  C   UNL     1      -1.270 -12.959 -38.030  1.00  0.00     0.165 C 
BRANCH  20  21
HETATM   21  C   UNL     1      -0.980 -13.940 -39.103  1.00  0.00     0.075 A 
HETATM   22  C   UNL     1       0.185 -14.612 -39.398  1.00  0.00     0.077 A 
HETATM   23  C   UNL     1       1.537 -14.665 -38.816  1.00  0.00     0.079 C 
HETATM   24  O   UNL     1      -0.045 -15.379 -40.503  1.00  0.00    -0.292 OA
HETATM   25  C   UNL     1      -1.355 -15.132 -40.843  1.00  0.00     0.204 A 
HETATM   26  N   UNL     1      -1.953 -14.279 -40.023  1.00  0.00    -0.224 NA
BRANCH  25  27
HETATM   27  C   UNL     1      -1.995 -15.724 -41.981  1.00  0.00     0.128 A 
HETATM   28  O   UNL     1      -2.876 -15.042 -42.785  1.00  0.00    -0.318 OA
HETATM   29  C   UNL     1      -3.302 -15.894 -43.750  1.00  0.00     0.142 A 
HETATM   30  C   UNL     1      -2.714 -17.126 -43.598  1.00  0.00     0.027 A 
HETATM   31  C   UNL     1      -1.874 -17.018 -42.464  1.00  0.00     0.043 A 
ENDBRANCH  25  27
ENDBRANCH  20  21
ENDBRANCH   1  20
TORSDOF 8
ENDMDL
MODEL 8
REMARK VINA RESULT:      -7.3      2.041      9.666
REMARK  8 active torsions:
REMARK  status: ('A' for Active; 'I' for Inactive)
REMARK    1  A    between atoms: C_4  and  C_5 
REMARK    2  A    between atoms: C_11  and  C_12 
REMARK    3  A    between atoms: C_12  and  C_13 
REMARK       I    between atoms: C_13  and  N_14 
REMARK    4  A    between atoms: N_14  and  C_15 
REMARK    5  A    between atoms: C_20  and  C_21 
REMARK       I    between atoms: C_21  and  N_22 
REMARK    6  A    between atoms: N_22  and  C_23 
REMARK    7  A    between atoms: C_23  and  C_24 
REMARK    8  A    between atoms: C_24  and  O_25 
ROOT
HETATM    1  C   UNL     1      -1.910   4.680 -32.482  1.00  0.00     0.228 C 
HETATM    2  N   UNL     1      -2.482   4.009 -31.415  1.00  0.00    -0.325 N 
HETATM    3  O   UNL     1      -2.446   4.909 -33.564  1.00  0.00    -0.273 OA
HETATM    4  H   UNL     1      -1.898   3.904 -30.583  1.00  0.00     0.169 HD
ENDROOT
BRANCH   2   5
HETATM    5  C   UNL     1      -3.758   3.403 -31.336  1.00  0.00     0.057 A 
HETATM    6  C   UNL     1      -4.827   4.159 -30.821  1.00  0.00     0.060 A 
HETATM    7 CL   UNL     1      -4.596   5.791 -30.290  1.00  0.00    -0.082 Cl
HETATM    8  C   UNL     1      -6.109   3.615 -30.729  1.00  0.00     0.027 A 
HETATM    9  C   UNL     1      -6.337   2.306 -31.150  1.00  0.00     0.019 A 
HETATM   10  C   UNL     1      -5.287   1.529 -31.661  1.00  0.00     0.034 A 
HETATM   11  C   UNL     1      -4.000   2.084 -31.740  1.00  0.00     0.048 A 
BRANCH  10  12
HETATM   12  C   UNL     1      -5.596   0.124 -32.074  1.00  0.00     0.251 C 
HETATM   13  N   UNL     1      -5.888  -0.105 -33.401  1.00  0.00    -0.355 N 
HETATM   14  H   UNL     1      -6.120   0.665 -34.014  1.00  0.00     0.162 HD
HETATM   15  O   UNL     1      -5.597  -0.773 -31.234  1.00  0.00    -0.268 OA
BRANCH  13  16
HETATM   16  C   UNL     1      -6.318  -1.411 -33.871  1.00  0.00     0.149 C 
BRANCH  16  17
HETATM   17  C   UNL     1      -5.124  -2.285 -34.255  1.00  0.00     0.186 C 
BRANCH  17  18
HETATM   18  O   UNL     1      -5.507  -3.123 -35.353  1.00  0.00    -0.394 OA
HETATM   19  C   UNL     1      -6.529  -4.037 -34.981  1.00  0.00     0.201 C 
ENDBRANCH  17  18
ENDBRANCH  16  17
ENDBRANCH  13  16
ENDBRANCH  10  12
ENDBRANCH   2   5
BRANCH   1  20
HETATM   20  C   UNL     1      -0.518   5.213 -32.180  1.00  0.00     0.165 C 
BRANCH  20  21
HETATM   21  C   UNL     1      -0.562   6.277 -31.148  1.00  0.00     0.075 A 
HETATM   22  C   UNL     1      -1.292   7.444 -31.108  1.00  0.00     0.077 A 
HETATM   23  C   UNL     1      -2.283   8.086 -31.988  1.00  0.00     0.079 C 
HETATM   24  O   UNL     1      -0.957   8.105 -29.963  1.00  0.00    -0.292 OA
HETATM   25  C   UNL     1      -0.020   7.307 -29.350  1.00  0.00     0.204 A 
HETATM   26  N   UNL     1       0.240   6.197 -30.027  1.00  0.00    -0.224 NA
BRANCH  25  27
HETATM   27  C   UNL     1       0.623   7.657 -28.117  1.00  0.00     0.128 A 
HETATM   28  O   UNL     1       0.344   7.036 -26.924  1.00  0.00    -0.318 OA
HETATM   29  C   UNL     1       1.111   7.614 -25.966  1.00  0.00     0.142 A 
HETATM   30  C   UNL     1       1.893   8.604 -26.509  1.00  0.00     0.027 A 
HETATM   31  C   UNL     1       1.582   8.632 -27.889  1.00  0.00     0.043 A 
ENDBRANCH  25  27
ENDBRANCH  20  21
ENDBRANCH   1  20
TORSDOF 8
ENDMDL
MODEL 9
REMARK VINA RESULT:      -7.2      5.512      8.507
REMARK  8 active torsions:
REMARK  status: ('A' for Active; 'I' for Inactive)
REMARK    1  A    between atoms: C_4  and  C_5 
REMARK    2  A    between atoms: C_11  and  C_12 
REMARK    3  A    between atoms: C_12  and  C_13 
REMARK       I    between atoms: C_13  and  N_14 
REMARK    4  A    between atoms: N_14  and  C_15 
REMARK    5  A    between atoms: C_20  and  C_21 
REMARK       I    between atoms: C_21  and  N_22 
REMARK    6  A    between atoms: N_22  and  C_23 
REMARK    7  A    between atoms: C_23  and  C_24 
REMARK    8  A    between atoms: C_24  and  O_25 
ROOT
HETATM    1  C   UNL     1      -7.549   3.938 -33.637  1.00  0.00     0.228 C 
HETATM    2  N   UNL     1      -7.823   3.086 -32.582  1.00  0.00    -0.325 N 
HETATM    3  O   UNL     1      -6.601   3.845 -34.415  1.00  0.00    -0.273 OA
HETATM    4  H   UNL     1      -8.655   3.305 -32.030  1.00  0.00     0.169 HD
ENDROOT
BRANCH   2   5
HETATM    5  C   UNL     1      -7.077   1.973 -32.130  1.00  0.00     0.057 A 
HETATM    6  C   UNL     1      -6.878   1.818 -30.745  1.00  0.00     0.060 A 
HETATM    7 CL   UNL     1      -7.522   2.960 -29.614  1.00  0.00    -0.082 Cl
HETATM    8  C   UNL     1      -6.159   0.733 -30.243  1.00  0.00     0.027 A 
HETATM    9  C   UNL     1      -5.628  -0.212 -31.121  1.00  0.00     0.019 A 
HETATM   10  C   UNL     1      -5.807  -0.077 -32.506  1.00  0.00     0.034 A 
HETATM   11  C   UNL     1      -6.524   1.024 -33.000  1.00  0.00     0.048 A 
BRANCH  10  12
HETATM   12  C   UNL     1      -5.192  -1.114 -33.392  1.00  0.00     0.251 C 
HETATM   13  N   UNL     1      -6.019  -1.779 -34.271  1.00  0.00    -0.355 N 
HETATM   14  H   UNL     1      -7.024  -1.744 -34.155  1.00  0.00     0.162 HD
HETATM   15  O   UNL     1      -3.991  -1.354 -33.307  1.00  0.00    -0.268 OA
BRANCH  13  16
HETATM   16  C   UNL     1      -5.536  -2.883 -35.083  1.00  0.00     0.149 C 
BRANCH  16  17
HETATM   17  C   UNL     1      -6.478  -4.085 -35.005  1.00  0.00     0.186 C 
BRANCH  17  18
HETATM   18  O   UNL     1      -5.708  -5.245 -34.663  1.00  0.00    -0.394 OA
HETATM   19  C   UNL     1      -4.418  -4.892 -34.184  1.00  0.00     0.201 C 
ENDBRANCH  17  18
ENDBRANCH  16  17
ENDBRANCH  13  16
ENDBRANCH  10  12
ENDBRANCH   2   5
BRANCH   1  20
HETATM   20  C   UNL     1      -8.602   5.018 -33.828  1.00  0.00     0.165 C 
BRANCH  20  21
HETATM   21  C   UNL     1      -9.944   4.539 -33.418  1.00  0.00     0.075 A 
HETATM   22  C   UNL     1     -10.863   5.101 -32.561  1.00  0.00     0.077 A 
HETATM   23  C   UNL     1     -10.923   6.333 -31.757  1.00  0.00     0.079 C 
HETATM   24  O   UNL     1     -11.933   4.258 -32.486  1.00  0.00    -0.292 OA
HETATM   25  C   UNL     1     -11.613   3.201 -33.305  1.00  0.00     0.204 A 
HETATM   26  N   UNL     1     -10.430   3.334 -33.888  1.00  0.00    -0.224 NA
BRANCH  25  27
HETATM   27  C   UNL     1     -12.467   2.063 -33.488  1.00  0.00     0.128 A 
HETATM   28  O   UNL     1     -11.998   0.772 -33.526  1.00  0.00    -0.318 OA
HETATM   29  C   UNL     1     -13.060  -0.048 -33.725  1.00  0.00     0.142 A 
HETATM   30  C   UNL     1     -14.221   0.680 -33.816  1.00  0.00     0.027 A 
HETATM   31  C   UNL     1     -13.842   2.035 -33.662  1.00  0.00     0.043 A 
ENDBRANCH  25  27
ENDBRANCH  20  21
ENDBRANCH   1  20
TORSDOF 8
ENDMDL
MODEL 10
REMARK VINA RESULT:      -7.2      3.162      9.404
REMARK  8 active torsions:
REMARK  status: ('A' for Active; 'I' for Inactive)
REMARK    1  A    between atoms: C_4  and  C_5 
REMARK    2  A    between atoms: C_11  and  C_12 
REMARK    3  A    between atoms: C_12  and  C_13 
REMARK       I    between atoms: C_13  and  N_14 
REMARK    4  A    between atoms: N_14  and  C_15 
REMARK    5  A    between atoms: C_20  and  C_21 
REMARK       I    between atoms: C_21  and  N_22 
REMARK    6  A    between atoms: N_22  and  C_23 
REMARK    7  A    between atoms: C_23  and  C_24 
REMARK    8  A    between atoms: C_24  and  O_25 
ROOT
HETATM    1  C   UNL     1      -2.396   5.450 -34.112  1.00  0.00     0.228 C 
HETATM    2  N   UNL     1      -2.818   4.912 -32.909  1.00  0.00    -0.325 N 
HETATM    3  O   UNL     1      -2.935   5.287 -35.206  1.00  0.00    -0.273 OA
HETATM    4  H   UNL     1      -2.255   5.147 -32.089  1.00  0.00     0.169 HD
ENDROOT
BRANCH   2   5
HETATM    5  C   UNL     1      -3.901   4.037 -32.664  1.00  0.00     0.057 A 
HETATM    6  C   UNL     1      -5.176   4.594 -32.451  1.00  0.00     0.060 A 
HETATM    7 CL   UNL     1      -5.422   6.308 -32.481  1.00  0.00    -0.082 Cl
HETATM    8  C   UNL     1      -6.283   3.777 -32.216  1.00  0.00     0.027 A 
HETATM    9  C   UNL     1      -6.128   2.392 -32.188  1.00  0.00     0.019 A 
HETATM   10  C   UNL     1      -4.867   1.812 -32.391  1.00  0.00     0.034 A 
HETATM   11  C   UNL     1      -3.759   2.644 -32.618  1.00  0.00     0.048 A 
BRANCH  10  12
HETATM   12  C   UNL     1      -4.767   0.320 -32.326  1.00  0.00     0.251 C 
HETATM   13  N   UNL     1      -4.343  -0.344 -33.457  1.00  0.00    -0.355 N 
HETATM   14  H   UNL     1      -4.334   0.126 -34.353  1.00  0.00     0.162 HD
HETATM   15  O   UNL     1      -5.072  -0.267 -31.292  1.00  0.00    -0.268 OA
BRANCH  13  16
HETATM   16  C   UNL     1      -4.331  -1.795 -33.527  1.00  0.00     0.149 C 
BRANCH  16  17
HETATM   17  C   UNL     1      -5.589  -2.330 -34.212  1.00  0.00     0.186 C 
BRANCH  17  18
HETATM   18  O   UNL     1      -5.366  -3.701 -34.567  1.00  0.00    -0.394 OA
HETATM   19  C   UNL     1      -6.515  -4.277 -35.172  1.00  0.00     0.201 C 
ENDBRANCH  17  18
ENDBRANCH  16  17
ENDBRANCH  13  16
ENDBRANCH  10  12
ENDBRANCH   2   5
BRANCH   1  20
HETATM   20  C   UNL     1      -1.195   6.371 -33.972  1.00  0.00     0.165 C 
BRANCH  20  21
HETATM   21  C   UNL     1      -1.258   7.149 -32.711  1.00  0.00     0.075 A 
HETATM   22  C   UNL     1      -0.547   7.001 -31.542  1.00  0.00     0.077 A 
HETATM   23  C   UNL     1       0.514   6.095 -31.072  1.00  0.00     0.079 C 
HETATM   24  O   UNL     1      -0.994   7.943 -30.661  1.00  0.00    -0.292 OA
HETATM   25  C   UNL     1      -1.975   8.628 -31.338  1.00  0.00     0.204 A 
HETATM   26  N   UNL     1      -2.159   8.186 -32.575  1.00  0.00    -0.224 NA
BRANCH  25  27
HETATM   27  C   UNL     1      -2.733   9.696 -30.754  1.00  0.00     0.128 A 
HETATM   28  O   UNL     1      -3.961  10.091 -31.227  1.00  0.00    -0.318 OA
HETATM   29  C   UNL     1      -4.387  11.126 -30.460  1.00  0.00     0.142 A 
HETATM   30  C   UNL     1      -3.462  11.417 -29.488  1.00  0.00     0.027 A 
HETATM   31  C   UNL     1      -2.400  10.500 -29.674  1.00  0.00     0.043 A 
ENDBRANCH  25  27
ENDBRANCH  20  21
ENDBRANCH   1  20
TORSDOF 8
ENDMDL
