MODEL 1
REMARK VINA RESULT:      -9.1      0.000      0.000
REMARK  8 active torsions:
REMARK  status: ('A' for Active; 'I' for Inactive)
REMARK    1  A    between atoms: C_2  and  C_3 
REMARK    2  A    between atoms: C_3  and  C_4 
REMARK    3  A    between atoms: C_4  and  N_5 
REMARK       I    between atoms: N_5  and  C_6 
REMARK    4  A    between atoms: C_6  and  C_7 
REMARK    5  A    between atoms: C_14  and  S_15 
REMARK    6  A    between atoms: S_15  and  N_16 
REMARK    7  A    between atoms: N_16  and  C_17 
REMARK    8  A    between atoms: C_19  and  O_20 
ROOT
HETATM    1  C   UNL     1      -2.502   4.651 -31.861  1.00  0.00     0.098 A 
HETATM    2  C   UNL     1      -3.122   3.295 -31.841  1.00  0.00     0.201 A 
HETATM    3  O   UNL     1      -2.618   2.359 -31.224  1.00  0.00    -0.286 OA
HETATM    4  C   UNL     1      -4.380   3.087 -32.608  1.00  0.00     0.043 A 
HETATM    5  C   UNL     1      -4.927   4.166 -33.325  1.00  0.00     0.046 A 
HETATM    6  N   UNL     1      -4.273   5.402 -33.318  1.00  0.00    -0.364 N 
HETATM    7  C   UNL     1      -4.995   1.831 -32.618  1.00  0.00     0.043 A 
HETATM    8  C   UNL     1      -6.156   1.651 -33.375  1.00  0.00     0.081 A 
HETATM    9  C   UNL     1      -6.714   2.713 -34.093  1.00  0.00     0.027 A 
HETATM   10  C   UNL     1      -6.092   3.967 -34.071  1.00  0.00     0.032 A 
HETATM   11  C   UNL     1      -3.127   5.592 -32.588  1.00  0.00     0.109 A 
HETATM   12  H   UNL     1      -4.711   6.206 -33.754  1.00  0.00     0.165 HD
ENDROOT
BRANCH   8  13
HETATM   13  S   UNL     1      -6.941   0.054 -33.375  1.00  0.00     0.263 S 
HETATM   14  O   UNL     1      -6.478  -0.644 -32.195  1.00  0.00    -0.200 OA
HETATM   15  O   UNL     1      -8.352   0.246 -33.630  1.00  0.00    -0.200 OA
BRANCH  13  16
HETATM   16  N   UNL     1      -6.223  -0.712 -34.698  1.00  0.00    -0.281 N 
HETATM   17  H   UNL     1      -6.608  -0.394 -35.586  1.00  0.00     0.179 HD
BRANCH  16  18
HETATM   18  C   UNL     1      -5.867  -2.086 -34.587  1.00  0.00     0.045 A 
HETATM   19  C   UNL     1      -4.693  -2.442 -33.919  1.00  0.00     0.066 A 
HETATM   20  C   UNL     1      -4.343  -3.786 -33.794  1.00  0.00     0.070 A 
HETATM   21  C   UNL     1      -5.196  -4.766 -34.309  1.00  0.00     0.037 A 
HETATM   22  C   UNL     1      -6.375  -4.409 -34.965  1.00  0.00     0.005 A 
HETATM   23  C   UNL     1      -6.711  -3.064 -35.109  1.00  0.00     0.030 A 
BRANCH  20  24
HETATM   24  O   UNL     1      -3.214  -4.268 -33.191  1.00  0.00    -0.356 OA
HETATM   25  C   UNL     1      -2.894  -3.730 -31.911  1.00  0.00     0.210 C 
ENDBRANCH  20  24
ENDBRANCH  16  18
ENDBRANCH  13  16
ENDBRANCH   8  13
BRANCH   1  26
HETATM   26  C   UNL     1      -1.240   5.016 -31.155  1.00  0.00     0.257 C 
HETATM   27  N   UNL     1      -1.397   5.800 -30.041  1.00  0.00    -0.357 N 
HETATM   28  H   UNL     1      -2.338   6.106 -29.790  1.00  0.00     0.162 HD
HETATM   29  O   UNL     1      -0.145   4.623 -31.549  1.00  0.00    -0.267 OA
BRANCH  27  30
HETATM   30  C   UNL     1      -0.291   6.207 -29.202  1.00  0.00     0.123 C 
BRANCH  30  31
HETATM   31  C   UNL     1      -0.307   7.707 -28.917  1.00  0.00     0.019 C 
BRANCH  31  32
HETATM   32  C   UNL     1       1.009   8.160 -28.287  1.00  0.00    -0.003 C 
HETATM   33  C   UNL     1       1.284   7.435 -26.980  1.00  0.00     0.005 C 
ENDBRANCH  31  32
ENDBRANCH  30  31
ENDBRANCH  27  30
ENDBRANCH   1  26
TORSDOF 8
ENDMDL
MODEL 2
REMARK VINA RESULT:      -8.7      2.601     10.271
REMARK  8 active torsions:
REMARK  status: ('A' for Active; 'I' for Inactive)
REMARK    1  A    between atoms: C_2  and  C_3 
REMARK    2  A    between atoms: C_3  and  C_4 
REMARK    3  A    between atoms: C_4  and  N_5 
REMARK       I    between atoms: N_5  and  C_6 
REMARK    4  A    between atoms: C_6  and  C_7 
REMARK    5  A    between atoms: C_14  and  S_15 
REMARK    6  A    between atoms: S_15  and  N_16 
REMARK    7  A    between atoms: N_16  and  C_17 
REMARK    8  A    between atoms: C_19  and  O_20 
ROOT
HETATM    1  C   UNL     1      -5.342   3.058 -33.241  1.00  0.00     0.098 A 
HETATM    2  C   UNL     1      -4.138   3.165 -32.368  1.00  0.00     0.201 A 
HETATM    3  O   UNL     1      -3.901   2.345 -31.485  1.00  0.00    -0.286 OA
HETATM    4  C   UNL     1      -3.218   4.315 -32.581  1.00  0.00     0.043 A 
HETATM    5  C   UNL     1      -3.521   5.254 -33.583  1.00  0.00     0.046 A 
HETATM    6  N   UNL     1      -4.684   5.101 -34.344  1.00  0.00    -0.364 N 
HETATM    7  C   UNL     1      -2.077   4.455 -31.785  1.00  0.00     0.043 A 
HETATM    8  C   UNL     1      -1.247   5.562 -31.979  1.00  0.00     0.081 A 
HETATM    9  C   UNL     1      -1.533   6.506 -32.970  1.00  0.00     0.027 A 
HETATM   10  C   UNL     1      -2.674   6.351 -33.765  1.00  0.00     0.032 A 
HETATM   11  C   UNL     1      -5.514   4.024 -34.159  1.00  0.00     0.109 A 
HETATM   12  H   UNL     1      -4.858   5.720 -35.128  1.00  0.00     0.165 HD
ENDROOT
BRANCH   8  13
HETATM   13  S   UNL     1       0.209   5.731 -30.969  1.00  0.00     0.263 S 
HETATM   14  O   UNL     1       0.939   4.486 -31.070  1.00  0.00    -0.200 OA
HETATM   15  O   UNL     1       0.833   6.997 -31.288  1.00  0.00    -0.200 OA
BRANCH  13  16
HETATM   16  N   UNL     1      -0.428   5.789 -29.406  1.00  0.00    -0.281 N 
HETATM   17  H   UNL     1      -1.359   5.381 -29.352  1.00  0.00     0.179 HD
BRANCH  16  18
HETATM   18  C   UNL     1      -0.158   6.928 -28.597  1.00  0.00     0.045 A 
HETATM   19  C   UNL     1       0.953   6.925 -27.749  1.00  0.00     0.066 A 
HETATM   20  C   UNL     1       1.232   8.041 -26.962  1.00  0.00     0.070 A 
HETATM   21  C   UNL     1       0.412   9.169 -27.060  1.00  0.00     0.037 A 
HETATM   22  C   UNL     1      -0.689   9.176 -27.916  1.00  0.00     0.005 A 
HETATM   23  C   UNL     1      -0.980   8.051 -28.685  1.00  0.00     0.030 A 
BRANCH  20  24
HETATM   24  O   UNL     1       2.266   8.159 -26.075  1.00  0.00    -0.356 OA
HETATM   25  C   UNL     1       1.995   8.864 -24.867  1.00  0.00     0.210 C 
ENDBRANCH  20  24
ENDBRANCH  16  18
ENDBRANCH  13  16
ENDBRANCH   8  13
BRANCH   1  26
HETATM   26  C   UNL     1      -6.364   1.974 -33.147  1.00  0.00     0.257 C 
HETATM   27  N   UNL     1      -5.895   0.705 -33.370  1.00  0.00    -0.357 N 
HETATM   28  H   UNL     1      -4.911   0.586 -33.614  1.00  0.00     0.162 HD
HETATM   29  O   UNL     1      -7.536   2.218 -32.874  1.00  0.00    -0.267 OA
BRANCH  27  30
HETATM   30  C   UNL     1      -6.730  -0.472 -33.268  1.00  0.00     0.123 C 
BRANCH  30  31
HETATM   31  C   UNL     1      -6.802  -1.241 -34.585  1.00  0.00     0.019 C 
BRANCH  31  32
HETATM   32  C   UNL     1      -5.937  -2.500 -34.533  1.00  0.00    -0.003 C 
HETATM   33  C   UNL     1      -6.741  -3.747 -34.863  1.00  0.00     0.005 C 
ENDBRANCH  31  32
ENDBRANCH  30  31
ENDBRANCH  27  30
ENDBRANCH   1  26
TORSDOF 8
ENDMDL
MODEL 3
REMARK VINA RESULT:      -8.6      1.385      2.055
REMARK  8 active torsions:
REMARK  status: ('A' for Active; 'I' for Inactive)
REMARK    1  A    between atoms: C_2  and  C_3 
REMARK    2  A    between atoms: C_3  and  C_4 
REMARK    3  A    between atoms: C_4  and  N_5 
REMARK       I    between atoms: N_5  and  C_6 
REMARK    4  A    between atoms: C_6  and  C_7 
REMARK    5  A    between atoms: C_14  and  S_15 
REMARK    6  A    between atoms: S_15  and  N_16 
REMARK    7  A    between atoms: N_16  and  C_17 
REMARK    8  A    between atoms: C_19  and  O_20 
ROOT
HETATM    1  C   UNL     1      -2.676   5.187 -31.558  1.00  0.00     0.098 A 
HETATM    2  C   UNL     1      -3.348   3.905 -31.916  1.00  0.00     0.201 A 
HETATM    3  O   UNL     1      -2.828   2.815 -31.692  1.00  0.00    -0.286 OA
HETATM    4  C   UNL     1      -4.680   3.971 -32.577  1.00  0.00     0.043 A 
HETATM    5  C   UNL     1      -5.246   5.230 -32.844  1.00  0.00     0.046 A 
HETATM    6  N   UNL     1      -4.543   6.390 -32.503  1.00  0.00    -0.364 N 
HETATM    7  C   UNL     1      -5.345   2.793 -32.931  1.00  0.00     0.043 A 
HETATM    8  C   UNL     1      -6.577   2.881 -33.583  1.00  0.00     0.081 A 
HETATM    9  C   UNL     1      -7.156   4.124 -33.857  1.00  0.00     0.027 A 
HETATM   10  C   UNL     1      -6.483   5.296 -33.492  1.00  0.00     0.032 A 
HETATM   11  C   UNL     1      -3.327   6.320 -31.872  1.00  0.00     0.109 A 
HETATM   12  H   UNL     1      -4.986   7.296 -32.607  1.00  0.00     0.165 HD
ENDROOT
BRANCH   8  13
HETATM   13  S   UNL     1      -7.425   1.379 -34.022  1.00  0.00     0.263 S 
HETATM   14  O   UNL     1      -8.837   1.615 -33.815  1.00  0.00    -0.200 OA
HETATM   15  O   UNL     1      -6.916   0.932 -35.301  1.00  0.00    -0.200 OA
BRANCH  13  16
HETATM   16  N   UNL     1      -6.934   0.309 -32.811  1.00  0.00    -0.281 N 
HETATM   17  H   UNL     1      -6.814   0.771 -31.911  1.00  0.00     0.179 HD
BRANCH  16  18
HETATM   18  C   UNL     1      -6.025  -0.735 -33.143  1.00  0.00     0.045 A 
HETATM   19  C   UNL     1      -6.341  -1.622 -34.176  1.00  0.00     0.066 A 
HETATM   20  C   UNL     1      -5.451  -2.640 -34.517  1.00  0.00     0.070 A 
HETATM   21  C   UNL     1      -4.231  -2.736 -33.842  1.00  0.00     0.037 A 
HETATM   22  C   UNL     1      -3.911  -1.842 -32.820  1.00  0.00     0.005 A 
HETATM   23  C   UNL     1      -4.812  -0.839 -32.465  1.00  0.00     0.030 A 
BRANCH  20  24
HETATM   24  O   UNL     1      -5.649  -3.586 -35.484  1.00  0.00    -0.356 OA
HETATM   25  C   UNL     1      -6.543  -4.648 -35.166  1.00  0.00     0.210 C 
ENDBRANCH  20  24
ENDBRANCH  16  18
ENDBRANCH  13  16
ENDBRANCH   8  13
BRANCH   1  26
HETATM   26  C   UNL     1      -1.339   5.290 -30.904  1.00  0.00     0.257 C 
HETATM   27  N   UNL     1      -1.300   6.057 -29.768  1.00  0.00    -0.357 N 
HETATM   28  H   UNL     1      -2.156   6.524 -29.466  1.00  0.00     0.162 HD
HETATM   29  O   UNL     1      -0.356   4.711 -31.357  1.00  0.00    -0.267 OA
BRANCH  27  30
HETATM   30  C   UNL     1      -0.103   6.226 -28.974  1.00  0.00     0.123 C 
BRANCH  30  31
HETATM   31  C   UNL     1       0.614   7.537 -29.285  1.00  0.00     0.019 C 
BRANCH  31  32
HETATM   32  C   UNL     1       1.243   8.131 -28.026  1.00  0.00    -0.003 C 
HETATM   33  C   UNL     1       1.033   7.235 -26.817  1.00  0.00     0.005 C 
ENDBRANCH  31  32
ENDBRANCH  30  31
ENDBRANCH  27  30
ENDBRANCH   1  26
TORSDOF 8
ENDMDL
MODEL 4
REMARK VINA RESULT:      -8.5      3.939      8.390
REMARK  8 active torsions:
REMARK  status: ('A' for Active; 'I' for Inactive)
REMARK    1  A    between atoms: C_2  and  C_3 
REMARK    2  A    between atoms: C_3  and  C_4 
REMARK    3  A    between atoms: C_4  and  N_5 
REMARK       I    between atoms: N_5  and  C_6 
REMARK    4  A    between atoms: C_6  and  C_7 
REMARK    5  A    between atoms: C_14  and  S_15 
REMARK    6  A    between atoms: S_15  and  N_16 
REMARK    7  A    between atoms: N_16  and  C_17 
REMARK    8  A    between atoms: C_19  and  O_20 
ROOT
HETATM    1  C   UNL     1      -3.838  -1.115 -32.120  1.00  0.00     0.098 A 
HETATM    2  C   UNL     1      -5.080  -0.497 -32.667  1.00  0.00     0.201 A 
HETATM    3  O   UNL     1      -5.892  -1.144 -33.324  1.00  0.00    -0.286 OA
HETATM    4  C   UNL     1      -5.316   0.950 -32.410  1.00  0.00     0.043 A 
HETATM    5  C   UNL     1      -4.362   1.675 -31.675  1.00  0.00     0.046 A 
HETATM    6  N   UNL     1      -3.207   1.032 -31.218  1.00  0.00    -0.364 N 
HETATM    7  C   UNL     1      -6.467   1.570 -32.906  1.00  0.00     0.043 A 
HETATM    8  C   UNL     1      -6.649   2.937 -32.683  1.00  0.00     0.081 A 
HETATM    9  C   UNL     1      -5.711   3.675 -31.953  1.00  0.00     0.027 A 
HETATM   10  C   UNL     1      -4.565   3.041 -31.458  1.00  0.00     0.032 A 
HETATM   11  C   UNL     1      -3.009  -0.307 -31.437  1.00  0.00     0.109 A 
HETATM   12  H   UNL     1      -2.564   1.526 -30.608  1.00  0.00     0.165 HD
ENDROOT
BRANCH   8  13
HETATM   13  S   UNL     1      -8.121   3.720 -33.306  1.00  0.00     0.263 S 
HETATM   14  O   UNL     1      -9.016   3.891 -32.182  1.00  0.00    -0.200 OA
HETATM   15  O   UNL     1      -7.720   4.843 -34.127  1.00  0.00    -0.200 OA
BRANCH  13  16
HETATM   16  N   UNL     1      -8.796   2.517 -34.280  1.00  0.00    -0.281 N 
HETATM   17  H   UNL     1      -8.162   2.211 -35.015  1.00  0.00     0.179 HD
BRANCH  16  18
HETATM   18  C   UNL     1     -10.184   2.584 -34.591  1.00  0.00     0.045 A 
HETATM   19  C   UNL     1     -11.001   1.479 -34.340  1.00  0.00     0.066 A 
HETATM   20  C   UNL     1     -12.364   1.540 -34.630  1.00  0.00     0.070 A 
HETATM   21  C   UNL     1     -12.903   2.726 -35.137  1.00  0.00     0.037 A 
HETATM   22  C   UNL     1     -12.087   3.833 -35.375  1.00  0.00     0.005 A 
HETATM   23  C   UNL     1     -10.722   3.762 -35.106  1.00  0.00     0.030 A 
BRANCH  20  24
HETATM   24  O   UNL     1     -13.267   0.527 -34.459  1.00  0.00    -0.356 OA
HETATM   25  C   UNL     1     -14.439   0.836 -33.713  1.00  0.00     0.210 C 
ENDBRANCH  20  24
ENDBRANCH  16  18
ENDBRANCH  13  16
ENDBRANCH   8  13
BRANCH   1  26
HETATM   26  C   UNL     1      -3.453  -2.545 -32.300  1.00  0.00     0.257 C 
HETATM   27  N   UNL     1      -3.948  -3.150 -33.426  1.00  0.00    -0.357 N 
HETATM   28  H   UNL     1      -4.562  -2.609 -34.038  1.00  0.00     0.162 HD
HETATM   29  O   UNL     1      -2.729  -3.122 -31.492  1.00  0.00    -0.267 OA
BRANCH  27  30
HETATM   30  C   UNL     1      -3.636  -4.514 -33.790  1.00  0.00     0.123 C 
BRANCH  30  31
HETATM   31  C   UNL     1      -4.805  -5.206 -34.485  1.00  0.00     0.019 C 
BRANCH  31  32
HETATM   32  C   UNL     1      -5.731  -4.187 -35.149  1.00  0.00    -0.003 C 
HETATM   33  C   UNL     1      -7.115  -4.194 -34.522  1.00  0.00     0.005 C 
ENDBRANCH  31  32
ENDBRANCH  30  31
ENDBRANCH  27  30
ENDBRANCH   1  26
TORSDOF 8
ENDMDL
MODEL 5
REMARK VINA RESULT:      -8.5      2.116      2.481
REMARK  8 active torsions:
REMARK  status: ('A' for Active; 'I' for Inactive)
REMARK    1  A    between atoms: C_2  and  C_3 
REMARK    2  A    between atoms: C_3  and  C_4 
REMARK    3  A    between atoms: C_4  and  N_5 
REMARK       I    between atoms: N_5  and  C_6 
REMARK    4  A    between atoms: C_6  and  C_7 
REMARK    5  A    between atoms: C_14  and  S_15 
REMARK    6  A    between atoms: S_15  and  N_16 
REMARK    7  A    between atoms: N_16  and  C_17 
REMARK    8  A    between atoms: C_19  and  O_20 
ROOT
HETATM    1  C   UNL     1      -4.180   4.947 -30.948  1.00  0.00     0.098 A 
HETATM    2  C   UNL     1      -4.559   4.014 -32.048  1.00  0.00     0.201 A 
HETATM    3  O   UNL     1      -3.800   3.769 -32.982  1.00  0.00    -0.286 OA
HETATM    4  C   UNL     1      -5.906   3.383 -32.000  1.00  0.00     0.043 A 
HETATM    5  C   UNL     1      -6.766   3.695 -30.933  1.00  0.00     0.046 A 
HETATM    6  N   UNL     1      -6.351   4.602 -29.952  1.00  0.00    -0.364 N 
HETATM    7  C   UNL     1      -6.303   2.502 -33.010  1.00  0.00     0.043 A 
HETATM    8  C   UNL     1      -7.585   1.950 -32.963  1.00  0.00     0.081 A 
HETATM    9  C   UNL     1      -8.455   2.249 -31.909  1.00  0.00     0.027 A 
HETATM   10  C   UNL     1      -8.044   3.128 -30.901  1.00  0.00     0.032 A 
HETATM   11  C   UNL     1      -5.098   5.160 -29.990  1.00  0.00     0.109 A 
HETATM   12  H   UNL     1      -6.929   4.758 -29.133  1.00  0.00     0.165 HD
ENDROOT
BRANCH   8  13
HETATM   13  S   UNL     1      -8.082   0.821 -34.246  1.00  0.00     0.263 S 
HETATM   14  O   UNL     1      -9.501   1.013 -34.451  1.00  0.00    -0.200 OA
HETATM   15  O   UNL     1      -7.141   0.939 -35.339  1.00  0.00    -0.200 OA
BRANCH  13  16
HETATM   16  N   UNL     1      -7.903  -0.686 -33.503  1.00  0.00    -0.281 N 
HETATM   17  H   UNL     1      -8.315  -0.710 -32.572  1.00  0.00     0.179 HD
BRANCH  16  18
HETATM   18  C   UNL     1      -6.699  -1.415 -33.711  1.00  0.00     0.045 A 
HETATM   19  C   UNL     1      -5.579  -1.136 -32.925  1.00  0.00     0.066 A 
HETATM   20  C   UNL     1      -4.398  -1.854 -33.113  1.00  0.00     0.070 A 
HETATM   21  C   UNL     1      -4.364  -2.876 -34.066  1.00  0.00     0.037 A 
HETATM   22  C   UNL     1      -5.488  -3.163 -34.841  1.00  0.00     0.005 A 
HETATM   23  C   UNL     1      -6.660  -2.429 -34.668  1.00  0.00     0.030 A 
BRANCH  20  24
HETATM   24  O   UNL     1      -3.226  -1.663 -32.434  1.00  0.00    -0.356 OA
HETATM   25  C   UNL     1      -3.055  -0.401 -31.797  1.00  0.00     0.210 C 
ENDBRANCH  20  24
ENDBRANCH  16  18
ENDBRANCH  13  16
ENDBRANCH   8  13
BRANCH   1  26
HETATM   26  C   UNL     1      -2.875   5.666 -30.858  1.00  0.00     0.257 C 
HETATM   27  N   UNL     1      -1.763   4.888 -31.049  1.00  0.00    -0.357 N 
HETATM   28  H   UNL     1      -1.890   3.886 -31.203  1.00  0.00     0.162 HD
HETATM   29  O   UNL     1      -2.820   6.873 -30.641  1.00  0.00    -0.267 OA
BRANCH  27  30
HETATM   30  C   UNL     1      -0.419   5.422 -31.050  1.00  0.00     0.123 C 
BRANCH  30  31
HETATM   31  C   UNL     1       0.362   5.018 -29.802  1.00  0.00     0.019 C 
BRANCH  31  32
HETATM   32  C   UNL     1       0.239   6.079 -28.709  1.00  0.00    -0.003 C 
HETATM   33  C   UNL     1       0.581   7.465 -29.232  1.00  0.00     0.005 C 
ENDBRANCH  31  32
ENDBRANCH  30  31
ENDBRANCH  27  30
ENDBRANCH   1  26
TORSDOF 8
ENDMDL
MODEL 6
REMARK VINA RESULT:      -8.3      5.046      8.405
REMARK  8 active torsions:
REMARK  status: ('A' for Active; 'I' for Inactive)
REMARK    1  A    between atoms: C_2  and  C_3 
REMARK    2  A    between atoms: C_3  and  C_4 
REMARK    3  A    between atoms: C_4  and  N_5 
REMARK       I    between atoms: N_5  and  C_6 
REMARK    4  A    between atoms: C_6  and  C_7 
REMARK    5  A    between atoms: C_14  and  S_15 
REMARK    6  A    between atoms: S_15  and  N_16 
REMARK    7  A    between atoms: N_16  and  C_17 
REMARK    8  A    between atoms: C_19  and  O_20 
ROOT
HETATM    1  C   UNL     1      -5.829  -0.005 -32.137  1.00  0.00     0.098 A 
HETATM    2  C   UNL     1      -6.417   1.083 -32.970  1.00  0.00     0.201 A 
HETATM    3  O   UNL     1      -6.239   1.139 -34.185  1.00  0.00    -0.286 OA
HETATM    4  C   UNL     1      -7.226   2.129 -32.289  1.00  0.00     0.043 A 
HETATM    5  C   UNL     1      -7.398   2.058 -30.895  1.00  0.00     0.046 A 
HETATM    6  N   UNL     1      -6.793   1.022 -30.177  1.00  0.00    -0.364 N 
HETATM    7  C   UNL     1      -7.795   3.169 -33.032  1.00  0.00     0.043 A 
HETATM    8  C   UNL     1      -8.521   4.159 -32.365  1.00  0.00     0.081 A 
HETATM    9  C   UNL     1      -8.702   4.105 -30.980  1.00  0.00     0.027 A 
HETATM   10  C   UNL     1      -8.132   3.056 -30.248  1.00  0.00     0.032 A 
HETATM   11  C   UNL     1      -6.069   0.047 -30.815  1.00  0.00     0.109 A 
HETATM   12  H   UNL     1      -6.990   0.912 -29.188  1.00  0.00     0.165 HD
ENDROOT
BRANCH   8  13
HETATM   13  S   UNL     1      -9.252   5.474 -33.317  1.00  0.00     0.263 S 
HETATM   14  O   UNL     1      -9.040   6.699 -32.576  1.00  0.00    -0.200 OA
HETATM   15  O   UNL     1      -8.809   5.337 -34.688  1.00  0.00    -0.200 OA
BRANCH  13  16
HETATM   16  N   UNL     1     -10.903   5.131 -33.215  1.00  0.00    -0.281 N 
HETATM   17  H   UNL     1     -11.281   5.318 -32.289  1.00  0.00     0.179 HD
BRANCH  16  18
HETATM   18  C   UNL     1     -11.415   4.007 -33.922  1.00  0.00     0.045 A 
HETATM   19  C   UNL     1     -11.528   2.776 -33.271  1.00  0.00     0.066 A 
HETATM   20  C   UNL     1     -12.041   1.672 -33.953  1.00  0.00     0.070 A 
HETATM   21  C   UNL     1     -12.471   1.823 -35.274  1.00  0.00     0.037 A 
HETATM   22  C   UNL     1     -12.369   3.056 -35.918  1.00  0.00     0.005 A 
HETATM   23  C   UNL     1     -11.836   4.152 -35.243  1.00  0.00     0.030 A 
BRANCH  20  24
HETATM   24  O   UNL     1     -12.180   0.410 -33.445  1.00  0.00    -0.356 OA
HETATM   25  C   UNL     1     -13.416  -0.250 -33.701  1.00  0.00     0.210 C 
ENDBRANCH  20  24
ENDBRANCH  16  18
ENDBRANCH  13  16
ENDBRANCH   8  13
BRANCH   1  26
HETATM   26  C   UNL     1      -4.987  -1.118 -32.666  1.00  0.00     0.257 C 
HETATM   27  N   UNL     1      -5.352  -1.594 -33.899  1.00  0.00    -0.357 N 
HETATM   28  H   UNL     1      -6.174  -1.192 -34.352  1.00  0.00     0.162 HD
HETATM   29  O   UNL     1      -4.030  -1.555 -32.034  1.00  0.00    -0.267 OA
BRANCH  27  30
HETATM   30  C   UNL     1      -4.619  -2.632 -34.589  1.00  0.00     0.123 C 
BRANCH  30  31
HETATM   31  C   UNL     1      -5.473  -3.874 -34.831  1.00  0.00     0.019 C 
BRANCH  31  32
HETATM   32  C   UNL     1      -4.799  -5.123 -34.266  1.00  0.00    -0.003 C 
HETATM   33  C   UNL     1      -3.498  -4.786 -33.555  1.00  0.00     0.005 C 
ENDBRANCH  31  32
ENDBRANCH  30  31
ENDBRANCH  27  30
ENDBRANCH   1  26
TORSDOF 8
ENDMDL
MODEL 7
REMARK VINA RESULT:      -7.9      2.517      3.017
REMARK  8 active torsions:
REMARK  status: ('A' for Active; 'I' for Inactive)
REMARK    1  A    between atoms: C_2  and  C_3 
REMARK    2  A    between atoms: C_3  and  C_4 
REMARK    3  A    between atoms: C_4  and  N_5 
REMARK       I    between atoms: N_5  and  C_6 
REMARK    4  A    between atoms: C_6  and  C_7 
REMARK    5  A    between atoms: C_14  and  S_15 
REMARK    6  A    between atoms: S_15  and  N_16 
REMARK    7  A    between atoms: N_16  and  C_17 
REMARK    8  A    between atoms: C_19  and  O_20 
ROOT
HETATM    1  C   UNL     1      -3.842   6.233 -31.365  1.00  0.00     0.098 A 
HETATM    2  C   UNL     1      -4.962   5.399 -30.843  1.00  0.00     0.201 A 
HETATM    3  O   UNL     1      -5.218   5.332 -29.643  1.00  0.00    -0.286 OA
HETATM    4  C   UNL     1      -5.772   4.620 -31.820  1.00  0.00     0.043 A 
HETATM    5  C   UNL     1      -5.447   4.694 -33.185  1.00  0.00     0.046 A 
HETATM    6  N   UNL     1      -4.364   5.478 -33.597  1.00  0.00    -0.364 N 
HETATM    7  C   UNL     1      -6.831   3.824 -31.373  1.00  0.00     0.043 A 
HETATM    8  C   UNL     1      -7.554   3.074 -32.305  1.00  0.00     0.081 A 
HETATM    9  C   UNL     1      -7.246   3.135 -33.667  1.00  0.00     0.027 A 
HETATM   10  C   UNL     1      -6.187   3.941 -34.102  1.00  0.00     0.032 A 
HETATM   11  C   UNL     1      -3.639   6.212 -32.693  1.00  0.00     0.109 A 
HETATM   12  H   UNL     1      -4.185   5.609 -34.587  1.00  0.00     0.165 HD
ENDROOT
BRANCH   8  13
HETATM   13  S   UNL     1      -8.908   2.070 -31.733  1.00  0.00     0.263 S 
HETATM   14  O   UNL     1      -9.453   2.722 -30.563  1.00  0.00    -0.200 OA
HETATM   15  O   UNL     1      -9.741   1.748 -32.872  1.00  0.00    -0.200 OA
BRANCH  13  16
HETATM   16  N   UNL     1      -8.129   0.674 -31.186  1.00  0.00    -0.281 N 
HETATM   17  H   UNL     1      -7.923   0.711 -30.190  1.00  0.00     0.179 HD
BRANCH  16  18
HETATM   18  C   UNL     1      -7.175   0.044 -32.034  1.00  0.00     0.045 A 
HETATM   19  C   UNL     1      -5.849  -0.078 -31.611  1.00  0.00     0.066 A 
HETATM   20  C   UNL     1      -4.911  -0.705 -32.429  1.00  0.00     0.070 A 
HETATM   21  C   UNL     1      -5.321  -1.241 -33.653  1.00  0.00     0.037 A 
HETATM   22  C   UNL     1      -6.648  -1.131 -34.069  1.00  0.00     0.005 A 
HETATM   23  C   UNL     1      -7.579  -0.483 -33.260  1.00  0.00     0.030 A 
BRANCH  20  24
HETATM   24  O   UNL     1      -3.582  -0.866 -32.149  1.00  0.00    -0.356 OA
HETATM   25  C   UNL     1      -3.024   0.013 -31.176  1.00  0.00     0.210 C 
ENDBRANCH  20  24
ENDBRANCH  16  18
ENDBRANCH  13  16
ENDBRANCH   8  13
BRANCH   1  26
HETATM   26  C   UNL     1      -2.934   7.060 -30.518  1.00  0.00     0.257 C 
HETATM   27  N   UNL     1      -2.020   6.355 -29.777  1.00  0.00    -0.357 N 
HETATM   28  H   UNL     1      -2.040   5.335 -29.823  1.00  0.00     0.162 HD
HETATM   29  O   UNL     1      -3.004   8.286 -30.507  1.00  0.00    -0.267 OA
BRANCH  27  30
HETATM   30  C   UNL     1      -1.027   6.991 -28.940  1.00  0.00     0.123 C 
BRANCH  30  31
HETATM   31  C   UNL     1       0.340   7.052 -29.616  1.00  0.00     0.019 C 
BRANCH  31  32
HETATM   32  C   UNL     1       0.337   6.277 -30.933  1.00  0.00    -0.003 C 
HETATM   33  C   UNL     1       1.096   4.966 -30.815  1.00  0.00     0.005 C 
ENDBRANCH  31  32
ENDBRANCH  30  31
ENDBRANCH  27  30
ENDBRANCH   1  26
TORSDOF 8
ENDMDL
MODEL 8
REMARK VINA RESULT:      -7.9      4.827      7.300
REMARK  8 active torsions:
REMARK  status: ('A' for Active; 'I' for Inactive)
REMARK    1  A    between atoms: C_2  and  C_3 
REMARK    2  A    between atoms: C_3  and  C_4 
REMARK    3  A    between atoms: C_4  and  N_5 
REMARK       I    between atoms: N_5  and  C_6 
REMARK    4  A    between atoms: C_6  and  C_7 
REMARK    5  A    between atoms: C_14  and  S_15 
REMARK    6  A    between atoms: S_15  and  N_16 
REMARK    7  A    between atoms: N_16  and  C_17 
REMARK    8  A    between atoms: C_19  and  O_20 
ROOT
HETATM    1  C   UNL     1      -1.217   7.238 -27.032  1.00  0.00     0.098 A 
HETATM    2  C   UNL     1      -1.738   7.555 -28.392  1.00  0.00     0.201 A 
HETATM    3  O   UNL     1      -2.625   8.387 -28.569  1.00  0.00    -0.286 OA
HETATM    4  C   UNL     1      -1.164   6.822 -29.553  1.00  0.00     0.043 A 
HETATM    5  C   UNL     1      -0.166   5.859 -29.323  1.00  0.00     0.046 A 
HETATM    6  N   UNL     1       0.254   5.596 -28.015  1.00  0.00    -0.364 N 
HETATM    7  C   UNL     1      -1.625   7.088 -30.846  1.00  0.00     0.043 A 
HETATM    8  C   UNL     1      -1.096   6.361 -31.916  1.00  0.00     0.081 A 
HETATM    9  C   UNL     1      -0.103   5.399 -31.707  1.00  0.00     0.027 A 
HETATM   10  C   UNL     1       0.354   5.147 -30.408  1.00  0.00     0.032 A 
HETATM   11  C   UNL     1      -0.263   6.294 -26.953  1.00  0.00     0.109 A 
HETATM   12  H   UNL     1       1.037   4.972 -27.853  1.00  0.00     0.165 HD
ENDROOT
BRANCH   8  13
HETATM   13  S   UNL     1      -1.678   6.710 -33.561  1.00  0.00     0.263 S 
HETATM   14  O   UNL     1      -1.737   8.150 -33.691  1.00  0.00    -0.200 OA
HETATM   15  O   UNL     1      -0.917   5.901 -34.489  1.00  0.00    -0.200 OA
BRANCH  13  16
HETATM   16  N   UNL     1      -3.277   6.167 -33.512  1.00  0.00    -0.281 N 
HETATM   17  H   UNL     1      -3.947   6.934 -33.509  1.00  0.00     0.179 HD
BRANCH  16  18
HETATM   18  C   UNL     1      -3.587   5.016 -32.734  1.00  0.00     0.045 A 
HETATM   19  C   UNL     1      -4.486   5.125 -31.670  1.00  0.00     0.066 A 
HETATM   20  C   UNL     1      -4.806   4.001 -30.909  1.00  0.00     0.070 A 
HETATM   21  C   UNL     1      -4.247   2.765 -31.248  1.00  0.00     0.037 A 
HETATM   22  C   UNL     1      -3.360   2.655 -32.319  1.00  0.00     0.005 A 
HETATM   23  C   UNL     1      -3.024   3.784 -33.063  1.00  0.00     0.030 A 
BRANCH  20  24
HETATM   24  O   UNL     1      -5.645   3.974 -29.830  1.00  0.00    -0.356 OA
HETATM   25  C   UNL     1      -6.833   3.200 -29.963  1.00  0.00     0.210 C 
ENDBRANCH  20  24
ENDBRANCH  16  18
ENDBRANCH  13  16
ENDBRANCH   8  13
BRANCH   1  26
HETATM   26  C   UNL     1      -1.695   7.875 -25.770  1.00  0.00     0.257 C 
HETATM   27  N   UNL     1      -0.965   8.955 -25.346  1.00  0.00    -0.357 N 
HETATM   28  H   UNL     1      -0.142   9.229 -25.885  1.00  0.00     0.162 HD
HETATM   29  O   UNL     1      -2.683   7.457 -25.173  1.00  0.00    -0.267 OA
BRANCH  27  30
HETATM   30  C   UNL     1      -1.312   9.729 -24.174  1.00  0.00     0.123 C 
BRANCH  30  31
HETATM   31  C   UNL     1      -0.181  10.659 -23.743  1.00  0.00     0.019 C 
BRANCH  31  32
HETATM   32  C   UNL     1       0.455  10.183 -22.439  1.00  0.00    -0.003 C 
HETATM   33  C   UNL     1       1.911   9.791 -22.634  1.00  0.00     0.005 C 
ENDBRANCH  31  32
ENDBRANCH  30  31
ENDBRANCH  27  30
ENDBRANCH   1  26
TORSDOF 8
ENDMDL
MODEL 9
REMARK VINA RESULT:      -7.8      4.174      9.782
REMARK  8 active torsions:
REMARK  status: ('A' for Active; 'I' for Inactive)
REMARK    1  A    between atoms: C_2  and  C_3 
REMARK    2  A    between atoms: C_3  and  C_4 
REMARK    3  A    between atoms: C_4  and  N_5 
REMARK       I    between atoms: N_5  and  C_6 
REMARK    4  A    between atoms: C_6  and  C_7 
REMARK    5  A    between atoms: C_14  and  S_15 
REMARK    6  A    between atoms: S_15  and  N_16 
REMARK    7  A    between atoms: N_16  and  C_17 
REMARK    8  A    between atoms: C_19  and  O_20 
ROOT
HETATM    1  C   UNL     1     -10.236   1.700 -33.129  1.00  0.00     0.098 A 
HETATM    2  C   UNL     1      -9.060   2.534 -32.752  1.00  0.00     0.201 A 
HETATM    3  O   UNL     1      -9.141   3.754 -32.629  1.00  0.00    -0.286 OA
HETATM    4  C   UNL     1      -7.755   1.851 -32.537  1.00  0.00     0.043 A 
HETATM    5  C   UNL     1      -7.681   0.457 -32.705  1.00  0.00     0.046 A 
HETATM    6  N   UNL     1      -8.822  -0.255 -33.087  1.00  0.00    -0.364 N 
HETATM    7  C   UNL     1      -6.625   2.595 -32.183  1.00  0.00     0.043 A 
HETATM    8  C   UNL     1      -5.404   1.936 -32.022  1.00  0.00     0.081 A 
HETATM    9  C   UNL     1      -5.310   0.551 -32.184  1.00  0.00     0.027 A 
HETATM   10  C   UNL     1      -6.450  -0.184 -32.533  1.00  0.00     0.032 A 
HETATM   11  C   UNL     1     -10.026   0.379 -33.259  1.00  0.00     0.109 A 
HETATM   12  H   UNL     1      -8.797  -1.268 -33.117  1.00  0.00     0.165 HD
ENDROOT
BRANCH   8  13
HETATM   13  S   UNL     1      -3.971   2.886 -31.560  1.00  0.00     0.263 S 
HETATM   14  O   UNL     1      -4.434   3.968 -30.719  1.00  0.00    -0.200 OA
HETATM   15  O   UNL     1      -2.948   1.967 -31.110  1.00  0.00    -0.200 OA
BRANCH  13  16
HETATM   16  N   UNL     1      -3.502   3.584 -33.025  1.00  0.00    -0.281 N 
HETATM   17  H   UNL     1      -3.313   2.888 -33.744  1.00  0.00     0.179 HD
BRANCH  16  18
HETATM   18  C   UNL     1      -2.680   4.746 -33.000  1.00  0.00     0.045 A 
HETATM   19  C   UNL     1      -1.543   4.769 -32.190  1.00  0.00     0.066 A 
HETATM   20  C   UNL     1      -0.725   5.899 -32.168  1.00  0.00     0.070 A 
HETATM   21  C   UNL     1      -1.036   6.984 -32.991  1.00  0.00     0.037 A 
HETATM   22  C   UNL     1      -2.165   6.955 -33.811  1.00  0.00     0.005 A 
HETATM   23  C   UNL     1      -2.994   5.835 -33.814  1.00  0.00     0.030 A 
BRANCH  20  24
HETATM   24  O   UNL     1       0.397   6.062 -31.403  1.00  0.00    -0.356 OA
HETATM   25  C   UNL     1       0.357   7.094 -30.423  1.00  0.00     0.210 C 
ENDBRANCH  20  24
ENDBRANCH  16  18
ENDBRANCH  13  16
ENDBRANCH   8  13
BRANCH   1  26
HETATM   26  C   UNL     1     -11.606   2.233 -33.390  1.00  0.00     0.257 C 
HETATM   27  N   UNL     1     -12.100   3.076 -32.428  1.00  0.00    -0.357 N 
HETATM   28  H   UNL     1     -11.531   3.255 -31.599  1.00  0.00     0.162 HD
HETATM   29  O   UNL     1     -12.227   1.939 -34.407  1.00  0.00    -0.267 OA
BRANCH  27  30
HETATM   30  C   UNL     1     -13.386   3.728 -32.538  1.00  0.00     0.123 C 
BRANCH  30  31
HETATM   31  C   UNL     1     -14.401   3.169 -31.544  1.00  0.00     0.019 C 
BRANCH  31  32
HETATM   32  C   UNL     1     -15.260   2.083 -32.189  1.00  0.00    -0.003 C 
HETATM   33  C   UNL     1     -16.734   2.453 -32.178  1.00  0.00     0.005 C 
ENDBRANCH  31  32
ENDBRANCH  30  31
ENDBRANCH  27  30
ENDBRANCH   1  26
TORSDOF 8
ENDMDL
MODEL 10
REMARK VINA RESULT:      -7.7      4.452      9.370
REMARK  8 active torsions:
REMARK  status: ('A' for Active; 'I' for Inactive)
REMARK    1  A    between atoms: C_2  and  C_3 
REMARK    2  A    between atoms: C_3  and  C_4 
REMARK    3  A    between atoms: C_4  and  N_5 
REMARK       I    between atoms: N_5  and  C_6 
REMARK    4  A    between atoms: C_6  and  C_7 
REMARK    5  A    between atoms: C_14  and  S_15 
REMARK    6  A    between atoms: S_15  and  N_16 
REMARK    7  A    between atoms: N_16  and  C_17 
REMARK    8  A    between atoms: C_19  and  O_20 
ROOT
HETATM    1  C   UNL     1      -4.736  -0.479 -32.717  1.00  0.00     0.098 A 
HETATM    2  C   UNL     1      -6.199  -0.415 -32.996  1.00  0.00     0.201 A 
HETATM    3  O   UNL     1      -6.860  -1.423 -33.237  1.00  0.00    -0.286 OA
HETATM    4  C   UNL     1      -6.856   0.921 -32.994  1.00  0.00     0.043 A 
HETATM    5  C   UNL     1      -6.076   2.062 -32.738  1.00  0.00     0.046 A 
HETATM    6  N   UNL     1      -4.703   1.925 -32.512  1.00  0.00    -0.364 N 
HETATM    7  C   UNL     1      -8.226   1.028 -33.251  1.00  0.00     0.043 A 
HETATM    8  C   UNL     1      -8.813   2.295 -33.279  1.00  0.00     0.081 A 
HETATM    9  C   UNL     1      -8.054   3.442 -33.027  1.00  0.00     0.027 A 
HETATM   10  C   UNL     1      -6.684   3.321 -32.764  1.00  0.00     0.032 A 
HETATM   11  C   UNL     1      -4.110   0.688 -32.491  1.00  0.00     0.109 A 
HETATM   12  H   UNL     1      -4.155   2.732 -32.234  1.00  0.00     0.165 HD
ENDROOT
BRANCH   8  13
HETATM   13  S   UNL     1     -10.560   2.425 -33.597  1.00  0.00     0.263 S 
HETATM   14  O   UNL     1     -11.076   1.076 -33.676  1.00  0.00    -0.200 OA
HETATM   15  O   UNL     1     -11.114   3.391 -32.673  1.00  0.00    -0.200 OA
BRANCH  13  16
HETATM   16  N   UNL     1     -10.605   3.049 -35.166  1.00  0.00    -0.281 N 
HETATM   17  H   UNL     1      -9.829   2.719 -35.737  1.00  0.00     0.179 HD
BRANCH  16  18
HETATM   18  C   UNL     1     -11.042   4.390 -35.360  1.00  0.00     0.045 A 
HETATM   19  C   UNL     1     -12.401   4.651 -35.549  1.00  0.00     0.066 A 
HETATM   20  C   UNL     1     -12.840   5.963 -35.727  1.00  0.00     0.070 A 
HETATM   21  C   UNL     1     -11.913   7.008 -35.675  1.00  0.00     0.037 A 
HETATM   22  C   UNL     1     -10.558   6.746 -35.472  1.00  0.00     0.005 A 
HETATM   23  C   UNL     1     -10.118   5.433 -35.318  1.00  0.00     0.030 A 
BRANCH  20  24
HETATM   24  O   UNL     1     -14.133   6.353 -35.948  1.00  0.00    -0.356 OA
HETATM   25  C   UNL     1     -14.319   7.569 -36.665  1.00  0.00     0.210 C 
ENDBRANCH  20  24
ENDBRANCH  16  18
ENDBRANCH  13  16
ENDBRANCH   8  13
BRANCH   1  26
HETATM   26  C   UNL     1      -3.931  -1.736 -32.695  1.00  0.00     0.257 C 
HETATM   27  N   UNL     1      -4.374  -2.730 -33.529  1.00  0.00    -0.357 N 
HETATM   28  H   UNL     1      -5.222  -2.568 -34.073  1.00  0.00     0.162 HD
HETATM   29  O   UNL     1      -2.937  -1.850 -31.984  1.00  0.00    -0.267 OA
BRANCH  27  30
HETATM   30  C   UNL     1      -3.689  -3.995 -33.678  1.00  0.00     0.123 C 
BRANCH  30  31
HETATM   31  C   UNL     1      -4.569  -5.052 -34.341  1.00  0.00     0.019 C 
BRANCH  31  32
HETATM   32  C   UNL     1      -6.029  -4.600 -34.386  1.00  0.00    -0.003 C 
HETATM   33  C   UNL     1      -6.579  -4.621 -35.802  1.00  0.00     0.005 C 
ENDBRANCH  31  32
ENDBRANCH  30  31
ENDBRANCH  27  30
ENDBRANCH   1  26
TORSDOF 8
ENDMDL
