MODEL 1
REMARK VINA RESULT:      -9.1      0.000      0.000
REMARK  4 active torsions:
REMARK  status: ('A' for Active; 'I' for Inactive)
REMARK    1  A    between atoms: C_3  and  C_4 
REMARK    2  A    between atoms: C_4  and  N_5 
REMARK    3  A    between atoms: N_8  and  C_10 
REMARK    4  A    between atoms: C_10  and  C_11 
ROOT
HETATM    1  N   UNL     1     -10.338   1.866 -33.723  1.00  0.00    -0.405 N 
HETATM    2  C   UNL     1      -9.151   2.533 -34.263  1.00  0.00     0.150 C 
HETATM    3  C   UNL     1      -7.842   2.612 -33.436  1.00  0.00     0.206 C 
HETATM    4  N   UNL     1      -7.127   1.268 -33.276  1.00  0.00    -0.061 N 
HETATM    5  H   UNL     1      -6.210   1.531 -32.893  1.00  0.00     0.280 HD
HETATM    6  C   UNL     1      -7.731   0.347 -32.253  1.00  0.00     0.242 C 
HETATM    7  C   UNL     1      -9.048   0.876 -31.708  1.00  0.00     0.029 C 
HETATM    8  C   UNL     1     -10.160   0.778 -32.768  1.00  0.00     0.123 C 
HETATM    9  C   UNL     1      -8.069   3.202 -32.040  1.00  0.00     0.035 C 
HETATM   10  C   UNL     1      -8.856   2.273 -31.114  1.00  0.00     0.010 C 
ENDROOT
BRANCH   4  11
HETATM   11  C   UNL     1      -6.769   0.548 -34.561  1.00  0.00     0.274 C 
BRANCH  11  12
HETATM   12  C   UNL     1      -6.007  -0.729 -34.340  1.00  0.00    -0.032 A 
HETATM   13  C   UNL     1      -6.542  -1.944 -34.816  1.00  0.00     0.022 A 
HETATM   14  C   UNL     1      -5.824  -3.142 -34.639  1.00  0.00    -0.008 A 
HETATM   15  C   UNL     1      -4.598  -3.098 -33.981  1.00  0.00     0.042 A 
HETATM   16  C   UNL     1      -6.057  -4.493 -35.011  1.00  0.00     0.030 A 
HETATM   17  N   UNL     1      -4.105  -4.385 -33.959  1.00  0.00    -0.365 N 
HETATM   18  C   UNL     1      -4.049  -1.912 -33.485  1.00  0.00     0.031 A 
HETATM   19  H   UNL     1      -3.217  -4.658 -33.556  1.00  0.00     0.165 HD
HETATM   20  C   UNL     1      -4.981  -5.235 -34.581  1.00  0.00     0.089 A 
HETATM   21  C   UNL     1      -4.773  -0.729 -33.678  1.00  0.00     0.011 A 
ENDBRANCH  11  12
ENDBRANCH   4  11
BRANCH   1  22
HETATM   22  C   UNL     1     -11.427   2.792 -33.332  1.00  0.00     0.176 C 
BRANCH  22  23
HETATM   23  C   UNL     1     -12.829   2.220 -33.446  1.00  0.00     0.051 A 
HETATM   24  C   UNL     1     -13.140   1.287 -34.433  1.00  0.00     0.029 A 
HETATM   25  C   UNL     1     -14.430   0.762 -34.476  1.00  0.00     0.003 A 
HETATM   26  C   UNL     1     -15.364   1.173 -33.534  1.00  0.00     0.019 A 
HETATM   27  C   UNL     1     -14.977   2.111 -32.592  1.00  0.00     0.117 A 
HETATM   28  N   UNL     1     -13.739   2.653 -32.537  1.00  0.00    -0.264 NA
ENDBRANCH  22  23
ENDBRANCH   1  22
TORSDOF 4
ENDMDL
MODEL 2
REMARK VINA RESULT:      -8.7      3.874      7.838
REMARK  4 active torsions:
REMARK  status: ('A' for Active; 'I' for Inactive)
REMARK    1  A    between atoms: C_3  and  C_4 
REMARK    2  A    between atoms: C_4  and  N_5 
REMARK    3  A    between atoms: N_8  and  C_10 
REMARK    4  A    between atoms: C_10  and  C_11 
ROOT
HETATM    1  N   UNL     1      -5.579  -0.111 -33.116  1.00  0.00    -0.405 N 
HETATM    2  C   UNL     1      -5.333   1.311 -33.371  1.00  0.00     0.150 C 
HETATM    3  C   UNL     1      -6.188   2.400 -32.674  1.00  0.00     0.206 C 
HETATM    4  N   UNL     1      -5.923   2.530 -31.173  1.00  0.00    -0.061 N 
HETATM    5  H   UNL     1      -6.405   3.402 -30.921  1.00  0.00     0.280 HD
HETATM    6  C   UNL     1      -6.563   1.468 -30.322  1.00  0.00     0.242 C 
HETATM    7  C   UNL     1      -7.202   0.370 -31.156  1.00  0.00     0.029 C 
HETATM    8  C   UNL     1      -6.128  -0.508 -31.825  1.00  0.00     0.123 C 
HETATM    9  C   UNL     1      -7.690   2.180 -32.877  1.00  0.00     0.035 C 
HETATM   10  C   UNL     1      -8.229   0.965 -32.122  1.00  0.00     0.010 C 
ENDROOT
BRANCH   4  11
HETATM   11  C   UNL     1      -4.487   2.802 -30.771  1.00  0.00     0.274 C 
BRANCH  11  12
HETATM   12  C   UNL     1      -3.922   4.056 -31.379  1.00  0.00    -0.032 A 
HETATM   13  C   UNL     1      -2.836   3.962 -32.273  1.00  0.00     0.022 A 
HETATM   14  C   UNL     1      -2.316   5.126 -32.869  1.00  0.00    -0.008 A 
HETATM   15  C   UNL     1      -2.887   6.355 -32.549  1.00  0.00     0.042 A 
HETATM   16  C   UNL     1      -1.277   5.374 -33.806  1.00  0.00     0.030 A 
HETATM   17  N   UNL     1      -2.213   7.315 -33.273  1.00  0.00    -0.365 N 
HETATM   18  C   UNL     1      -3.955   6.482 -31.655  1.00  0.00     0.031 A 
HETATM   19  H   UNL     1      -2.420   8.306 -33.254  1.00  0.00     0.165 HD
HETATM   20  C   UNL     1      -1.238   6.730 -34.037  1.00  0.00     0.089 A 
HETATM   21  C   UNL     1      -4.464   5.312 -31.079  1.00  0.00     0.011 A 
ENDBRANCH  11  12
ENDBRANCH   4  11
BRANCH   1  22
HETATM   22  C   UNL     1      -6.212  -0.828 -34.248  1.00  0.00     0.176 C 
BRANCH  22  23
HETATM   23  C   UNL     1      -5.854  -2.299 -34.357  1.00  0.00     0.051 A 
HETATM   24  C   UNL     1      -6.813  -3.241 -34.725  1.00  0.00     0.029 A 
HETATM   25  C   UNL     1      -6.431  -4.574 -34.848  1.00  0.00     0.003 A 
HETATM   26  C   UNL     1      -5.108  -4.928 -34.611  1.00  0.00     0.019 A 
HETATM   27  C   UNL     1      -4.220  -3.933 -34.242  1.00  0.00     0.117 A 
HETATM   28  N   UNL     1      -4.564  -2.634 -34.095  1.00  0.00    -0.264 NA
ENDBRANCH  22  23
ENDBRANCH   1  22
TORSDOF 4
ENDMDL
MODEL 3
REMARK VINA RESULT:      -8.7      3.750      6.911
REMARK  4 active torsions:
REMARK  status: ('A' for Active; 'I' for Inactive)
REMARK    1  A    between atoms: C_3  and  C_4 
REMARK    2  A    between atoms: C_4  and  N_5 
REMARK    3  A    between atoms: N_8  and  C_10 
REMARK    4  A    between atoms: C_10  and  C_11 
ROOT
HETATM    1  N   UNL     1      -4.824   3.400 -32.323  1.00  0.00    -0.405 N 
HETATM    2  C   UNL     1      -4.329   2.021 -32.326  1.00  0.00     0.150 C 
HETATM    3  C   UNL     1      -5.160   0.879 -31.689  1.00  0.00     0.206 C 
HETATM    4  N   UNL     1      -6.426   0.523 -32.471  1.00  0.00    -0.061 N 
HETATM    5  H   UNL     1      -6.735  -0.356 -32.036  1.00  0.00     0.280 HD
HETATM    6  C   UNL     1      -7.574   1.476 -32.287  1.00  0.00     0.242 C 
HETATM    7  C   UNL     1      -7.177   2.709 -31.491  1.00  0.00     0.029 C 
HETATM    8  C   UNL     1      -6.264   3.629 -32.322  1.00  0.00     0.123 C 
HETATM    9  C   UNL     1      -5.562   1.188 -30.243  1.00  0.00     0.035 C 
HETATM   10  C   UNL     1      -6.603   2.303 -30.132  1.00  0.00     0.010 C 
ENDROOT
BRANCH   4  11
HETATM   11  C   UNL     1      -6.225   0.136 -33.923  1.00  0.00     0.274 C 
BRANCH  11  12
HETATM   12  C   UNL     1      -5.917  -1.322 -34.117  1.00  0.00    -0.032 A 
HETATM   13  C   UNL     1      -4.720  -1.851 -33.593  1.00  0.00     0.022 A 
HETATM   14  C   UNL     1      -4.433  -3.221 -33.745  1.00  0.00    -0.008 A 
HETATM   15  C   UNL     1      -5.344  -4.025 -34.426  1.00  0.00     0.042 A 
HETATM   16  C   UNL     1      -3.362  -4.056 -33.327  1.00  0.00     0.030 A 
HETATM   17  N   UNL     1      -4.838  -5.307 -34.416  1.00  0.00    -0.365 N 
HETATM   18  C   UNL     1      -6.533  -3.527 -34.969  1.00  0.00     0.031 A 
HETATM   19  H   UNL     1      -5.294  -6.113 -34.827  1.00  0.00     0.165 HD
HETATM   20  C   UNL     1      -3.639  -5.335 -33.753  1.00  0.00     0.089 A 
HETATM   21  C   UNL     1      -6.804  -2.164 -34.800  1.00  0.00     0.011 A 
ENDBRANCH  11  12
ENDBRANCH   4  11
BRANCH   1  22
HETATM   22  C   UNL     1      -4.105   4.299 -31.390  1.00  0.00     0.176 C 
BRANCH  22  23
HETATM   23  C   UNL     1      -3.014   5.143 -32.022  1.00  0.00     0.051 A 
HETATM   24  C   UNL     1      -1.695   5.052 -31.580  1.00  0.00     0.029 A 
HETATM   25  C   UNL     1      -0.721   5.818 -32.214  1.00  0.00     0.003 A 
HETATM   26  C   UNL     1      -1.084   6.641 -33.273  1.00  0.00     0.019 A 
HETATM   27  C   UNL     1      -2.417   6.680 -33.646  1.00  0.00     0.117 A 
HETATM   28  N   UNL     1      -3.389   5.964 -33.037  1.00  0.00    -0.264 NA
ENDBRANCH  22  23
ENDBRANCH   1  22
TORSDOF 4
ENDMDL
MODEL 4
REMARK VINA RESULT:      -8.4      6.931     10.191
REMARK  4 active torsions:
REMARK  status: ('A' for Active; 'I' for Inactive)
REMARK    1  A    between atoms: C_3  and  C_4 
REMARK    2  A    between atoms: C_4  and  N_5 
REMARK    3  A    between atoms: N_8  and  C_10 
REMARK    4  A    between atoms: C_10  and  C_11 
ROOT
HETATM    1  N   UNL     1      -1.308   6.149 -30.442  1.00  0.00    -0.405 N 
HETATM    2  C   UNL     1      -2.709   6.511 -30.675  1.00  0.00     0.150 C 
HETATM    3  C   UNL     1      -3.321   6.438 -32.097  1.00  0.00     0.206 C 
HETATM    4  N   UNL     1      -3.508   5.011 -32.619  1.00  0.00    -0.061 N 
HETATM    5  H   UNL     1      -4.090   5.139 -33.456  1.00  0.00     0.280 HD
HETATM    6  C   UNL     1      -2.252   4.348 -33.112  1.00  0.00     0.242 C 
HETATM    7  C   UNL     1      -1.011   5.177 -32.824  1.00  0.00     0.029 C 
HETATM    8  C   UNL     1      -0.682   5.168 -31.319  1.00  0.00     0.123 C 
HETATM    9  C   UNL     1      -2.499   7.220 -33.126  1.00  0.00     0.035 C 
HETATM   10  C   UNL     1      -1.148   6.572 -33.436  1.00  0.00     0.010 C 
ENDROOT
BRANCH   4  11
HETATM   11  C   UNL     1      -4.345   4.090 -31.754  1.00  0.00     0.274 C 
BRANCH  11  12
HETATM   12  C   UNL     1      -4.953   2.945 -32.513  1.00  0.00    -0.032 A 
HETATM   13  C   UNL     1      -4.510   1.631 -32.254  1.00  0.00     0.022 A 
HETATM   14  C   UNL     1      -5.091   0.548 -32.939  1.00  0.00    -0.008 A 
HETATM   15  C   UNL     1      -6.093   0.804 -33.872  1.00  0.00     0.042 A 
HETATM   16  C   UNL     1      -4.902  -0.860 -32.897  1.00  0.00     0.030 A 
HETATM   17  N   UNL     1      -6.497  -0.414 -34.376  1.00  0.00    -0.365 N 
HETATM   18  C   UNL     1      -6.544   2.096 -34.160  1.00  0.00     0.031 A 
HETATM   19  H   UNL     1      -7.226  -0.541 -35.067  1.00  0.00     0.165 HD
HETATM   20  C   UNL     1      -5.782  -1.426 -33.791  1.00  0.00     0.089 A 
HETATM   21  C   UNL     1      -5.959   3.160 -33.463  1.00  0.00     0.011 A 
ENDBRANCH  11  12
ENDBRANCH   4  11
BRANCH   1  22
HETATM   22  C   UNL     1      -0.425   7.304 -30.159  1.00  0.00     0.176 C 
BRANCH  22  23
HETATM   23  C   UNL     1       0.131   7.357 -28.747  1.00  0.00     0.051 A 
HETATM   24  C   UNL     1       1.142   8.255 -28.412  1.00  0.00     0.029 A 
HETATM   25  C   UNL     1       1.595   8.293 -27.095  1.00  0.00     0.003 A 
HETATM   26  C   UNL     1       1.025   7.445 -26.154  1.00  0.00     0.019 A 
HETATM   27  C   UNL     1       0.032   6.576 -26.571  1.00  0.00     0.117 A 
HETATM   28  N   UNL     1      -0.416   6.502 -27.845  1.00  0.00    -0.264 NA
ENDBRANCH  22  23
ENDBRANCH   1  22
TORSDOF 4
ENDMDL
MODEL 5
REMARK VINA RESULT:      -8.4      3.473      8.399
REMARK  4 active torsions:
REMARK  status: ('A' for Active; 'I' for Inactive)
REMARK    1  A    between atoms: C_3  and  C_4 
REMARK    2  A    between atoms: C_4  and  N_5 
REMARK    3  A    between atoms: N_8  and  C_10 
REMARK    4  A    between atoms: C_10  and  C_11 
ROOT
HETATM    1  N   UNL     1      -5.160   2.932 -32.311  1.00  0.00    -0.405 N 
HETATM    2  C   UNL     1      -5.541   1.675 -32.961  1.00  0.00     0.150 C 
HETATM    3  C   UNL     1      -6.662   0.783 -32.366  1.00  0.00     0.206 C 
HETATM    4  N   UNL     1      -8.064   1.382 -32.496  1.00  0.00    -0.061 N 
HETATM    5  H   UNL     1      -8.680   0.598 -32.245  1.00  0.00     0.280 HD
HETATM    6  C   UNL     1      -8.384   2.465 -31.504  1.00  0.00     0.242 C 
HETATM    7  C   UNL     1      -7.172   2.871 -30.682  1.00  0.00     0.029 C 
HETATM    8  C   UNL     1      -6.163   3.656 -31.541  1.00  0.00     0.123 C 
HETATM    9  C   UNL     1      -6.418   0.448 -30.891  1.00  0.00     0.035 C 
HETATM   10  C   UNL     1      -6.584   1.654 -29.964  1.00  0.00     0.010 C 
ENDROOT
BRANCH   4  11
HETATM   11  C   UNL     1      -8.510   1.735 -33.900  1.00  0.00     0.274 C 
BRANCH  11  12
HETATM   12  C   UNL     1     -10.001   1.860 -34.042  1.00  0.00    -0.032 A 
HETATM   13  C   UNL     1     -10.819   0.750 -33.743  1.00  0.00     0.022 A 
HETATM   14  C   UNL     1     -12.218   0.862 -33.846  1.00  0.00    -0.008 A 
HETATM   15  C   UNL     1     -12.765   2.076 -34.255  1.00  0.00     0.042 A 
HETATM   16  C   UNL     1     -13.298  -0.027 -33.600  1.00  0.00     0.030 A 
HETATM   17  N   UNL     1     -14.134   1.923 -34.254  1.00  0.00    -0.365 N 
HETATM   18  C   UNL     1     -11.980   3.189 -34.573  1.00  0.00     0.031 A 
HETATM   19  H   UNL     1     -14.798   2.648 -34.496  1.00  0.00     0.165 HD
HETATM   20  C   UNL     1     -14.466   0.654 -33.858  1.00  0.00     0.089 A 
HETATM   21  C   UNL     1     -10.591   3.061 -34.456  1.00  0.00     0.011 A 
ENDBRANCH  11  12
ENDBRANCH   4  11
BRANCH   1  22
HETATM   22  C   UNL     1      -3.845   2.886 -31.631  1.00  0.00     0.176 C 
BRANCH  22  23
HETATM   23  C   UNL     1      -2.805   3.847 -32.179  1.00  0.00     0.051 A 
HETATM   24  C   UNL     1      -2.888   4.319 -33.488  1.00  0.00     0.029 A 
HETATM   25  C   UNL     1      -1.933   5.227 -33.935  1.00  0.00     0.003 A 
HETATM   26  C   UNL     1      -0.932   5.645 -33.067  1.00  0.00     0.019 A 
HETATM   27  C   UNL     1      -0.915   5.123 -31.785  1.00  0.00     0.117 A 
HETATM   28  N   UNL     1      -1.816   4.224 -31.328  1.00  0.00    -0.264 NA
ENDBRANCH  22  23
ENDBRANCH   1  22
TORSDOF 4
ENDMDL
MODEL 6
REMARK VINA RESULT:      -8.4      1.392      7.904
REMARK  4 active torsions:
REMARK  status: ('A' for Active; 'I' for Inactive)
REMARK    1  A    between atoms: C_3  and  C_4 
REMARK    2  A    between atoms: C_4  and  N_5 
REMARK    3  A    between atoms: N_8  and  C_10 
REMARK    4  A    between atoms: C_10  and  C_11 
ROOT
HETATM    1  N   UNL     1      -7.286   0.724 -33.732  1.00  0.00    -0.405 N 
HETATM    2  C   UNL     1      -8.636   0.848 -33.177  1.00  0.00     0.150 C 
HETATM    3  C   UNL     1      -9.075   2.140 -32.441  1.00  0.00     0.206 C 
HETATM    4  N   UNL     1      -9.243   3.351 -33.360  1.00  0.00    -0.061 N 
HETATM    5  H   UNL     1      -9.716   4.039 -32.762  1.00  0.00     0.280 HD
HETATM    6  C   UNL     1      -7.958   4.012 -33.778  1.00  0.00     0.242 C 
HETATM    7  C   UNL     1      -6.735   3.223 -33.338  1.00  0.00     0.029 C 
HETATM    8  C   UNL     1      -6.590   1.930 -34.162  1.00  0.00     0.123 C 
HETATM    9  C   UNL     1      -8.111   2.524 -31.314  1.00  0.00     0.035 C 
HETATM   10  C   UNL     1      -6.754   3.013 -31.822  1.00  0.00     0.010 C 
ENDROOT
BRANCH   4  11
HETATM   11  C   UNL     1     -10.206   3.180 -34.518  1.00  0.00     0.274 C 
BRANCH  11  12
HETATM   12  C   UNL     1     -11.532   2.601 -34.113  1.00  0.00    -0.032 A 
HETATM   13  C   UNL     1     -12.303   3.259 -33.133  1.00  0.00     0.022 A 
HETATM   14  C   UNL     1     -13.560   2.741 -32.765  1.00  0.00    -0.008 A 
HETATM   15  C   UNL     1     -14.009   1.574 -33.377  1.00  0.00     0.042 A 
HETATM   16  C   UNL     1     -14.571   3.160 -31.859  1.00  0.00     0.030 A 
HETATM   17  N   UNL     1     -15.255   1.298 -32.857  1.00  0.00    -0.365 N 
HETATM   18  C   UNL     1     -13.261   0.891 -34.341  1.00  0.00     0.031 A 
HETATM   19  H   UNL     1     -15.834   0.513 -33.126  1.00  0.00     0.165 HD
HETATM   20  C   UNL     1     -15.603   2.254 -31.938  1.00  0.00     0.089 A 
HETATM   21  C   UNL     1     -12.018   1.426 -34.700  1.00  0.00     0.011 A 
ENDBRANCH  11  12
ENDBRANCH   4  11
BRANCH   1  22
HETATM   22  C   UNL     1      -6.406  -0.202 -32.981  1.00  0.00     0.176 C 
BRANCH  22  23
HETATM   23  C   UNL     1      -6.051  -1.485 -33.711  1.00  0.00     0.051 A 
HETATM   24  C   UNL     1      -4.720  -1.846 -33.912  1.00  0.00     0.029 A 
HETATM   25  C   UNL     1      -4.442  -3.049 -34.555  1.00  0.00     0.003 A 
HETATM   26  C   UNL     1      -5.492  -3.859 -34.968  1.00  0.00     0.019 A 
HETATM   27  C   UNL     1      -6.786  -3.424 -34.737  1.00  0.00     0.117 A 
HETATM   28  N   UNL     1      -7.088  -2.252 -34.134  1.00  0.00    -0.264 NA
ENDBRANCH  22  23
ENDBRANCH   1  22
TORSDOF 4
ENDMDL
MODEL 7
REMARK VINA RESULT:      -8.3      1.969      7.454
REMARK  4 active torsions:
REMARK  status: ('A' for Active; 'I' for Inactive)
REMARK    1  A    between atoms: C_3  and  C_4 
REMARK    2  A    between atoms: C_4  and  N_5 
REMARK    3  A    between atoms: N_8  and  C_10 
REMARK    4  A    between atoms: C_10  and  C_11 
ROOT
HETATM    1  N   UNL     1      -6.346   0.130 -32.996  1.00  0.00    -0.405 N 
HETATM    2  C   UNL     1      -6.535   0.367 -31.562  1.00  0.00     0.150 C 
HETATM    3  C   UNL     1      -6.315   1.777 -30.956  1.00  0.00     0.206 C 
HETATM    4  N   UNL     1      -7.380   2.799 -31.360  1.00  0.00    -0.061 N 
HETATM    5  H   UNL     1      -7.200   3.591 -30.729  1.00  0.00     0.280 HD
HETATM    6  C   UNL     1      -7.228   3.359 -32.746  1.00  0.00     0.242 C 
HETATM    7  C   UNL     1      -6.137   2.654 -33.536  1.00  0.00     0.029 C 
HETATM    8  C   UNL     1      -6.573   1.230 -33.926  1.00  0.00     0.123 C 
HETATM    9  C   UNL     1      -4.940   2.354 -31.309  1.00  0.00     0.035 C 
HETATM   10  C   UNL     1      -4.805   2.728 -32.786  1.00  0.00     0.010 C 
ENDROOT
BRANCH   4  11
HETATM   11  C   UNL     1      -8.814   2.425 -31.042  1.00  0.00     0.274 C 
BRANCH  11  12
HETATM   12  C   UNL     1      -9.677   2.270 -32.263  1.00  0.00    -0.032 A 
HETATM   13  C   UNL     1     -10.249   3.416 -32.855  1.00  0.00     0.022 A 
HETATM   14  C   UNL     1     -11.037   3.286 -34.015  1.00  0.00    -0.008 A 
HETATM   15  C   UNL     1     -11.242   2.016 -34.547  1.00  0.00     0.042 A 
HETATM   16  C   UNL     1     -11.716   4.211 -34.852  1.00  0.00     0.030 A 
HETATM   17  N   UNL     1     -12.021   2.171 -35.673  1.00  0.00    -0.365 N 
HETATM   18  C   UNL     1     -10.701   0.860 -33.974  1.00  0.00     0.031 A 
HETATM   19  H   UNL     1     -12.321   1.416 -36.278  1.00  0.00     0.165 HD
HETATM   20  C   UNL     1     -12.312   3.496 -35.866  1.00  0.00     0.089 A 
HETATM   21  C   UNL     1      -9.913   1.010 -32.827  1.00  0.00     0.011 A 
ENDBRANCH  11  12
ENDBRANCH   4  11
BRANCH   1  22
HETATM   22  C   UNL     1      -5.129  -0.649 -33.324  1.00  0.00     0.176 C 
BRANCH  22  23
HETATM   23  C   UNL     1      -5.386  -2.045 -33.863  1.00  0.00     0.051 A 
HETATM   24  C   UNL     1      -6.642  -2.401 -34.350  1.00  0.00     0.029 A 
HETATM   25  C   UNL     1      -6.821  -3.681 -34.869  1.00  0.00     0.003 A 
HETATM   26  C   UNL     1      -5.747  -4.561 -34.896  1.00  0.00     0.019 A 
HETATM   27  C   UNL     1      -4.534  -4.132 -34.385  1.00  0.00     0.117 A 
HETATM   28  N   UNL     1      -4.334  -2.903 -33.857  1.00  0.00    -0.264 NA
ENDBRANCH  22  23
ENDBRANCH   1  22
TORSDOF 4
ENDMDL
MODEL 8
REMARK VINA RESULT:      -8.1      2.770      5.284
REMARK  4 active torsions:
REMARK  status: ('A' for Active; 'I' for Inactive)
REMARK    1  A    between atoms: C_3  and  C_4 
REMARK    2  A    between atoms: C_4  and  N_5 
REMARK    3  A    between atoms: N_8  and  C_10 
REMARK    4  A    between atoms: C_10  and  C_11 
ROOT
HETATM    1  N   UNL     1      -6.921   2.648 -31.008  1.00  0.00    -0.405 N 
HETATM    2  C   UNL     1      -6.799   1.190 -31.080  1.00  0.00     0.150 C 
HETATM    3  C   UNL     1      -7.723   0.362 -32.010  1.00  0.00     0.206 C 
HETATM    4  N   UNL     1      -7.432   0.551 -33.500  1.00  0.00    -0.061 N 
HETATM    5  H   UNL     1      -7.978  -0.198 -33.945  1.00  0.00     0.280 HD
HETATM    6  C   UNL     1      -7.961   1.828 -34.092  1.00  0.00     0.242 C 
HETATM    7  C   UNL     1      -8.528   2.761 -33.035  1.00  0.00     0.029 C 
HETATM    8  C   UNL     1      -7.403   3.371 -32.179  1.00  0.00     0.123 C 
HETATM    9  C   UNL     1      -9.207   0.658 -31.771  1.00  0.00     0.035 C 
HETATM   10  C   UNL     1      -9.625   2.054 -32.235  1.00  0.00     0.010 C 
ENDROOT
BRANCH   4  11
HETATM   11  C   UNL     1      -6.013   0.254 -33.944  1.00  0.00     0.274 C 
BRANCH  11  12
HETATM   12  C   UNL     1      -5.735  -1.213 -34.117  1.00  0.00    -0.032 A 
HETATM   13  C   UNL     1      -4.596  -1.777 -33.505  1.00  0.00     0.022 A 
HETATM   14  C   UNL     1      -4.339  -3.155 -33.637  1.00  0.00    -0.008 A 
HETATM   15  C   UNL     1      -5.219  -3.932 -34.385  1.00  0.00     0.042 A 
HETATM   16  C   UNL     1      -3.328  -4.020 -33.140  1.00  0.00     0.030 A 
HETATM   17  N   UNL     1      -4.753  -5.228 -34.340  1.00  0.00    -0.365 N 
HETATM   18  C   UNL     1      -6.348  -3.399 -35.016  1.00  0.00     0.031 A 
HETATM   19  H   UNL     1      -5.200  -6.020 -34.785  1.00  0.00     0.165 HD
HETATM   20  C   UNL     1      -3.609  -5.290 -33.587  1.00  0.00     0.089 A 
HETATM   21  C   UNL     1      -6.592  -2.029 -34.866  1.00  0.00     0.011 A 
ENDBRANCH  11  12
ENDBRANCH   4  11
BRANCH   1  22
HETATM   22  C   UNL     1      -7.520   3.144 -29.747  1.00  0.00     0.176 C 
BRANCH  22  23
HETATM   23  C   UNL     1      -7.077   4.534 -29.328  1.00  0.00     0.051 A 
HETATM   24  C   UNL     1      -5.724   4.840 -29.191  1.00  0.00     0.029 A 
HETATM   25  C   UNL     1      -5.363   6.138 -28.840  1.00  0.00     0.003 A 
HETATM   26  C   UNL     1      -6.354   7.091 -28.645  1.00  0.00     0.019 A 
HETATM   27  C   UNL     1      -7.675   6.704 -28.792  1.00  0.00     0.117 A 
HETATM   28  N   UNL     1      -8.058   5.447 -29.112  1.00  0.00    -0.264 NA
ENDBRANCH  22  23
ENDBRANCH   1  22
TORSDOF 4
ENDMDL
MODEL 9
REMARK VINA RESULT:      -8.0      2.193      2.799
REMARK  4 active torsions:
REMARK  status: ('A' for Active; 'I' for Inactive)
REMARK    1  A    between atoms: C_3  and  C_4 
REMARK    2  A    between atoms: C_4  and  N_5 
REMARK    3  A    between atoms: N_8  and  C_10 
REMARK    4  A    between atoms: C_10  and  C_11 
ROOT
HETATM    1  N   UNL     1      -9.529   3.619 -33.603  1.00  0.00    -0.405 N 
HETATM    2  C   UNL     1      -8.078   3.700 -33.791  1.00  0.00     0.150 C 
HETATM    3  C   UNL     1      -7.110   3.009 -32.798  1.00  0.00     0.206 C 
HETATM    4  N   UNL     1      -7.127   1.481 -32.877  1.00  0.00    -0.061 N 
HETATM    5  H   UNL     1      -6.310   1.205 -32.317  1.00  0.00     0.280 HD
HETATM    6  C   UNL     1      -8.302   0.825 -32.206  1.00  0.00     0.242 C 
HETATM    7  C   UNL     1      -9.335   1.835 -31.736  1.00  0.00     0.029 C 
HETATM    8  C   UNL     1     -10.086   2.451 -32.931  1.00  0.00     0.123 C 
HETATM    9  C   UNL     1      -7.378   3.416 -31.345  1.00  0.00     0.035 C 
HETATM   10  C   UNL     1      -8.691   2.856 -30.795  1.00  0.00     0.010 C 
ENDROOT
BRANCH   4  11
HETATM   11  C   UNL     1      -6.831   0.881 -34.237  1.00  0.00     0.274 C 
BRANCH  11  12
HETATM   12  C   UNL     1      -6.144  -0.454 -34.167  1.00  0.00    -0.032 A 
HETATM   13  C   UNL     1      -6.787  -1.590 -34.700  1.00  0.00     0.022 A 
HETATM   14  C   UNL     1      -6.142  -2.841 -34.665  1.00  0.00    -0.008 A 
HETATM   15  C   UNL     1      -4.878  -2.927 -34.088  1.00  0.00     0.042 A 
HETATM   16  C   UNL     1      -6.487  -4.140 -35.124  1.00  0.00     0.030 A 
HETATM   17  N   UNL     1      -4.471  -4.240 -34.199  1.00  0.00    -0.365 N 
HETATM   18  C   UNL     1      -4.221  -1.822 -33.538  1.00  0.00     0.031 A 
HETATM   19  H   UNL     1      -3.581  -4.599 -33.877  1.00  0.00     0.165 HD
HETATM   20  C   UNL     1      -5.439  -4.980 -34.825  1.00  0.00     0.089 A 
HETATM   21  C   UNL     1      -4.874  -0.585 -33.591  1.00  0.00     0.011 A 
ENDBRANCH  11  12
ENDBRANCH   4  11
BRANCH   1  22
HETATM   22  C   UNL     1     -10.152   4.885 -33.151  1.00  0.00     0.176 C 
BRANCH  22  23
HETATM   23  C   UNL     1     -11.062   5.552 -34.167  1.00  0.00     0.051 A 
HETATM   24  C   UNL     1     -12.337   5.051 -34.419  1.00  0.00     0.029 A 
HETATM   25  C   UNL     1     -13.150   5.718 -35.332  1.00  0.00     0.003 A 
HETATM   26  C   UNL     1     -12.675   6.864 -35.958  1.00  0.00     0.019 A 
HETATM   27  C   UNL     1     -11.393   7.291 -35.658  1.00  0.00     0.117 A 
HETATM   28  N   UNL     1     -10.572   6.654 -34.791  1.00  0.00    -0.264 NA
ENDBRANCH  22  23
ENDBRANCH   1  22
TORSDOF 4
ENDMDL
MODEL 10
REMARK VINA RESULT:      -7.9      2.395      4.311
REMARK  4 active torsions:
REMARK  status: ('A' for Active; 'I' for Inactive)
REMARK    1  A    between atoms: C_3  and  C_4 
REMARK    2  A    between atoms: C_4  and  N_5 
REMARK    3  A    between atoms: N_8  and  C_10 
REMARK    4  A    between atoms: C_10  and  C_11 
ROOT
HETATM    1  N   UNL     1      -8.318   2.776 -31.699  1.00  0.00    -0.405 N 
HETATM    2  C   UNL     1      -7.696   1.468 -31.476  1.00  0.00     0.150 C 
HETATM    3  C   UNL     1      -8.074   0.250 -32.358  1.00  0.00     0.206 C 
HETATM    4  N   UNL     1      -7.569   0.347 -33.799  1.00  0.00    -0.061 N 
HETATM    5  H   UNL     1      -7.726  -0.599 -34.169  1.00  0.00     0.280 HD
HETATM    6  C   UNL     1      -8.369   1.255 -34.691  1.00  0.00     0.242 C 
HETATM    7  C   UNL     1      -9.422   2.037 -33.922  1.00  0.00     0.029 C 
HETATM    8  C   UNL     1      -8.769   3.119 -33.042  1.00  0.00     0.123 C 
HETATM    9  C   UNL     1      -9.586   0.006 -32.396  1.00  0.00     0.035 C 
HETATM   10  C   UNL     1     -10.351   1.081 -33.170  1.00  0.00     0.010 C 
ENDROOT
BRANCH   4  11
HETATM   11  C   UNL     1      -6.075   0.540 -33.969  1.00  0.00     0.274 C 
BRANCH  11  12
HETATM   12  C   UNL     1      -5.263  -0.644 -33.526  1.00  0.00    -0.032 A 
HETATM   13  C   UNL     1      -5.378  -1.862 -34.227  1.00  0.00     0.022 A 
HETATM   14  C   UNL     1      -4.603  -2.971 -33.838  1.00  0.00    -0.008 A 
HETATM   15  C   UNL     1      -3.741  -2.838 -32.752  1.00  0.00     0.042 A 
HETATM   16  C   UNL     1      -4.461  -4.295 -34.331  1.00  0.00     0.030 A 
HETATM   17  N   UNL     1      -3.097  -4.046 -32.597  1.00  0.00    -0.365 N 
HETATM   18  C   UNL     1      -3.616  -1.648 -32.028  1.00  0.00     0.031 A 
HETATM   19  H   UNL     1      -2.398  -4.244 -31.892  1.00  0.00     0.165 HD
HETATM   20  C   UNL     1      -3.526  -4.934 -33.549  1.00  0.00     0.089 A 
HETATM   21  C   UNL     1      -4.389  -0.554 -32.435  1.00  0.00     0.011 A 
ENDBRANCH  11  12
ENDBRANCH   4  11
BRANCH   1  22
HETATM   22  C   UNL     1      -9.293   3.168 -30.655  1.00  0.00     0.176 C 
BRANCH  22  23
HETATM   23  C   UNL     1      -9.117   4.572 -30.107  1.00  0.00     0.051 A 
HETATM   24  C   UNL     1     -10.044   5.572 -30.396  1.00  0.00     0.029 A 
HETATM   25  C   UNL     1      -9.862   6.836 -29.841  1.00  0.00     0.003 A 
HETATM   26  C   UNL     1      -8.772   7.064 -29.010  1.00  0.00     0.019 A 
HETATM   27  C   UNL     1      -7.893   6.020 -28.780  1.00  0.00     0.117 A 
HETATM   28  N   UNL     1      -8.032   4.787 -29.320  1.00  0.00    -0.264 NA
ENDBRANCH  22  23
ENDBRANCH   1  22
TORSDOF 4
ENDMDL
