MODEL 1
REMARK VINA RESULT:      -8.6      0.000      0.000
REMARK  7 active torsions:
REMARK  status: ('A' for Active; 'I' for Inactive)
REMARK    1  A    between atoms: C_2  and  O_3 
REMARK    2  A    between atoms: O_3  and  C_4 
REMARK    3  A    between atoms: C_5  and  N_6 
REMARK    4  A    between atoms: N_9  and  C_11 
REMARK    5  A    between atoms: C_11  and  C_12 
REMARK       I    between atoms: C_12  and  N_13 
REMARK    6  A    between atoms: N_13  and  C_14 
REMARK    7  A    between atoms: C_15  and  C_16 
ROOT
HETATM    1  C   UNL     1      -7.657   3.747 -32.022  1.00  0.00     0.275 C 
HETATM    2  C   UNL     1      -8.446   4.947 -32.547  1.00  0.00     0.050 C 
ENDROOT
BRANCH   1   3
HETATM    3  N   UNL     1      -6.297   4.260 -31.474  1.00  0.00    -0.056 N 
HETATM    4  C   UNL     1      -5.088   3.349 -31.760  1.00  0.00     0.255 C 
HETATM    5  C   UNL     1      -3.825   3.915 -31.063  1.00  0.00     0.150 C 
HETATM    6  N   UNL     1      -3.595   5.314 -31.488  1.00  0.00    -0.375 N 
HETATM    7  C   UNL     1      -4.729   6.223 -31.262  1.00  0.00     0.150 C 
HETATM    8  C   UNL     1      -5.988   5.676 -31.958  1.00  0.00     0.255 C 
HETATM    9  H   UNL     1      -6.388   4.310 -30.454  1.00  0.00     0.281 HD
BRANCH   6  10
HETATM   10  C   UNL     1      -2.294   5.808 -31.249  1.00  0.00     0.064 A 
HETATM   11  C   UNL     1      -1.224   5.550 -32.152  1.00  0.00     0.095 A 
HETATM   12  C   UNL     1       0.050   6.088 -31.910  1.00  0.00     0.039 A 
HETATM   13  C   UNL     1       0.289   6.883 -30.790  1.00  0.00     0.003 A 
HETATM   14  C   UNL     1      -0.742   7.148 -29.902  1.00  0.00     0.002 A 
HETATM   15  C   UNL     1      -2.014   6.619 -30.131  1.00  0.00     0.032 A 
BRANCH  11  16
HETATM   16  O   UNL     1      -1.527   4.806 -33.272  1.00  0.00    -0.349 OA
BRANCH  16  17
HETATM   17  C   UNL     1      -1.643   5.505 -34.512  1.00  0.00     0.171 C 
HETATM   18  C   UNL     1      -3.063   5.332 -35.022  1.00  0.00     0.034 C 
ENDBRANCH  16  17
ENDBRANCH  11  16
ENDBRANCH   6  10
ENDBRANCH   1   3
BRANCH   1  19
HETATM   19  C   UNL     1      -8.474   2.962 -30.973  1.00  0.00     0.253 C 
HETATM   20  N   UNL     1      -8.402   1.597 -30.893  1.00  0.00    -0.325 N 
HETATM   21  H   UNL     1      -8.676   1.253 -29.977  1.00  0.00     0.169 HD
HETATM   22  O   UNL     1      -9.048   3.566 -30.059  1.00  0.00    -0.271 OA
BRANCH  20  23
HETATM   23  C   UNL     1      -7.822   0.664 -31.773  1.00  0.00     0.045 A 
HETATM   24  C   UNL     1      -8.357   0.300 -33.033  1.00  0.00     0.001 A 
HETATM   25  C   UNL     1      -7.589  -0.573 -33.834  1.00  0.00     0.014 A 
HETATM   26  C   UNL     1      -6.372  -1.097 -33.395  1.00  0.00     0.001 A 
HETATM   27  C   UNL     1      -5.909  -0.795 -32.122  1.00  0.00     0.002 A 
HETATM   28  C   UNL     1      -6.641   0.064 -31.308  1.00  0.00     0.030 A 
BRANCH  24  29
HETATM   29  C   UNL     1      -9.720   0.658 -33.494  1.00  0.00    -0.024 A 
HETATM   30  C   UNL     1     -10.848  -0.086 -33.096  1.00  0.00     0.012 A 
HETATM   31  C   UNL     1     -12.137   0.285 -33.492  1.00  0.00     0.001 A 
HETATM   32  C   UNL     1     -12.324   1.408 -34.291  1.00  0.00     0.000 A 
HETATM   33  C   UNL     1     -11.225   2.163 -34.691  1.00  0.00     0.001 A 
HETATM   34  C   UNL     1      -9.939   1.793 -34.293  1.00  0.00     0.012 A 
ENDBRANCH  24  29
ENDBRANCH  20  23
ENDBRANCH   1  19
TORSDOF 7
ENDMDL
MODEL 2
REMARK VINA RESULT:      -8.2      1.694      2.802
REMARK  7 active torsions:
REMARK  status: ('A' for Active; 'I' for Inactive)
REMARK    1  A    between atoms: C_2  and  O_3 
REMARK    2  A    between atoms: O_3  and  C_4 
REMARK    3  A    between atoms: C_5  and  N_6 
REMARK    4  A    between atoms: N_9  and  C_11 
REMARK    5  A    between atoms: C_11  and  C_12 
REMARK       I    between atoms: C_12  and  N_13 
REMARK    6  A    between atoms: N_13  and  C_14 
REMARK    7  A    between atoms: C_15  and  C_16 
ROOT
HETATM    1  C   UNL     1      -6.086   3.113 -33.071  1.00  0.00     0.275 C 
HETATM    2  C   UNL     1      -7.076   4.058 -33.752  1.00  0.00     0.050 C 
ENDROOT
BRANCH   1   3
HETATM    3  N   UNL     1      -4.775   3.899 -32.789  1.00  0.00    -0.056 N 
HETATM    4  C   UNL     1      -4.963   5.392 -32.460  1.00  0.00     0.255 C 
HETATM    5  C   UNL     1      -3.581   6.078 -32.316  1.00  0.00     0.150 C 
HETATM    6  N   UNL     1      -2.766   5.370 -31.302  1.00  0.00    -0.375 N 
HETATM    7  C   UNL     1      -2.577   3.934 -31.554  1.00  0.00     0.150 C 
HETATM    8  C   UNL     1      -3.944   3.240 -31.689  1.00  0.00     0.255 C 
HETATM    9  H   UNL     1      -4.215   3.859 -33.646  1.00  0.00     0.281 HD
BRANCH   6  10
HETATM   10  C   UNL     1      -1.671   6.103 -30.795  1.00  0.00     0.064 A 
HETATM   11  C   UNL     1      -1.796   6.922 -29.639  1.00  0.00     0.095 A 
HETATM   12  C   UNL     1      -0.680   7.607 -29.133  1.00  0.00     0.039 A 
HETATM   13  C   UNL     1       0.566   7.495 -29.748  1.00  0.00     0.003 A 
HETATM   14  C   UNL     1       0.708   6.698 -30.874  1.00  0.00     0.002 A 
HETATM   15  C   UNL     1      -0.395   6.012 -31.387  1.00  0.00     0.032 A 
BRANCH  11  16
HETATM   16  O   UNL     1      -3.036   6.954 -29.035  1.00  0.00    -0.349 OA
BRANCH  16  17
HETATM   17  C   UNL     1      -3.119   7.551 -27.740  1.00  0.00     0.171 C 
HETATM   18  C   UNL     1      -4.117   6.756 -26.916  1.00  0.00     0.034 C 
ENDBRANCH  16  17
ENDBRANCH  11  16
ENDBRANCH   6  10
ENDBRANCH   1   3
BRANCH   1  19
HETATM   19  C   UNL     1      -6.700   2.489 -31.799  1.00  0.00     0.253 C 
HETATM   20  N   UNL     1      -6.773   1.131 -31.640  1.00  0.00    -0.325 N 
HETATM   21  H   UNL     1      -6.847   0.864 -30.661  1.00  0.00     0.169 HD
HETATM   22  O   UNL     1      -6.950   3.201 -30.820  1.00  0.00    -0.271 OA
BRANCH  20  23
HETATM   23  C   UNL     1      -6.547   0.093 -32.563  1.00  0.00     0.045 A 
HETATM   24  C   UNL     1      -7.448  -0.290 -33.586  1.00  0.00     0.001 A 
HETATM   25  C   UNL     1      -7.015  -1.282 -34.492  1.00  0.00     0.014 A 
HETATM   26  C   UNL     1      -5.770  -1.900 -34.368  1.00  0.00     0.001 A 
HETATM   27  C   UNL     1      -4.938  -1.572 -33.307  1.00  0.00     0.002 A 
HETATM   28  C   UNL     1      -5.335  -0.596 -32.397  1.00  0.00     0.030 A 
BRANCH  24  29
HETATM   29  C   UNL     1      -8.853   0.178 -33.676  1.00  0.00    -0.024 A 
HETATM   30  C   UNL     1      -9.874  -0.415 -32.908  1.00  0.00     0.012 A 
HETATM   31  C   UNL     1     -11.188   0.061 -32.958  1.00  0.00     0.001 A 
HETATM   32  C   UNL     1     -11.506   1.142 -33.775  1.00  0.00     0.000 A 
HETATM   33  C   UNL     1     -10.513   1.748 -34.537  1.00  0.00     0.001 A 
HETATM   34  C   UNL     1      -9.201   1.273 -34.485  1.00  0.00     0.012 A 
ENDBRANCH  24  29
ENDBRANCH  20  23
ENDBRANCH   1  19
TORSDOF 7
ENDMDL
MODEL 3
REMARK VINA RESULT:      -8.2      2.654      8.316
REMARK  7 active torsions:
REMARK  status: ('A' for Active; 'I' for Inactive)
REMARK    1  A    between atoms: C_2  and  O_3 
REMARK    2  A    between atoms: O_3  and  C_4 
REMARK    3  A    between atoms: C_5  and  N_6 
REMARK    4  A    between atoms: N_9  and  C_11 
REMARK    5  A    between atoms: C_11  and  C_12 
REMARK       I    between atoms: C_12  and  N_13 
REMARK    6  A    between atoms: N_13  and  C_14 
REMARK    7  A    between atoms: C_15  and  C_16 
ROOT
HETATM    1  C   UNL     1      -5.158   5.436 -29.664  1.00  0.00     0.275 C 
HETATM    2  C   UNL     1      -6.194   5.212 -28.562  1.00  0.00     0.050 C 
ENDROOT
BRANCH   1   3
HETATM    3  N   UNL     1      -5.502   4.499 -30.855  1.00  0.00    -0.056 N 
HETATM    4  C   UNL     1      -4.351   3.593 -31.331  1.00  0.00     0.255 C 
HETATM    5  C   UNL     1      -4.790   2.801 -32.589  1.00  0.00     0.150 C 
HETATM    6  N   UNL     1      -6.029   2.042 -32.304  1.00  0.00    -0.375 N 
HETATM    7  C   UNL     1      -7.154   2.856 -31.819  1.00  0.00     0.150 C 
HETATM    8  C   UNL     1      -6.733   3.641 -30.564  1.00  0.00     0.255 C 
HETATM    9  H   UNL     1      -5.744   5.103 -31.647  1.00  0.00     0.281 HD
BRANCH   6  10
HETATM   10  C   UNL     1      -6.311   0.993 -33.206  1.00  0.00     0.064 A 
HETATM   11  C   UNL     1      -5.938  -0.350 -32.924  1.00  0.00     0.095 A 
HETATM   12  C   UNL     1      -6.268  -1.379 -33.820  1.00  0.00     0.039 A 
HETATM   13  C   UNL     1      -6.967  -1.106 -34.995  1.00  0.00     0.003 A 
HETATM   14  C   UNL     1      -7.343   0.197 -35.285  1.00  0.00     0.002 A 
HETATM   15  C   UNL     1      -7.020   1.230 -34.401  1.00  0.00     0.032 A 
BRANCH  11  16
HETATM   16  O   UNL     1      -5.298  -0.575 -31.723  1.00  0.00    -0.349 OA
BRANCH  16  17
HETATM   17  C   UNL     1      -3.971  -1.100 -31.775  1.00  0.00     0.171 C 
HETATM   18  C   UNL     1      -3.026  -0.057 -31.203  1.00  0.00     0.034 C 
ENDBRANCH  16  17
ENDBRANCH  11  16
ENDBRANCH   6  10
ENDBRANCH   1   3
BRANCH   1  19
HETATM   19  C   UNL     1      -5.091   6.925 -30.067  1.00  0.00     0.253 C 
HETATM   20  N   UNL     1      -3.921   7.631 -29.981  1.00  0.00    -0.325 N 
HETATM   21  H   UNL     1      -3.919   8.444 -30.593  1.00  0.00     0.169 HD
HETATM   22  O   UNL     1      -6.039   7.447 -30.663  1.00  0.00    -0.271 OA
BRANCH  20  23
HETATM   23  C   UNL     1      -2.698   7.294 -29.371  1.00  0.00     0.045 A 
HETATM   24  C   UNL     1      -1.520   6.931 -30.067  1.00  0.00     0.001 A 
HETATM   25  C   UNL     1      -0.351   6.729 -29.301  1.00  0.00     0.014 A 
HETATM   26  C   UNL     1      -0.355   6.835 -27.909  1.00  0.00     0.001 A 
HETATM   27  C   UNL     1      -1.541   7.106 -27.241  1.00  0.00     0.002 A 
HETATM   28  C   UNL     1      -2.710   7.313 -27.967  1.00  0.00     0.030 A 
BRANCH  24  29
HETATM   29  C   UNL     1      -1.473   6.615 -31.515  1.00  0.00    -0.024 A 
HETATM   30  C   UNL     1      -1.424   5.285 -31.975  1.00  0.00     0.012 A 
HETATM   31  C   UNL     1      -1.430   4.989 -33.341  1.00  0.00     0.001 A 
HETATM   32  C   UNL     1      -1.488   6.017 -34.276  1.00  0.00     0.000 A 
HETATM   33  C   UNL     1      -1.544   7.340 -33.846  1.00  0.00     0.001 A 
HETATM   34  C   UNL     1      -1.539   7.634 -32.481  1.00  0.00     0.012 A 
ENDBRANCH  24  29
ENDBRANCH  20  23
ENDBRANCH   1  19
TORSDOF 7
ENDMDL
MODEL 4
REMARK VINA RESULT:      -8.0      3.998      7.115
REMARK  7 active torsions:
REMARK  status: ('A' for Active; 'I' for Inactive)
REMARK    1  A    between atoms: C_2  and  O_3 
REMARK    2  A    between atoms: O_3  and  C_4 
REMARK    3  A    between atoms: C_5  and  N_6 
REMARK    4  A    between atoms: N_9  and  C_11 
REMARK    5  A    between atoms: C_11  and  C_12 
REMARK       I    between atoms: C_12  and  N_13 
REMARK    6  A    between atoms: N_13  and  C_14 
REMARK    7  A    between atoms: C_15  and  C_16 
ROOT
HETATM    1  C   UNL     1      -8.245   2.959 -33.109  1.00  0.00     0.275 C 
HETATM    2  C   UNL     1      -6.910   3.656 -32.848  1.00  0.00     0.050 C 
ENDROOT
BRANCH   1   3
HETATM    3  N   UNL     1      -7.965   1.456 -33.389  1.00  0.00    -0.056 N 
HETATM    4  C   UNL     1      -7.461   1.135 -34.808  1.00  0.00     0.255 C 
HETATM    5  C   UNL     1      -7.334  -0.399 -34.987  1.00  0.00     0.150 C 
HETATM    6  N   UNL     1      -6.461  -0.963 -33.932  1.00  0.00    -0.375 N 
HETATM    7  C   UNL     1      -6.883  -0.663 -32.556  1.00  0.00     0.150 C 
HETATM    8  C   UNL     1      -7.003   0.859 -32.363  1.00  0.00     0.255 C 
HETATM    9  H   UNL     1      -8.857   0.963 -33.279  1.00  0.00     0.281 HD
BRANCH   6  10
HETATM   10  C   UNL     1      -5.950  -2.251 -34.202  1.00  0.00     0.064 A 
HETATM   11  C   UNL     1      -4.594  -2.585 -33.928  1.00  0.00     0.095 A 
HETATM   12  C   UNL     1      -4.124  -3.886 -34.168  1.00  0.00     0.039 A 
HETATM   13  C   UNL     1      -4.972  -4.870 -34.673  1.00  0.00     0.003 A 
HETATM   14  C   UNL     1      -6.298  -4.565 -34.942  1.00  0.00     0.002 A 
HETATM   15  C   UNL     1      -6.778  -3.274 -34.709  1.00  0.00     0.032 A 
BRANCH  11  16
HETATM   16  O   UNL     1      -3.812  -1.592 -33.377  1.00  0.00    -0.349 OA
BRANCH  16  17
HETATM   17  C   UNL     1      -3.392  -1.764 -32.022  1.00  0.00     0.171 C 
HETATM   18  C   UNL     1      -3.090  -0.393 -31.442  1.00  0.00     0.034 C 
ENDBRANCH  16  17
ENDBRANCH  11  16
ENDBRANCH   6  10
ENDBRANCH   1   3
BRANCH   1  19
HETATM   19  C   UNL     1      -9.226   3.183 -31.938  1.00  0.00     0.253 C 
HETATM   20  N   UNL     1     -10.573   2.995 -32.095  1.00  0.00    -0.325 N 
HETATM   21  H   UNL     1     -11.040   2.819 -31.209  1.00  0.00     0.169 HD
HETATM   22  O   UNL     1      -8.793   3.338 -30.791  1.00  0.00    -0.271 OA
BRANCH  20  23
HETATM   23  C   UNL     1     -11.335   2.799 -33.263  1.00  0.00     0.045 A 
HETATM   24  C   UNL     1     -11.716   3.824 -34.161  1.00  0.00     0.001 A 
HETATM   25  C   UNL     1     -12.389   3.435 -35.340  1.00  0.00     0.014 A 
HETATM   26  C   UNL     1     -12.710   2.101 -35.599  1.00  0.00     0.001 A 
HETATM   27  C   UNL     1     -12.403   1.123 -34.663  1.00  0.00     0.002 A 
HETATM   28  C   UNL     1     -11.739   1.473 -33.491  1.00  0.00     0.030 A 
BRANCH  24  29
HETATM   29  C   UNL     1     -11.583   5.273 -33.876  1.00  0.00    -0.024 A 
HETATM   30  C   UNL     1     -12.503   5.946 -33.049  1.00  0.00     0.012 A 
HETATM   31  C   UNL     1     -12.347   7.301 -32.741  1.00  0.00     0.001 A 
HETATM   32  C   UNL     1     -11.264   8.010 -33.253  1.00  0.00     0.000 A 
HETATM   33  C   UNL     1     -10.338   7.365 -34.067  1.00  0.00     0.001 A 
HETATM   34  C   UNL     1     -10.495   6.011 -34.371  1.00  0.00     0.012 A 
ENDBRANCH  24  29
ENDBRANCH  20  23
ENDBRANCH   1  19
TORSDOF 7
ENDMDL
MODEL 5
REMARK VINA RESULT:      -7.9      2.009      8.552
REMARK  7 active torsions:
REMARK  status: ('A' for Active; 'I' for Inactive)
REMARK    1  A    between atoms: C_2  and  O_3 
REMARK    2  A    between atoms: O_3  and  C_4 
REMARK    3  A    between atoms: C_5  and  N_6 
REMARK    4  A    between atoms: N_9  and  C_11 
REMARK    5  A    between atoms: C_11  and  C_12 
REMARK       I    between atoms: C_12  and  N_13 
REMARK    6  A    between atoms: N_13  and  C_14 
REMARK    7  A    between atoms: C_15  and  C_16 
ROOT
HETATM    1  C   UNL     1      -4.508   6.658 -29.809  1.00  0.00     0.275 C 
HETATM    2  C   UNL     1      -4.817   6.905 -28.333  1.00  0.00     0.050 C 
ENDROOT
BRANCH   1   3
HETATM    3  N   UNL     1      -5.654   5.799 -30.411  1.00  0.00    -0.056 N 
HETATM    4  C   UNL     1      -5.428   5.323 -31.858  1.00  0.00     0.255 C 
HETATM    5  C   UNL     1      -6.688   4.581 -32.372  1.00  0.00     0.150 C 
HETATM    6  N   UNL     1      -7.031   3.470 -31.456  1.00  0.00    -0.375 N 
HETATM    7  C   UNL     1      -7.232   3.864 -30.053  1.00  0.00     0.150 C 
HETATM    8  C   UNL     1      -5.983   4.595 -29.529  1.00  0.00     0.255 C 
HETATM    9  H   UNL     1      -6.491   6.390 -30.427  1.00  0.00     0.281 HD
BRANCH   6  10
HETATM   10  C   UNL     1      -7.892   2.490 -31.997  1.00  0.00     0.064 A 
HETATM   11  C   UNL     1      -7.450   1.156 -32.224  1.00  0.00     0.095 A 
HETATM   12  C   UNL     1      -8.340   0.192 -32.725  1.00  0.00     0.039 A 
HETATM   13  C   UNL     1      -9.666   0.521 -33.004  1.00  0.00     0.003 A 
HETATM   14  C   UNL     1     -10.115   1.814 -32.786  1.00  0.00     0.002 A 
HETATM   15  C   UNL     1      -9.240   2.783 -32.288  1.00  0.00     0.032 A 
BRANCH  11  16
HETATM   16  O   UNL     1      -6.147   0.870 -31.878  1.00  0.00    -0.349 OA
BRANCH  16  17
HETATM   17  C   UNL     1      -5.246   0.534 -32.935  1.00  0.00     0.171 C 
HETATM   18  C   UNL     1      -4.714  -0.865 -32.678  1.00  0.00     0.034 C 
ENDBRANCH  16  17
ENDBRANCH  11  16
ENDBRANCH   6  10
ENDBRANCH   1   3
BRANCH   1  19
HETATM   19  C   UNL     1      -4.294   7.990 -30.561  1.00  0.00     0.253 C 
HETATM   20  N   UNL     1      -3.038   8.498 -30.760  1.00  0.00    -0.325 N 
HETATM   21  H   UNL     1      -3.007   9.144 -31.545  1.00  0.00     0.169 HD
HETATM   22  O   UNL     1      -5.233   8.514 -31.169  1.00  0.00    -0.271 OA
BRANCH  20  23
HETATM   23  C   UNL     1      -1.802   8.111 -30.209  1.00  0.00     0.045 A 
HETATM   24  C   UNL     1      -0.885   7.224 -30.824  1.00  0.00     0.001 A 
HETATM   25  C   UNL     1       0.357   7.028 -30.180  1.00  0.00     0.014 A 
HETATM   26  C   UNL     1       0.662   7.643 -28.965  1.00  0.00     0.001 A 
HETATM   27  C   UNL     1      -0.285   8.440 -28.337  1.00  0.00     0.002 A 
HETATM   28  C   UNL     1      -1.519   8.654 -28.946  1.00  0.00     0.030 A 
BRANCH  24  29
HETATM   29  C   UNL     1      -1.200   6.389 -32.008  1.00  0.00    -0.024 A 
HETATM   30  C   UNL     1      -1.764   5.106 -31.872  1.00  0.00     0.012 A 
HETATM   31  C   UNL     1      -2.107   4.342 -32.992  1.00  0.00     0.001 A 
HETATM   32  C   UNL     1      -1.895   4.848 -34.271  1.00  0.00     0.000 A 
HETATM   33  C   UNL     1      -1.345   6.116 -34.431  1.00  0.00     0.001 A 
HETATM   34  C   UNL     1      -1.005   6.879 -33.311  1.00  0.00     0.012 A 
ENDBRANCH  24  29
ENDBRANCH  20  23
ENDBRANCH   1  19
TORSDOF 7
ENDMDL
MODEL 6
REMARK VINA RESULT:      -7.8      2.597      7.518
REMARK  7 active torsions:
REMARK  status: ('A' for Active; 'I' for Inactive)
REMARK    1  A    between atoms: C_2  and  O_3 
REMARK    2  A    between atoms: O_3  and  C_4 
REMARK    3  A    between atoms: C_5  and  N_6 
REMARK    4  A    between atoms: N_9  and  C_11 
REMARK    5  A    between atoms: C_11  and  C_12 
REMARK       I    between atoms: C_12  and  N_13 
REMARK    6  A    between atoms: N_13  and  C_14 
REMARK    7  A    between atoms: C_15  and  C_16 
ROOT
HETATM    1  C   UNL     1      -9.020   3.721 -32.679  1.00  0.00     0.275 C 
HETATM    2  C   UNL     1     -10.534   3.772 -32.881  1.00  0.00     0.050 C 
ENDROOT
BRANCH   1   3
HETATM    3  N   UNL     1      -8.487   2.405 -33.311  1.00  0.00    -0.056 N 
HETATM    4  C   UNL     1      -7.027   2.455 -33.798  1.00  0.00     0.255 C 
HETATM    5  C   UNL     1      -6.662   1.127 -34.507  1.00  0.00     0.150 C 
HETATM    6  N   UNL     1      -6.921  -0.018 -33.603  1.00  0.00    -0.375 N 
HETATM    7  C   UNL     1      -8.295  -0.099 -33.086  1.00  0.00     0.150 C 
HETATM    8  C   UNL     1      -8.665   1.213 -32.372  1.00  0.00     0.255 C 
HETATM    9  H   UNL     1      -9.064   2.218 -34.137  1.00  0.00     0.281 HD
BRANCH   6  10
HETATM   10  C   UNL     1      -6.276  -1.222 -33.962  1.00  0.00     0.064 A 
HETATM   11  C   UNL     1      -4.892  -1.428 -33.707  1.00  0.00     0.095 A 
HETATM   12  C   UNL     1      -4.287  -2.652 -34.036  1.00  0.00     0.039 A 
HETATM   13  C   UNL     1      -5.028  -3.683 -34.612  1.00  0.00     0.003 A 
HETATM   14  C   UNL     1      -6.379  -3.502 -34.864  1.00  0.00     0.002 A 
HETATM   15  C   UNL     1      -6.993  -2.289 -34.542  1.00  0.00     0.032 A 
BRANCH  11  16
HETATM   16  O   UNL     1      -4.218  -0.399 -33.085  1.00  0.00    -0.349 OA
BRANCH  16  17
HETATM   17  C   UNL     1      -3.723  -0.642 -31.767  1.00  0.00     0.171 C 
HETATM   18  C   UNL     1      -4.660   0.029 -30.778  1.00  0.00     0.034 C 
ENDBRANCH  16  17
ENDBRANCH  11  16
ENDBRANCH   6  10
ENDBRANCH   1   3
BRANCH   1  19
HETATM   19  C   UNL     1      -8.341   4.984 -33.251  1.00  0.00     0.253 C 
HETATM   20  N   UNL     1      -7.422   5.688 -32.521  1.00  0.00    -0.325 N 
HETATM   21  H   UNL     1      -6.808   6.244 -33.112  1.00  0.00     0.169 HD
HETATM   22  O   UNL     1      -8.465   5.263 -34.449  1.00  0.00    -0.271 OA
BRANCH  20  23
HETATM   23  C   UNL     1      -7.073   5.591 -31.160  1.00  0.00     0.045 A 
HETATM   24  C   UNL     1      -5.765   5.348 -30.676  1.00  0.00     0.001 A 
HETATM   25  C   UNL     1      -5.574   5.389 -29.278  1.00  0.00     0.014 A 
HETATM   26  C   UNL     1      -6.633   5.613 -28.396  1.00  0.00     0.001 A 
HETATM   27  C   UNL     1      -7.922   5.763 -28.888  1.00  0.00     0.002 A 
HETATM   28  C   UNL     1      -8.143   5.729 -30.262  1.00  0.00     0.030 A 
BRANCH  24  29
HETATM   29  C   UNL     1      -4.629   4.918 -31.527  1.00  0.00    -0.024 A 
HETATM   30  C   UNL     1      -3.820   5.855 -32.201  1.00  0.00     0.012 A 
HETATM   31  C   UNL     1      -2.720   5.448 -32.961  1.00  0.00     0.001 A 
HETATM   32  C   UNL     1      -2.404   4.097 -33.061  1.00  0.00     0.000 A 
HETATM   33  C   UNL     1      -3.184   3.153 -32.399  1.00  0.00     0.001 A 
HETATM   34  C   UNL     1      -4.281   3.561 -31.638  1.00  0.00     0.012 A 
ENDBRANCH  24  29
ENDBRANCH  20  23
ENDBRANCH   1  19
TORSDOF 7
ENDMDL
MODEL 7
REMARK VINA RESULT:      -7.8      3.646      8.675
REMARK  7 active torsions:
REMARK  status: ('A' for Active; 'I' for Inactive)
REMARK    1  A    between atoms: C_2  and  O_3 
REMARK    2  A    between atoms: O_3  and  C_4 
REMARK    3  A    between atoms: C_5  and  N_6 
REMARK    4  A    between atoms: N_9  and  C_11 
REMARK    5  A    between atoms: C_11  and  C_12 
REMARK       I    between atoms: C_12  and  N_13 
REMARK    6  A    between atoms: N_13  and  C_14 
REMARK    7  A    between atoms: C_15  and  C_16 
ROOT
HETATM    1  C   UNL     1      -8.097   1.292 -33.627  1.00  0.00     0.275 C 
HETATM    2  C   UNL     1      -8.141   0.634 -35.006  1.00  0.00     0.050 C 
ENDROOT
BRANCH   1   3
HETATM    3  N   UNL     1      -9.282   2.291 -33.524  1.00  0.00    -0.056 N 
HETATM    4  C   UNL     1     -10.564   1.868 -34.266  1.00  0.00     0.255 C 
HETATM    5  C   UNL     1     -11.620   2.999 -34.180  1.00  0.00     0.150 C 
HETATM    6  N   UNL     1     -11.873   3.350 -32.764  1.00  0.00    -0.375 N 
HETATM    7  C   UNL     1     -10.677   3.737 -32.001  1.00  0.00     0.150 C 
HETATM    8  C   UNL     1      -9.624   2.617 -32.071  1.00  0.00     0.255 C 
HETATM    9  H   UNL     1      -8.971   3.167 -33.957  1.00  0.00     0.281 HD
BRANCH   6  10
HETATM   10  C   UNL     1     -13.069   4.063 -32.528  1.00  0.00     0.064 A 
HETATM   11  C   UNL     1     -14.304   3.392 -32.310  1.00  0.00     0.095 A 
HETATM   12  C   UNL     1     -15.469   4.125 -32.036  1.00  0.00     0.039 A 
HETATM   13  C   UNL     1     -15.437   5.517 -31.969  1.00  0.00     0.003 A 
HETATM   14  C   UNL     1     -14.242   6.189 -32.174  1.00  0.00     0.002 A 
HETATM   15  C   UNL     1     -13.076   5.471 -32.448  1.00  0.00     0.032 A 
BRANCH  11  16
HETATM   16  O   UNL     1     -14.270   2.013 -32.331  1.00  0.00    -0.349 OA
BRANCH  16  17
HETATM   17  C   UNL     1     -14.958   1.357 -33.397  1.00  0.00     0.171 C 
HETATM   18  C   UNL     1     -14.071   0.239 -33.916  1.00  0.00     0.034 C 
ENDBRANCH  16  17
ENDBRANCH  11  16
ENDBRANCH   6  10
ENDBRANCH   1   3
BRANCH   1  19
HETATM   19  C   UNL     1      -8.103   0.230 -32.506  1.00  0.00     0.253 C 
HETATM   20  N   UNL     1      -7.084   0.156 -31.594  1.00  0.00    -0.325 N 
HETATM   21  H   UNL     1      -7.372  -0.309 -30.737  1.00  0.00     0.169 HD
HETATM   22  O   UNL     1      -9.122  -0.435 -32.292  1.00  0.00    -0.271 OA
BRANCH  20  23
HETATM   23  C   UNL     1      -5.828   0.790 -31.579  1.00  0.00     0.045 A 
HETATM   24  C   UNL     1      -4.668   0.303 -32.230  1.00  0.00     0.001 A 
HETATM   25  C   UNL     1      -3.518   1.121 -32.202  1.00  0.00     0.014 A 
HETATM   26  C   UNL     1      -3.499   2.342 -31.524  1.00  0.00     0.001 A 
HETATM   27  C   UNL     1      -4.619   2.759 -30.820  1.00  0.00     0.002 A 
HETATM   28  C   UNL     1      -5.770   1.976 -30.829  1.00  0.00     0.030 A 
BRANCH  24  29
HETATM   29  C   UNL     1      -4.547  -1.057 -32.808  1.00  0.00    -0.024 A 
HETATM   30  C   UNL     1      -5.239  -1.421 -33.980  1.00  0.00     0.012 A 
HETATM   31  C   UNL     1      -5.083  -2.688 -34.550  1.00  0.00     0.001 A 
HETATM   32  C   UNL     1      -4.230  -3.617 -33.961  1.00  0.00     0.000 A 
HETATM   33  C   UNL     1      -3.531  -3.278 -32.806  1.00  0.00     0.001 A 
HETATM   34  C   UNL     1      -3.686  -2.011 -32.239  1.00  0.00     0.012 A 
ENDBRANCH  24  29
ENDBRANCH  20  23
ENDBRANCH   1  19
TORSDOF 7
ENDMDL
MODEL 8
REMARK VINA RESULT:      -7.7      2.780      8.924
REMARK  7 active torsions:
REMARK  status: ('A' for Active; 'I' for Inactive)
REMARK    1  A    between atoms: C_2  and  O_3 
REMARK    2  A    between atoms: O_3  and  C_4 
REMARK    3  A    between atoms: C_5  and  N_6 
REMARK    4  A    between atoms: N_9  and  C_11 
REMARK    5  A    between atoms: C_11  and  C_12 
REMARK       I    between atoms: C_12  and  N_13 
REMARK    6  A    between atoms: N_13  and  C_14 
REMARK    7  A    between atoms: C_15  and  C_16 
ROOT
HETATM    1  C   UNL     1      -4.623   5.624 -29.925  1.00  0.00     0.275 C 
HETATM    2  C   UNL     1      -5.550   5.717 -28.714  1.00  0.00     0.050 C 
ENDROOT
BRANCH   1   3
HETATM    3  N   UNL     1      -5.267   4.663 -30.962  1.00  0.00    -0.056 N 
HETATM    4  C   UNL     1      -4.335   4.199 -32.096  1.00  0.00     0.255 C 
HETATM    5  C   UNL     1      -5.130   3.345 -33.116  1.00  0.00     0.150 C 
HETATM    6  N   UNL     1      -5.791   2.214 -32.425  1.00  0.00    -0.375 N 
HETATM    7  C   UNL     1      -6.673   2.600 -31.314  1.00  0.00     0.150 C 
HETATM    8  C   UNL     1      -5.892   3.441 -30.290  1.00  0.00     0.255 C 
HETATM    9  H   UNL     1      -6.033   5.178 -31.408  1.00  0.00     0.281 HD
BRANCH   6  10
HETATM   10  C   UNL     1      -6.207   1.159 -33.266  1.00  0.00     0.064 A 
HETATM   11  C   UNL     1      -5.930  -0.199 -32.945  1.00  0.00     0.095 A 
HETATM   12  C   UNL     1      -6.392  -1.231 -33.778  1.00  0.00     0.039 A 
HETATM   13  C   UNL     1      -7.129  -0.945 -34.927  1.00  0.00     0.003 A 
HETATM   14  C   UNL     1      -7.411   0.372 -35.253  1.00  0.00     0.002 A 
HETATM   15  C   UNL     1      -6.957   1.407 -34.433  1.00  0.00     0.032 A 
BRANCH  11  16
HETATM   16  O   UNL     1      -5.248  -0.431 -31.770  1.00  0.00    -0.349 OA
BRANCH  16  17
HETATM   17  C   UNL     1      -4.009  -1.136 -31.859  1.00  0.00     0.171 C 
HETATM   18  C   UNL     1      -3.058  -0.318 -32.715  1.00  0.00     0.034 C 
ENDBRANCH  16  17
ENDBRANCH  11  16
ENDBRANCH   6  10
ENDBRANCH   1   3
BRANCH   1  19
HETATM   19  C   UNL     1      -4.325   7.025 -30.504  1.00  0.00     0.253 C 
HETATM   20  N   UNL     1      -3.055   7.388 -30.865  1.00  0.00    -0.325 N 
HETATM   21  H   UNL     1      -3.053   8.149 -31.540  1.00  0.00     0.169 HD
HETATM   22  O   UNL     1      -5.256   7.765 -30.838  1.00  0.00    -0.271 OA
BRANCH  20  23
HETATM   23  C   UNL     1      -1.823   6.751 -30.624  1.00  0.00     0.045 A 
HETATM   24  C   UNL     1      -1.126   6.778 -29.392  1.00  0.00     0.001 A 
HETATM   25  C   UNL     1       0.045   5.995 -29.293  1.00  0.00     0.014 A 
HETATM   26  C   UNL     1       0.530   5.256 -30.373  1.00  0.00     0.001 A 
HETATM   27  C   UNL     1      -0.121   5.313 -31.597  1.00  0.00     0.002 A 
HETATM   28  C   UNL     1      -1.280   6.074 -31.728  1.00  0.00     0.030 A 
BRANCH  24  29
HETATM   29  C   UNL     1      -1.466   7.678 -28.263  1.00  0.00    -0.024 A 
HETATM   30  C   UNL     1      -2.209   7.220 -27.157  1.00  0.00     0.012 A 
HETATM   31  C   UNL     1      -2.484   8.057 -26.072  1.00  0.00     0.001 A 
HETATM   32  C   UNL     1      -2.020   9.369 -26.069  1.00  0.00     0.000 A 
HETATM   33  C   UNL     1      -1.278   9.842 -27.147  1.00  0.00     0.001 A 
HETATM   34  C   UNL     1      -1.002   9.004 -28.230  1.00  0.00     0.012 A 
ENDBRANCH  24  29
ENDBRANCH  20  23
ENDBRANCH   1  19
TORSDOF 7
ENDMDL
MODEL 9
REMARK VINA RESULT:      -7.6      2.436      7.836
REMARK  7 active torsions:
REMARK  status: ('A' for Active; 'I' for Inactive)
REMARK    1  A    between atoms: C_2  and  O_3 
REMARK    2  A    between atoms: O_3  and  C_4 
REMARK    3  A    between atoms: C_5  and  N_6 
REMARK    4  A    between atoms: N_9  and  C_11 
REMARK    5  A    between atoms: C_11  and  C_12 
REMARK       I    between atoms: C_12  and  N_13 
REMARK    6  A    between atoms: N_13  and  C_14 
REMARK    7  A    between atoms: C_15  and  C_16 
ROOT
HETATM    1  C   UNL     1      -6.430   6.126 -30.507  1.00  0.00     0.275 C 
HETATM    2  C   UNL     1      -7.943   5.910 -30.555  1.00  0.00     0.050 C 
ENDROOT
BRANCH   1   3
HETATM    3  N   UNL     1      -5.737   4.846 -31.050  1.00  0.00    -0.056 N 
HETATM    4  C   UNL     1      -5.585   3.700 -30.033  1.00  0.00     0.255 C 
HETATM    5  C   UNL     1      -4.780   2.537 -30.666  1.00  0.00     0.150 C 
HETATM    6  N   UNL     1      -5.425   2.099 -31.924  1.00  0.00    -0.375 N 
HETATM    7  C   UNL     1      -5.619   3.161 -32.922  1.00  0.00     0.150 C 
HETATM    8  C   UNL     1      -6.426   4.318 -32.308  1.00  0.00     0.255 C 
HETATM    9  H   UNL     1      -4.788   5.117 -31.327  1.00  0.00     0.281 HD
BRANCH   6  10
HETATM   10  C   UNL     1      -5.036   0.821 -32.384  1.00  0.00     0.064 A 
HETATM   11  C   UNL     1      -5.998  -0.170 -32.725  1.00  0.00     0.095 A 
HETATM   12  C   UNL     1      -5.583  -1.417 -33.219  1.00  0.00     0.039 A 
HETATM   13  C   UNL     1      -4.229  -1.704 -33.388  1.00  0.00     0.003 A 
HETATM   14  C   UNL     1      -3.278  -0.749 -33.065  1.00  0.00     0.002 A 
HETATM   15  C   UNL     1      -3.677   0.495 -32.572  1.00  0.00     0.032 A 
BRANCH  11  16
HETATM   16  O   UNL     1      -7.324   0.184 -32.594  1.00  0.00    -0.349 OA
BRANCH  16  17
HETATM   17  C   UNL     1      -8.199  -0.140 -33.675  1.00  0.00     0.171 C 
HETATM   18  C   UNL     1      -7.859   0.764 -34.847  1.00  0.00     0.034 C 
ENDBRANCH  16  17
ENDBRANCH  11  16
ENDBRANCH   6  10
ENDBRANCH   1   3
BRANCH   1  19
HETATM   19  C   UNL     1      -6.028   7.404 -31.277  1.00  0.00     0.253 C 
HETATM   20  N   UNL     1      -4.772   7.935 -31.161  1.00  0.00    -0.325 N 
HETATM   21  H   UNL     1      -4.529   8.520 -31.958  1.00  0.00     0.169 HD
HETATM   22  O   UNL     1      -6.766   7.849 -32.163  1.00  0.00    -0.271 OA
BRANCH  20  23
HETATM   23  C   UNL     1      -3.734   7.631 -30.260  1.00  0.00     0.045 A 
HETATM   24  C   UNL     1      -2.505   7.024 -30.616  1.00  0.00     0.001 A 
HETATM   25  C   UNL     1      -1.532   6.889 -29.602  1.00  0.00     0.014 A 
HETATM   26  C   UNL     1      -1.777   7.292 -28.288  1.00  0.00     0.001 A 
HETATM   27  C   UNL     1      -3.019   7.804 -27.943  1.00  0.00     0.002 A 
HETATM   28  C   UNL     1      -4.000   7.952 -28.919  1.00  0.00     0.030 A 
BRANCH  24  29
HETATM   29  C   UNL     1      -2.236   6.401 -31.934  1.00  0.00    -0.024 A 
HETATM   30  C   UNL     1      -1.725   7.152 -33.011  1.00  0.00     0.012 A 
HETATM   31  C   UNL     1      -1.425   6.551 -34.237  1.00  0.00     0.001 A 
HETATM   32  C   UNL     1      -1.628   5.185 -34.411  1.00  0.00     0.000 A 
HETATM   33  C   UNL     1      -2.126   4.421 -33.360  1.00  0.00     0.001 A 
HETATM   34  C   UNL     1      -2.423   5.023 -32.135  1.00  0.00     0.012 A 
ENDBRANCH  24  29
ENDBRANCH  20  23
ENDBRANCH   1  19
TORSDOF 7
ENDMDL
MODEL 10
REMARK VINA RESULT:      -7.6     17.561     20.842
REMARK  7 active torsions:
REMARK  status: ('A' for Active; 'I' for Inactive)
REMARK    1  A    between atoms: C_2  and  O_3 
REMARK    2  A    between atoms: O_3  and  C_4 
REMARK    3  A    between atoms: C_5  and  N_6 
REMARK    4  A    between atoms: N_9  and  C_11 
REMARK    5  A    between atoms: C_11  and  C_12 
REMARK       I    between atoms: C_12  and  N_13 
REMARK    6  A    between atoms: N_13  and  C_14 
REMARK    7  A    between atoms: C_15  and  C_16 
ROOT
HETATM    1  C   UNL     1      -3.268 -13.756 -38.035  1.00  0.00     0.275 C 
HETATM    2  C   UNL     1      -3.089 -13.779 -36.517  1.00  0.00     0.050 C 
ENDROOT
BRANCH   1   3
HETATM    3  N   UNL     1      -4.731 -13.337 -38.348  1.00  0.00    -0.056 N 
HETATM    4  C   UNL     1      -5.016 -12.995 -39.823  1.00  0.00     0.255 C 
HETATM    5  C   UNL     1      -6.471 -12.485 -39.975  1.00  0.00     0.150 C 
HETATM    6  N   UNL     1      -7.418 -13.484 -39.430  1.00  0.00    -0.375 N 
HETATM    7  C   UNL     1      -7.176 -13.867 -38.031  1.00  0.00     0.150 C 
HETATM    8  C   UNL     1      -5.736 -14.384 -37.870  1.00  0.00     0.255 C 
HETATM    9  H   UNL     1      -4.917 -12.484 -37.811  1.00  0.00     0.281 HD
BRANCH   6  10
HETATM   10  C   UNL     1      -8.757 -13.334 -39.852  1.00  0.00     0.064 A 
HETATM   11  C   UNL     1      -9.538 -14.452 -40.259  1.00  0.00     0.095 A 
HETATM   12  C   UNL     1     -10.880 -14.278 -40.634  1.00  0.00     0.039 A 
HETATM   13  C   UNL     1     -11.469 -13.015 -40.613  1.00  0.00     0.003 A 
HETATM   14  C   UNL     1     -10.725 -11.914 -40.217  1.00  0.00     0.002 A 
HETATM   15  C   UNL     1      -9.389 -12.074 -39.841  1.00  0.00     0.032 A 
BRANCH  11  16
HETATM   16  O   UNL     1      -8.925 -15.686 -40.207  1.00  0.00    -0.349 OA
BRANCH  16  17
HETATM   17  C   UNL     1      -9.647 -16.751 -39.587  1.00  0.00     0.171 C 
HETATM   18  C   UNL     1      -8.966 -17.080 -38.269  1.00  0.00     0.034 C 
ENDBRANCH  16  17
ENDBRANCH  11  16
ENDBRANCH   6  10
ENDBRANCH   1   3
BRANCH   1  19
HETATM   19  C   UNL     1      -2.221 -12.838 -38.703  1.00  0.00     0.253 C 
HETATM   20  N   UNL     1      -1.669 -13.156 -39.915  1.00  0.00    -0.325 N 
HETATM   21  H   UNL     1      -1.301 -12.338 -40.394  1.00  0.00     0.169 HD
HETATM   22  O   UNL     1      -2.016 -11.706 -38.253  1.00  0.00    -0.271 OA
BRANCH  20  23
HETATM   23  C   UNL     1      -1.732 -14.349 -40.659  1.00  0.00     0.045 A 
HETATM   24  C   UNL     1      -1.100 -15.563 -40.295  1.00  0.00     0.001 A 
HETATM   25  C   UNL     1      -1.356 -16.693 -41.101  1.00  0.00     0.014 A 
HETATM   26  C   UNL     1      -2.162 -16.620 -42.238  1.00  0.00     0.001 A 
HETATM   27  C   UNL     1      -2.701 -15.401 -42.625  1.00  0.00     0.002 A 
HETATM   28  C   UNL     1      -2.469 -14.268 -41.851  1.00  0.00     0.030 A 
BRANCH  24  29
HETATM   29  C   UNL     1      -0.086 -15.683 -39.220  1.00  0.00    -0.024 A 
HETATM   30  C   UNL     1       1.207 -15.143 -39.365  1.00  0.00     0.012 A 
HETATM   31  C   UNL     1       2.144 -15.215 -38.330  1.00  0.00     0.001 A 
HETATM   32  C   UNL     1       1.806 -15.826 -37.126  1.00  0.00     0.000 A 
HETATM   33  C   UNL     1       0.533 -16.361 -36.956  1.00  0.00     0.001 A 
HETATM   34  C   UNL     1      -0.403 -16.287 -37.991  1.00  0.00     0.012 A 
ENDBRANCH  24  29
ENDBRANCH  20  23
ENDBRANCH   1  19
TORSDOF 7
ENDMDL
