MODEL 1
REMARK VINA RESULT:      -8.6      0.000      0.000
REMARK  5 active torsions:
REMARK  status: ('A' for Active; 'I' for Inactive)
REMARK    1  A    between atoms: C_4  and  O_5 
REMARK    2  A    between atoms: O_5  and  C_6 
REMARK    3  A    between atoms: C_6  and  C_7 
REMARK       I    between atoms: C_7  and  N_8 
REMARK    4  A    between atoms: N_8  and  N_9 
REMARK    5  A    between atoms: C_10  and  C_11 
ROOT
HETATM    1  C   UNL     1      -9.172   2.365 -34.276  1.00  0.00     0.261 C 
HETATM    2  N   UNL     1      -8.951   1.143 -34.905  1.00  0.00    -0.246 N 
HETATM    3  O   UNL     1      -8.339   3.026 -33.659  1.00  0.00    -0.269 OA
HETATM    4  H   UNL     1      -9.777   0.607 -35.167  1.00  0.00     0.192 HD
ENDROOT
BRANCH   2   5
HETATM    5  N   UNL     1      -7.782   0.419 -34.923  1.00  0.00    -0.184 NA
HETATM    6  C   UNL     1      -7.354  -0.116 -33.825  1.00  0.00     0.152 C 
BRANCH   6   7
HETATM    7  C   UNL     1      -6.134  -0.900 -33.831  1.00  0.00     0.011 A 
HETATM    8  C   UNL     1      -6.013  -2.284 -34.185  1.00  0.00     0.004 A 
HETATM    9  C   UNL     1      -4.672  -2.639 -34.032  1.00  0.00     0.043 A 
HETATM   10  C   UNL     1      -6.921  -3.268 -34.632  1.00  0.00     0.014 A 
HETATM   11  C   UNL     1      -4.196  -3.929 -34.295  1.00  0.00     0.030 A 
HETATM   12  N   UNL     1      -4.003  -1.515 -33.605  1.00  0.00    -0.364 N 
HETATM   13  C   UNL     1      -5.117  -4.884 -34.736  1.00  0.00     0.002 A 
HETATM   14  C   UNL     1      -6.461  -4.561 -34.904  1.00  0.00     0.001 A 
HETATM   15  H   UNL     1      -3.012  -1.479 -33.411  1.00  0.00     0.165 HD
HETATM   16  C   UNL     1      -4.870  -0.463 -33.487  1.00  0.00     0.102 A 
ENDBRANCH   6   7
ENDBRANCH   2   5
BRANCH   1  17
HETATM   17  C   UNL     1     -10.580   2.899 -34.510  1.00  0.00     0.280 C 
BRANCH  17  18
HETATM   18  O   UNL     1     -11.345   2.899 -33.308  1.00  0.00    -0.342 OA
BRANCH  18  19
HETATM   19  C   UNL     1     -12.554   2.257 -33.407  1.00  0.00     0.069 A 
HETATM   20  C   UNL     1     -13.718   2.645 -32.738  1.00  0.00     0.043 A 
HETATM   21  C   UNL     1     -14.905   1.915 -32.891  1.00  0.00    -0.059 A 
HETATM   22  C   UNL     1     -16.161   2.344 -32.190  1.00  0.00     0.048 C 
HETATM   23  C   UNL     1     -14.922   0.811 -33.752  1.00  0.00     0.007 A 
HETATM   24  C   UNL     1     -13.766   0.436 -34.438  1.00  0.00     0.003 A 
HETATM   25  C   UNL     1     -12.588   1.162 -34.270  1.00  0.00     0.037 A 
ENDBRANCH  18  19
ENDBRANCH  17  18
ENDBRANCH   1  17
TORSDOF 5
ENDMDL
MODEL 2
REMARK VINA RESULT:      -8.1      5.140      8.615
REMARK  5 active torsions:
REMARK  status: ('A' for Active; 'I' for Inactive)
REMARK    1  A    between atoms: C_4  and  O_5 
REMARK    2  A    between atoms: O_5  and  C_6 
REMARK    3  A    between atoms: C_6  and  C_7 
REMARK       I    between atoms: C_7  and  N_8 
REMARK    4  A    between atoms: N_8  and  N_9 
REMARK    5  A    between atoms: C_10  and  C_11 
ROOT
HETATM    1  C   UNL     1      -6.629   1.880 -32.601  1.00  0.00     0.261 C 
HETATM    2  N   UNL     1      -5.466   2.311 -31.971  1.00  0.00    -0.246 N 
HETATM    3  O   UNL     1      -7.241   2.476 -33.486  1.00  0.00    -0.269 OA
HETATM    4  H   UNL     1      -5.211   1.835 -31.107  1.00  0.00     0.192 HD
ENDROOT
BRANCH   2   5
HETATM    5  N   UNL     1      -4.801   3.496 -32.178  1.00  0.00    -0.184 NA
HETATM    6  C   UNL     1      -3.682   3.485 -32.829  1.00  0.00     0.152 C 
BRANCH   6   7
HETATM    7  C   UNL     1      -2.978   4.729 -33.076  1.00  0.00     0.011 A 
HETATM    8  C   UNL     1      -1.876   5.249 -32.320  1.00  0.00     0.004 A 
HETATM    9  C   UNL     1      -1.521   6.474 -32.886  1.00  0.00     0.043 A 
HETATM   10  C   UNL     1      -1.139   4.784 -31.209  1.00  0.00     0.014 A 
HETATM   11  C   UNL     1      -0.473   7.261 -32.393  1.00  0.00     0.030 A 
HETATM   12  N   UNL     1      -2.371   6.690 -33.947  1.00  0.00    -0.364 N 
HETATM   13  C   UNL     1       0.240   6.777 -31.292  1.00  0.00     0.002 A 
HETATM   14  C   UNL     1      -0.086   5.556 -30.707  1.00  0.00     0.001 A 
HETATM   15  H   UNL     1      -2.345   7.505 -34.544  1.00  0.00     0.165 HD
HETATM   16  C   UNL     1      -3.246   5.646 -34.074  1.00  0.00     0.102 A 
ENDBRANCH   6   7
ENDBRANCH   2   5
BRANCH   1  17
HETATM   17  C   UNL     1      -7.056   0.485 -32.156  1.00  0.00     0.280 C 
BRANCH  17  18
HETATM   18  O   UNL     1      -7.521  -0.293 -33.255  1.00  0.00    -0.342 OA
BRANCH  18  19
HETATM   19  C   UNL     1      -6.652  -1.273 -33.662  1.00  0.00     0.069 A 
HETATM   20  C   UNL     1      -7.021  -2.422 -34.368  1.00  0.00     0.043 A 
HETATM   21  C   UNL     1      -6.060  -3.377 -34.728  1.00  0.00    -0.059 A 
HETATM   22  C   UNL     1      -6.453  -4.600 -35.505  1.00  0.00     0.048 C 
HETATM   23  C   UNL     1      -4.717  -3.151 -34.405  1.00  0.00     0.007 A 
HETATM   24  C   UNL     1      -4.343  -1.993 -33.719  1.00  0.00     0.003 A 
HETATM   25  C   UNL     1      -5.309  -1.055 -33.356  1.00  0.00     0.037 A 
ENDBRANCH  18  19
ENDBRANCH  17  18
ENDBRANCH   1  17
TORSDOF 5
ENDMDL
MODEL 3
REMARK VINA RESULT:      -8.1      1.970      8.544
REMARK  5 active torsions:
REMARK  status: ('A' for Active; 'I' for Inactive)
REMARK    1  A    between atoms: C_4  and  O_5 
REMARK    2  A    between atoms: O_5  and  C_6 
REMARK    3  A    between atoms: C_6  and  C_7 
REMARK       I    between atoms: C_7  and  N_8 
REMARK    4  A    between atoms: N_8  and  N_9 
REMARK    5  A    between atoms: C_10  and  C_11 
ROOT
HETATM    1  C   UNL     1      -6.622   0.900 -32.241  1.00  0.00     0.261 C 
HETATM    2  N   UNL     1      -7.897   0.416 -32.519  1.00  0.00    -0.246 N 
HETATM    3  O   UNL     1      -6.352   1.973 -31.705  1.00  0.00    -0.269 OA
HETATM    4  H   UNL     1      -7.959  -0.365 -33.170  1.00  0.00     0.192 HD
ENDROOT
BRANCH   2   5
HETATM    5  N   UNL     1      -9.094   1.055 -32.292  1.00  0.00    -0.184 NA
HETATM    6  C   UNL     1      -9.721   1.592 -33.289  1.00  0.00     0.152 C 
BRANCH   6   7
HETATM    7  C   UNL     1     -10.995   2.251 -33.069  1.00  0.00     0.011 A 
HETATM    8  C   UNL     1     -12.294   1.690 -33.300  1.00  0.00     0.004 A 
HETATM    9  C   UNL     1     -13.235   2.670 -32.979  1.00  0.00     0.043 A 
HETATM   10  C   UNL     1     -12.758   0.433 -33.744  1.00  0.00     0.014 A 
HETATM   11  C   UNL     1     -14.615   2.459 -33.088  1.00  0.00     0.030 A 
HETATM   12  N   UNL     1     -12.536   3.781 -32.566  1.00  0.00    -0.364 N 
HETATM   13  C   UNL     1     -15.047   1.205 -33.531  1.00  0.00     0.002 A 
HETATM   14  C   UNL     1     -14.134   0.204 -33.854  1.00  0.00     0.001 A 
HETATM   15  H   UNL     1     -12.963   4.648 -32.272  1.00  0.00     0.165 HD
HETATM   16  C   UNL     1     -11.190   3.539 -32.611  1.00  0.00     0.102 A 
ENDBRANCH   6   7
ENDBRANCH   2   5
BRANCH   1  17
HETATM   17  C   UNL     1      -5.527  -0.104 -32.581  1.00  0.00     0.280 C 
BRANCH  17  18
HETATM   18  O   UNL     1      -5.573  -0.483 -33.954  1.00  0.00    -0.342 OA
BRANCH  18  19
HETATM   19  C   UNL     1      -5.538  -1.838 -34.168  1.00  0.00     0.069 A 
HETATM   20  C   UNL     1      -4.430  -2.655 -33.921  1.00  0.00     0.043 A 
HETATM   21  C   UNL     1      -4.486  -4.030 -34.187  1.00  0.00    -0.059 A 
HETATM   22  C   UNL     1      -3.305  -4.910 -33.902  1.00  0.00     0.048 C 
HETATM   23  C   UNL     1      -5.677  -4.585 -34.670  1.00  0.00     0.007 A 
HETATM   24  C   UNL     1      -6.790  -3.775 -34.896  1.00  0.00     0.003 A 
HETATM   25  C   UNL     1      -6.721  -2.405 -34.639  1.00  0.00     0.037 A 
ENDBRANCH  18  19
ENDBRANCH  17  18
ENDBRANCH   1  17
TORSDOF 5
ENDMDL
MODEL 4
REMARK VINA RESULT:      -7.9      4.500      6.676
REMARK  5 active torsions:
REMARK  status: ('A' for Active; 'I' for Inactive)
REMARK    1  A    between atoms: C_4  and  O_5 
REMARK    2  A    between atoms: O_5  and  C_6 
REMARK    3  A    between atoms: C_6  and  C_7 
REMARK       I    between atoms: C_7  and  N_8 
REMARK    4  A    between atoms: N_8  and  N_9 
REMARK    5  A    between atoms: C_10  and  C_11 
ROOT
HETATM    1  C   UNL     1      -6.767   2.362 -33.731  1.00  0.00     0.261 C 
HETATM    2  N   UNL     1      -6.286   1.793 -32.555  1.00  0.00    -0.246 N 
HETATM    3  O   UNL     1      -6.842   1.810 -34.827  1.00  0.00    -0.269 OA
HETATM    4  H   UNL     1      -6.066   2.434 -31.794  1.00  0.00     0.192 HD
ENDROOT
BRANCH   2   5
HETATM    5  N   UNL     1      -5.766   0.530 -32.397  1.00  0.00    -0.184 NA
HETATM    6  C   UNL     1      -4.539   0.306 -32.743  1.00  0.00     0.152 C 
BRANCH   6   7
HETATM    7  C   UNL     1      -3.968  -1.015 -32.563  1.00  0.00     0.011 A 
HETATM    8  C   UNL     1      -4.328  -2.203 -33.279  1.00  0.00     0.004 A 
HETATM    9  C   UNL     1      -3.549  -3.247 -32.777  1.00  0.00     0.043 A 
HETATM   10  C   UNL     1      -5.239  -2.487 -34.319  1.00  0.00     0.014 A 
HETATM   11  C   UNL     1      -3.642  -4.560 -33.254  1.00  0.00     0.030 A 
HETATM   12  N   UNL     1      -2.745  -2.714 -31.795  1.00  0.00    -0.364 N 
HETATM   13  C   UNL     1      -4.554  -4.812 -34.284  1.00  0.00     0.002 A 
HETATM   14  C   UNL     1      -5.342  -3.792 -34.812  1.00  0.00     0.001 A 
HETATM   15  H   UNL     1      -2.074  -3.243 -31.255  1.00  0.00     0.165 HD
HETATM   16  C   UNL     1      -2.983  -1.373 -31.662  1.00  0.00     0.102 A 
ENDBRANCH   6   7
ENDBRANCH   2   5
BRANCH   1  17
HETATM   17  C   UNL     1      -7.317   3.768 -33.521  1.00  0.00     0.280 C 
BRANCH  17  18
HETATM   18  O   UNL     1      -6.705   4.704 -34.404  1.00  0.00    -0.342 OA
BRANCH  18  19
HETATM   19  C   UNL     1      -5.484   5.165 -33.982  1.00  0.00     0.069 A 
HETATM   20  C   UNL     1      -4.277   4.956 -34.657  1.00  0.00     0.043 A 
HETATM   21  C   UNL     1      -3.074   5.455 -34.137  1.00  0.00    -0.059 A 
HETATM   22  C   UNL     1      -1.782   5.249 -34.872  1.00  0.00     0.048 C 
HETATM   23  C   UNL     1      -3.098   6.198 -32.951  1.00  0.00     0.007 A 
HETATM   24  C   UNL     1      -4.305   6.427 -32.288  1.00  0.00     0.003 A 
HETATM   25  C   UNL     1      -5.495   5.916 -32.807  1.00  0.00     0.037 A 
ENDBRANCH  18  19
ENDBRANCH  17  18
ENDBRANCH   1  17
TORSDOF 5
ENDMDL
MODEL 5
REMARK VINA RESULT:      -7.9      5.964      7.833
REMARK  5 active torsions:
REMARK  status: ('A' for Active; 'I' for Inactive)
REMARK    1  A    between atoms: C_4  and  O_5 
REMARK    2  A    between atoms: O_5  and  C_6 
REMARK    3  A    between atoms: C_6  and  C_7 
REMARK       I    between atoms: C_7  and  N_8 
REMARK    4  A    between atoms: N_8  and  N_9 
REMARK    5  A    between atoms: C_10  and  C_11 
ROOT
HETATM    1  C   UNL     1      -4.419   2.985 -31.758  1.00  0.00     0.261 C 
HETATM    2  N   UNL     1      -5.105   1.875 -32.242  1.00  0.00    -0.246 N 
HETATM    3  O   UNL     1      -3.371   2.970 -31.116  1.00  0.00    -0.269 OA
HETATM    4  H   UNL     1      -6.065   2.026 -32.545  1.00  0.00     0.192 HD
ENDROOT
BRANCH   2   5
HETATM    5  N   UNL     1      -4.773   0.553 -32.063  1.00  0.00    -0.184 NA
HETATM    6  C   UNL     1      -4.341  -0.131 -33.073  1.00  0.00     0.152 C 
BRANCH   6   7
HETATM    7  C   UNL     1      -3.966  -1.522 -32.897  1.00  0.00     0.011 A 
HETATM    8  C   UNL     1      -4.473  -2.641 -33.635  1.00  0.00     0.004 A 
HETATM    9  C   UNL     1      -3.861  -3.788 -33.128  1.00  0.00     0.043 A 
HETATM   10  C   UNL     1      -5.390  -2.784 -34.698  1.00  0.00     0.014 A 
HETATM   11  C   UNL     1      -4.127  -5.071 -33.624  1.00  0.00     0.030 A 
HETATM   12  N   UNL     1      -3.013  -3.383 -32.123  1.00  0.00    -0.364 N 
HETATM   13  C   UNL     1      -5.040  -5.183 -34.677  1.00  0.00     0.002 A 
HETATM   14  C   UNL     1      -5.664  -4.057 -35.209  1.00  0.00     0.001 A 
HETATM   15  H   UNL     1      -2.436  -4.006 -31.575  1.00  0.00     0.165 HD
HETATM   16  C   UNL     1      -3.063  -2.023 -31.979  1.00  0.00     0.102 A 
ENDBRANCH   6   7
ENDBRANCH   2   5
BRANCH   1  17
HETATM   17  C   UNL     1      -5.050   4.302 -32.197  1.00  0.00     0.280 C 
BRANCH  17  18
HETATM   18  O   UNL     1      -4.613   4.682 -33.498  1.00  0.00    -0.342 OA
BRANCH  18  19
HETATM   19  C   UNL     1      -3.483   5.460 -33.510  1.00  0.00     0.069 A 
HETATM   20  C   UNL     1      -3.257   6.550 -32.664  1.00  0.00     0.043 A 
HETATM   21  C   UNL     1      -2.073   7.295 -32.762  1.00  0.00    -0.059 A 
HETATM   22  C   UNL     1      -1.821   8.451 -31.839  1.00  0.00     0.048 C 
HETATM   23  C   UNL     1      -1.101   6.914 -33.695  1.00  0.00     0.007 A 
HETATM   24  C   UNL     1      -1.316   5.813 -34.525  1.00  0.00     0.003 A 
HETATM   25  C   UNL     1      -2.502   5.085 -34.427  1.00  0.00     0.037 A 
ENDBRANCH  18  19
ENDBRANCH  17  18
ENDBRANCH   1  17
TORSDOF 5
ENDMDL
MODEL 6
REMARK VINA RESULT:      -7.9      6.922     10.031
REMARK  5 active torsions:
REMARK  status: ('A' for Active; 'I' for Inactive)
REMARK    1  A    between atoms: C_4  and  O_5 
REMARK    2  A    between atoms: O_5  and  C_6 
REMARK    3  A    between atoms: C_6  and  C_7 
REMARK       I    between atoms: C_7  and  N_8 
REMARK    4  A    between atoms: N_8  and  N_9 
REMARK    5  A    between atoms: C_10  and  C_11 
ROOT
HETATM    1  C   UNL     1      -2.145   4.681 -32.463  1.00  0.00     0.261 C 
HETATM    2  N   UNL     1      -2.737   3.596 -31.823  1.00  0.00    -0.246 N 
HETATM    3  O   UNL     1      -1.807   4.734 -33.644  1.00  0.00    -0.269 OA
HETATM    4  H   UNL     1      -2.742   3.612 -30.805  1.00  0.00     0.192 HD
ENDROOT
BRANCH   2   5
HETATM    5  N   UNL     1      -3.019   2.366 -32.369  1.00  0.00    -0.184 NA
HETATM    6  C   UNL     1      -3.457   1.421 -31.599  1.00  0.00     0.152 C 
BRANCH   6   7
HETATM    7  C   UNL     1      -3.780   0.123 -32.162  1.00  0.00     0.011 A 
HETATM    8  C   UNL     1      -4.851  -0.168 -33.069  1.00  0.00     0.004 A 
HETATM    9  C   UNL     1      -4.811  -1.538 -33.337  1.00  0.00     0.043 A 
HETATM   10  C   UNL     1      -5.848   0.609 -33.697  1.00  0.00     0.014 A 
HETATM   11  C   UNL     1      -5.721  -2.169 -34.193  1.00  0.00     0.030 A 
HETATM   12  N   UNL     1      -3.755  -2.058 -32.623  1.00  0.00    -0.364 N 
HETATM   13  C   UNL     1      -6.698  -1.375 -34.801  1.00  0.00     0.002 A 
HETATM   14  C   UNL     1      -6.762  -0.005 -34.560  1.00  0.00     0.001 A 
HETATM   15  H   UNL     1      -3.488  -3.032 -32.625  1.00  0.00     0.165 HD
HETATM   16  C   UNL     1      -3.125  -1.068 -31.918  1.00  0.00     0.102 A 
ENDBRANCH   6   7
ENDBRANCH   2   5
BRANCH   1  17
HETATM   17  C   UNL     1      -2.032   5.905 -31.560  1.00  0.00     0.280 C 
BRANCH  17  18
HETATM   18  O   UNL     1      -0.936   5.788 -30.658  1.00  0.00    -0.342 OA
BRANCH  18  19
HETATM   19  C   UNL     1      -0.798   6.846 -29.795  1.00  0.00     0.069 A 
HETATM   20  C   UNL     1       0.390   7.192 -29.143  1.00  0.00     0.043 A 
HETATM   21  C   UNL     1       0.429   8.285 -28.266  1.00  0.00    -0.059 A 
HETATM   22  C   UNL     1       1.708   8.669 -27.583  1.00  0.00     0.048 C 
HETATM   23  C   UNL     1      -0.727   9.051 -28.077  1.00  0.00     0.007 A 
HETATM   24  C   UNL     1      -1.908   8.721 -28.745  1.00  0.00     0.003 A 
HETATM   25  C   UNL     1      -1.939   7.624 -29.606  1.00  0.00     0.037 A 
ENDBRANCH  18  19
ENDBRANCH  17  18
ENDBRANCH   1  17
TORSDOF 5
ENDMDL
MODEL 7
REMARK VINA RESULT:      -7.8      5.515      8.893
REMARK  5 active torsions:
REMARK  status: ('A' for Active; 'I' for Inactive)
REMARK    1  A    between atoms: C_4  and  O_5 
REMARK    2  A    between atoms: O_5  and  C_6 
REMARK    3  A    between atoms: C_6  and  C_7 
REMARK       I    between atoms: C_7  and  N_8 
REMARK    4  A    between atoms: N_8  and  N_9 
REMARK    5  A    between atoms: C_10  and  C_11 
ROOT
HETATM    1  C   UNL     1      -6.747   2.283 -32.954  1.00  0.00     0.261 C 
HETATM    2  N   UNL     1      -5.516   2.923 -33.064  1.00  0.00    -0.246 N 
HETATM    3  O   UNL     1      -7.673   2.610 -32.214  1.00  0.00    -0.269 OA
HETATM    4  H   UNL     1      -4.773   2.409 -33.534  1.00  0.00     0.192 HD
ENDROOT
BRANCH   2   5
HETATM    5  N   UNL     1      -5.079   4.010 -32.343  1.00  0.00    -0.184 NA
HETATM    6  C   UNL     1      -3.844   4.055 -31.958  1.00  0.00     0.152 C 
BRANCH   6   7
HETATM    7  C   UNL     1      -3.361   5.204 -31.215  1.00  0.00     0.011 A 
HETATM    8  C   UNL     1      -1.996   5.621 -31.085  1.00  0.00     0.004 A 
HETATM    9  C   UNL     1      -1.982   6.755 -30.271  1.00  0.00     0.043 A 
HETATM   10  C   UNL     1      -0.769   5.143 -31.593  1.00  0.00     0.014 A 
HETATM   11  C   UNL     1      -0.802   7.429 -29.933  1.00  0.00     0.030 A 
HETATM   12  N   UNL     1      -3.287   7.019 -29.923  1.00  0.00    -0.364 N 
HETATM   13  C   UNL     1       0.399   6.935 -30.450  1.00  0.00     0.002 A 
HETATM   14  C   UNL     1       0.419   5.809 -31.270  1.00  0.00     0.001 A 
HETATM   15  H   UNL     1      -3.577   7.787 -29.334  1.00  0.00     0.165 HD
HETATM   16  C   UNL     1      -4.125   6.098 -30.489  1.00  0.00     0.102 A 
ENDBRANCH   6   7
ENDBRANCH   2   5
BRANCH   1  17
HETATM   17  C   UNL     1      -6.906   1.141 -33.951  1.00  0.00     0.280 C 
BRANCH  17  18
HETATM   18  O   UNL     1      -7.213  -0.086 -33.295  1.00  0.00    -0.342 OA
BRANCH  18  19
HETATM   19  C   UNL     1      -6.433  -1.145 -33.685  1.00  0.00     0.069 A 
HETATM   20  C   UNL     1      -6.904  -2.272 -34.366  1.00  0.00     0.043 A 
HETATM   21  C   UNL     1      -6.030  -3.314 -34.709  1.00  0.00    -0.059 A 
HETATM   22  C   UNL     1      -6.531  -4.513 -35.459  1.00  0.00     0.048 C 
HETATM   23  C   UNL     1      -4.672  -3.198 -34.393  1.00  0.00     0.007 A 
HETATM   24  C   UNL     1      -4.196  -2.064 -33.733  1.00  0.00     0.003 A 
HETATM   25  C   UNL     1      -5.076  -1.039 -33.386  1.00  0.00     0.037 A 
ENDBRANCH  18  19
ENDBRANCH  17  18
ENDBRANCH   1  17
TORSDOF 5
ENDMDL
MODEL 8
REMARK VINA RESULT:      -7.4      2.119      2.986
REMARK  5 active torsions:
REMARK  status: ('A' for Active; 'I' for Inactive)
REMARK    1  A    between atoms: C_4  and  O_5 
REMARK    2  A    between atoms: O_5  and  C_6 
REMARK    3  A    between atoms: C_6  and  C_7 
REMARK       I    between atoms: C_7  and  N_8 
REMARK    4  A    between atoms: N_8  and  N_9 
REMARK    5  A    between atoms: C_10  and  C_11 
ROOT
HETATM    1  C   UNL     1      -6.784   2.218 -33.624  1.00  0.00     0.261 C 
HETATM    2  N   UNL     1      -6.304   1.629 -32.458  1.00  0.00    -0.246 N 
HETATM    3  O   UNL     1      -6.840   1.692 -34.734  1.00  0.00    -0.269 OA
HETATM    4  H   UNL     1      -6.101   2.255 -31.680  1.00  0.00     0.192 HD
ENDROOT
BRANCH   2   5
HETATM    5  N   UNL     1      -5.763   0.372 -32.325  1.00  0.00    -0.184 NA
HETATM    6  C   UNL     1      -4.528   0.179 -32.660  1.00  0.00     0.152 C 
BRANCH   6   7
HETATM    7  C   UNL     1      -3.935  -1.136 -32.506  1.00  0.00     0.011 A 
HETATM    8  C   UNL     1      -4.305  -2.325 -33.216  1.00  0.00     0.004 A 
HETATM    9  C   UNL     1      -3.497  -3.361 -32.746  1.00  0.00     0.043 A 
HETATM   10  C   UNL     1      -5.249  -2.614 -34.225  1.00  0.00     0.014 A 
HETATM   11  C   UNL     1      -3.591  -4.673 -33.227  1.00  0.00     0.030 A 
HETATM   12  N   UNL     1      -2.666  -2.823 -31.790  1.00  0.00    -0.364 N 
HETATM   13  C   UNL     1      -4.535  -4.932 -34.226  1.00  0.00     0.002 A 
HETATM   14  C   UNL     1      -5.352  -3.918 -34.721  1.00  0.00     0.001 A 
HETATM   15  H   UNL     1      -1.971  -3.347 -31.276  1.00  0.00     0.165 HD
HETATM   16  C   UNL     1      -2.916  -1.486 -31.642  1.00  0.00     0.102 A 
ENDBRANCH   6   7
ENDBRANCH   2   5
BRANCH   1  17
HETATM   17  C   UNL     1      -7.361   3.609 -33.386  1.00  0.00     0.280 C 
BRANCH  17  18
HETATM   18  O   UNL     1      -8.595   3.548 -32.678  1.00  0.00    -0.342 OA
BRANCH  18  19
HETATM   19  C   UNL     1      -9.683   3.255 -33.461  1.00  0.00     0.069 A 
HETATM   20  C   UNL     1     -10.537   2.165 -33.263  1.00  0.00     0.043 A 
HETATM   21  C   UNL     1     -11.616   1.939 -34.128  1.00  0.00    -0.059 A 
HETATM   22  C   UNL     1     -12.544   0.782 -33.903  1.00  0.00     0.048 C 
HETATM   23  C   UNL     1     -11.853   2.838 -35.174  1.00  0.00     0.007 A 
HETATM   24  C   UNL     1     -11.015   3.939 -35.360  1.00  0.00     0.003 A 
HETATM   25  C   UNL     1      -9.937   4.148 -34.500  1.00  0.00     0.037 A 
ENDBRANCH  18  19
ENDBRANCH  17  18
ENDBRANCH   1  17
TORSDOF 5
ENDMDL
MODEL 9
REMARK VINA RESULT:      -7.4      5.041      8.311
REMARK  5 active torsions:
REMARK  status: ('A' for Active; 'I' for Inactive)
REMARK    1  A    between atoms: C_4  and  O_5 
REMARK    2  A    between atoms: O_5  and  C_6 
REMARK    3  A    between atoms: C_6  and  C_7 
REMARK       I    between atoms: C_7  and  N_8 
REMARK    4  A    between atoms: N_8  and  N_9 
REMARK    5  A    between atoms: C_10  and  C_11 
ROOT
HETATM    1  C   UNL     1      -5.332   2.671 -31.120  1.00  0.00     0.261 C 
HETATM    2  N   UNL     1      -5.421   2.412 -32.484  1.00  0.00    -0.246 N 
HETATM    3  O   UNL     1      -5.680   1.918 -30.212  1.00  0.00    -0.269 OA
HETATM    4  H   UNL     1      -5.318   3.210 -33.109  1.00  0.00     0.192 HD
ENDROOT
BRANCH   2   5
HETATM    5  N   UNL     1      -5.949   1.292 -33.083  1.00  0.00    -0.184 NA
HETATM    6  C   UNL     1      -5.196   0.252 -33.249  1.00  0.00     0.152 C 
BRANCH   6   7
HETATM    7  C   UNL     1      -5.743  -0.945 -33.859  1.00  0.00     0.011 A 
HETATM    8  C   UNL     1      -5.142  -2.246 -33.870  1.00  0.00     0.004 A 
HETATM    9  C   UNL     1      -5.993  -3.094 -34.580  1.00  0.00     0.043 A 
HETATM   10  C   UNL     1      -3.954  -2.785 -33.332  1.00  0.00     0.014 A 
HETATM   11  C   UNL     1      -5.712  -4.451 -34.787  1.00  0.00     0.030 A 
HETATM   12  N   UNL     1      -7.072  -2.340 -34.982  1.00  0.00    -0.364 N 
HETATM   13  C   UNL     1      -4.528  -4.958 -34.243  1.00  0.00     0.002 A 
HETATM   14  C   UNL     1      -3.660  -4.139 -33.524  1.00  0.00     0.001 A 
HETATM   15  H   UNL     1      -7.851  -2.696 -35.519  1.00  0.00     0.165 HD
HETATM   16  C   UNL     1      -6.935  -1.049 -34.549  1.00  0.00     0.102 A 
ENDBRANCH   6   7
ENDBRANCH   2   5
BRANCH   1  17
HETATM   17  C   UNL     1      -4.640   3.995 -30.817  1.00  0.00     0.280 C 
BRANCH  17  18
HETATM   18  O   UNL     1      -3.925   4.481 -31.950  1.00  0.00    -0.342 OA
BRANCH  18  19
HETATM   19  C   UNL     1      -2.850   5.276 -31.642  1.00  0.00     0.069 A 
HETATM   20  C   UNL     1      -1.543   4.814 -31.463  1.00  0.00     0.043 A 
HETATM   21  C   UNL     1      -0.511   5.705 -31.135  1.00  0.00    -0.059 A 
HETATM   22  C   UNL     1       0.896   5.211 -30.963  1.00  0.00     0.048 C 
HETATM   23  C   UNL     1      -0.797   7.070 -31.023  1.00  0.00     0.007 A 
HETATM   24  C   UNL     1      -2.097   7.536 -31.224  1.00  0.00     0.003 A 
HETATM   25  C   UNL     1      -3.118   6.640 -31.539  1.00  0.00     0.037 A 
ENDBRANCH  18  19
ENDBRANCH  17  18
ENDBRANCH   1  17
TORSDOF 5
ENDMDL
MODEL 10
REMARK VINA RESULT:      -7.3      1.878      8.908
REMARK  5 active torsions:
REMARK  status: ('A' for Active; 'I' for Inactive)
REMARK    1  A    between atoms: C_4  and  O_5 
REMARK    2  A    between atoms: O_5  and  C_6 
REMARK    3  A    between atoms: C_6  and  C_7 
REMARK       I    between atoms: C_7  and  N_8 
REMARK    4  A    between atoms: N_8  and  N_9 
REMARK    5  A    between atoms: C_10  and  C_11 
ROOT
HETATM    1  C   UNL     1      -8.168   1.913 -33.755  1.00  0.00     0.261 C 
HETATM    2  N   UNL     1      -9.027   0.824 -33.646  1.00  0.00    -0.246 N 
HETATM    3  O   UNL     1      -8.427   3.078 -33.457  1.00  0.00    -0.269 OA
HETATM    4  H   UNL     1      -8.759  -0.022 -34.145  1.00  0.00     0.192 HD
ENDROOT
BRANCH   2   5
HETATM    5  N   UNL     1     -10.337   0.840 -33.228  1.00  0.00    -0.184 NA
HETATM    6  C   UNL     1     -11.271   1.083 -34.092  1.00  0.00     0.152 C 
BRANCH   6   7
HETATM    7  C   UNL     1     -12.659   1.083 -33.673  1.00  0.00     0.011 A 
HETATM    8  C   UNL     1     -13.371   2.179 -33.084  1.00  0.00     0.004 A 
HETATM    9  C   UNL     1     -14.669   1.740 -32.819  1.00  0.00     0.043 A 
HETATM   10  C   UNL     1     -13.034   3.510 -32.761  1.00  0.00     0.014 A 
HETATM   11  C   UNL     1     -15.643   2.562 -32.238  1.00  0.00     0.030 A 
HETATM   12  N   UNL     1     -14.745   0.429 -33.232  1.00  0.00    -0.364 N 
HETATM   13  C   UNL     1     -15.282   3.876 -31.928  1.00  0.00     0.002 A 
HETATM   14  C   UNL     1     -13.996   4.347 -32.185  1.00  0.00     0.001 A 
HETATM   15  H   UNL     1     -15.573  -0.146 -33.161  1.00  0.00     0.165 HD
HETATM   16  C   UNL     1     -13.546   0.026 -33.753  1.00  0.00     0.102 A 
ENDBRANCH   6   7
ENDBRANCH   2   5
BRANCH   1  17
HETATM   17  C   UNL     1      -6.767   1.513 -34.204  1.00  0.00     0.280 C 
BRANCH  17  18
HETATM   18  O   UNL     1      -6.780   0.284 -34.924  1.00  0.00    -0.342 OA
BRANCH  18  19
HETATM   19  C   UNL     1      -5.925  -0.670 -34.432  1.00  0.00     0.069 A 
HETATM   20  C   UNL     1      -4.930  -0.431 -33.478  1.00  0.00     0.043 A 
HETATM   21  C   UNL     1      -4.093  -1.470 -33.047  1.00  0.00    -0.059 A 
HETATM   22  C   UNL     1      -3.039  -1.218 -32.009  1.00  0.00     0.048 C 
HETATM   23  C   UNL     1      -4.286  -2.759 -33.556  1.00  0.00     0.007 A 
HETATM   24  C   UNL     1      -5.293  -3.003 -34.491  1.00  0.00     0.003 A 
HETATM   25  C   UNL     1      -6.114  -1.961 -34.921  1.00  0.00     0.037 A 
ENDBRANCH  18  19
ENDBRANCH  17  18
ENDBRANCH   1  17
TORSDOF 5
ENDMDL
