MODEL 1
REMARK VINA RESULT:      -8.6      0.000      0.000
REMARK  5 active torsions:
REMARK  status: ('A' for Active; 'I' for Inactive)
REMARK    1  A    between atoms: C_2  and  C_3 
REMARK    2  A    between atoms: C_3  and  N_4 
REMARK    3  A    between atoms: N_4  and  C_7 
REMARK    4  A    between atoms: C_10  and  O_11 
REMARK    5  A    between atoms: O_11  and  C_12 
ROOT
HETATM    1  C   UNL     1     -13.158   2.624 -32.687  1.00  0.00     0.164 A 
HETATM    2  N   UNL     1     -13.846   1.596 -33.222  1.00  0.00    -0.236 NA
HETATM    3  C   UNL     1     -15.194   1.624 -33.063  1.00  0.00     0.142 A 
HETATM    4  C   UNL     1     -15.877   2.628 -32.388  1.00  0.00     0.062 A 
HETATM    5  C   UNL     1     -17.299   2.584 -32.267  1.00  0.00     0.101 C 
HETATM    6  N   UNL     1     -18.454   2.545 -32.169  1.00  0.00    -0.191 NA
HETATM    7  C   UNL     1     -15.131   3.669 -31.837  1.00  0.00     0.028 A 
HETATM    8  C   UNL     1     -13.745   3.665 -31.983  1.00  0.00     0.059 A 
ENDROOT
BRANCH   1   9
HETATM    9  O   UNL     1     -11.783   2.651 -32.786  1.00  0.00    -0.329 OA
BRANCH   9  10
HETATM   10  C   UNL     1     -11.232   1.790 -33.791  1.00  0.00     0.130 C 
HETATM   11  C   UNL     1     -10.411   2.689 -34.725  1.00  0.00     0.034 C 
HETATM   12  C   UNL     1      -9.252   3.368 -33.988  1.00  0.00     0.035 C 
HETATM   13  C   UNL     1      -8.337   2.380 -33.256  1.00  0.00     0.186 C 
HETATM   14  C   UNL     1      -9.136   1.386 -32.403  1.00  0.00     0.035 C 
HETATM   15  C   UNL     1     -10.310   0.743 -33.149  1.00  0.00     0.034 C 
BRANCH  13  16
HETATM   16  N   UNL     1      -7.494   1.613 -34.240  1.00  0.00    -0.067 N 
HETATM   17  H   UNL     1      -7.414   2.107 -35.137  1.00  0.00     0.277 HD
HETATM   18  H   UNL     1      -7.961   0.724 -34.469  1.00  0.00     0.277 HD
BRANCH  16  19
HETATM   19  C   UNL     1      -6.122   1.257 -33.759  1.00  0.00     0.271 C 
BRANCH  19  20
HETATM   20  C   UNL     1      -5.848  -0.212 -33.897  1.00  0.00    -0.030 A 
HETATM   21  C   UNL     1      -6.673  -1.020 -34.697  1.00  0.00     0.012 A 
HETATM   22  C   UNL     1      -6.395  -2.381 -34.851  1.00  0.00     0.040 A 
HETATM   23  C   UNL     1      -5.293  -2.943 -34.213  1.00  0.00     0.102 A 
HETATM   24  C   UNL     1      -4.492  -2.159 -33.382  1.00  0.00     0.102 A 
HETATM   25  O   UNL     1      -5.053  -4.271 -34.449  1.00  0.00    -0.346 OA
HETATM   26  C   UNL     1      -4.763  -0.799 -33.228  1.00  0.00     0.048 A 
HETATM   27  O   UNL     1      -3.407  -2.646 -32.702  1.00  0.00    -0.346 OA
HETATM   28  C   UNL     1      -3.370  -4.081 -32.711  1.00  0.00     0.202 C 
HETATM   29  C   UNL     1      -3.712  -4.626 -34.089  1.00  0.00     0.202 C 
ENDBRANCH  19  20
ENDBRANCH  16  19
ENDBRANCH  13  16
ENDBRANCH   9  10
ENDBRANCH   1   9
TORSDOF 5
ENDMDL
MODEL 2
REMARK VINA RESULT:      -8.4      1.323      2.087
REMARK  5 active torsions:
REMARK  status: ('A' for Active; 'I' for Inactive)
REMARK    1  A    between atoms: C_2  and  C_3 
REMARK    2  A    between atoms: C_3  and  N_4 
REMARK    3  A    between atoms: N_4  and  C_7 
REMARK    4  A    between atoms: C_10  and  O_11 
REMARK    5  A    between atoms: O_11  and  C_12 
ROOT
HETATM    1  C   UNL     1     -12.107   2.548 -33.391  1.00  0.00     0.164 A 
HETATM    2  N   UNL     1     -12.571   3.378 -32.435  1.00  0.00    -0.236 NA
HETATM    3  C   UNL     1     -13.887   3.266 -32.125  1.00  0.00     0.142 A 
HETATM    4  C   UNL     1     -14.757   2.369 -32.734  1.00  0.00     0.062 A 
HETATM    5  C   UNL     1     -16.130   2.313 -32.348  1.00  0.00     0.101 C 
HETATM    6  N   UNL     1     -17.245   2.270 -32.034  1.00  0.00    -0.191 NA
HETATM    7  C   UNL     1     -14.244   1.536 -33.727  1.00  0.00     0.028 A 
HETATM    8  C   UNL     1     -12.896   1.630 -34.067  1.00  0.00     0.059 A 
ENDROOT
BRANCH   1   9
HETATM    9  O   UNL     1     -10.785   2.621 -33.776  1.00  0.00    -0.329 OA
BRANCH   9  10
HETATM   10  C   UNL     1     -10.080   1.374 -33.758  1.00  0.00     0.130 C 
HETATM   11  C   UNL     1      -8.724   1.637 -34.428  1.00  0.00     0.034 C 
HETATM   12  C   UNL     1      -7.897   2.667 -33.652  1.00  0.00     0.035 C 
HETATM   13  C   UNL     1      -7.702   2.301 -32.176  1.00  0.00     0.186 C 
HETATM   14  C   UNL     1      -9.026   1.914 -31.505  1.00  0.00     0.035 C 
HETATM   15  C   UNL     1      -9.853   0.909 -32.313  1.00  0.00     0.034 C 
BRANCH  13  16
HETATM   16  N   UNL     1      -6.732   1.157 -32.040  1.00  0.00    -0.067 N 
HETATM   17  H   UNL     1      -7.211   0.250 -32.047  1.00  0.00     0.277 HD
HETATM   18  H   UNL     1      -6.275   1.207 -31.118  1.00  0.00     0.277 HD
BRANCH  16  19
HETATM   19  C   UNL     1      -5.632   1.133 -33.054  1.00  0.00     0.271 C 
BRANCH  19  20
HETATM   20  C   UNL     1      -5.248  -0.270 -33.424  1.00  0.00    -0.030 A 
HETATM   21  C   UNL     1      -3.951  -0.746 -33.172  1.00  0.00     0.012 A 
HETATM   22  C   UNL     1      -3.607  -2.062 -33.487  1.00  0.00     0.040 A 
HETATM   23  C   UNL     1      -4.553  -2.914 -34.050  1.00  0.00     0.102 A 
HETATM   24  C   UNL     1      -5.832  -2.440 -34.344  1.00  0.00     0.102 A 
HETATM   25  O   UNL     1      -4.160  -4.205 -34.285  1.00  0.00    -0.346 OA
HETATM   26  C   UNL     1      -6.181  -1.126 -34.028  1.00  0.00     0.048 A 
HETATM   27  O   UNL     1      -6.807  -3.210 -34.920  1.00  0.00    -0.346 OA
HETATM   28  C   UNL     1      -6.280  -4.438 -35.442  1.00  0.00     0.202 C 
HETATM   29  C   UNL     1      -5.292  -5.065 -34.471  1.00  0.00     0.202 C 
ENDBRANCH  19  20
ENDBRANCH  16  19
ENDBRANCH  13  16
ENDBRANCH   9  10
ENDBRANCH   1   9
TORSDOF 5
ENDMDL
MODEL 3
REMARK VINA RESULT:      -8.4      6.018      9.714
REMARK  5 active torsions:
REMARK  status: ('A' for Active; 'I' for Inactive)
REMARK    1  A    between atoms: C_2  and  C_3 
REMARK    2  A    between atoms: C_3  and  N_4 
REMARK    3  A    between atoms: N_4  and  C_7 
REMARK    4  A    between atoms: C_10  and  O_11 
REMARK    5  A    between atoms: O_11  and  C_12 
ROOT
HETATM    1  C   UNL     1      -1.874   6.410 -30.696  1.00  0.00     0.164 A 
HETATM    2  N   UNL     1      -2.271   7.004 -29.553  1.00  0.00    -0.236 NA
HETATM    3  C   UNL     1      -1.296   7.562 -28.792  1.00  0.00     0.142 A 
HETATM    4  C   UNL     1       0.054   7.545 -29.122  1.00  0.00     0.062 A 
HETATM    5  C   UNL     1       1.018   8.158 -28.266  1.00  0.00     0.101 C 
HETATM    6  N   UNL     1       1.799   8.656 -27.569  1.00  0.00    -0.191 NA
HETATM    7  C   UNL     1       0.428   6.910 -30.305  1.00  0.00     0.028 A 
HETATM    8  C   UNL     1      -0.552   6.326 -31.105  1.00  0.00     0.059 A 
ENDROOT
BRANCH   1   9
HETATM    9  O   UNL     1      -2.806   5.799 -31.508  1.00  0.00    -0.329 OA
BRANCH   9  10
HETATM   10  C   UNL     1      -2.365   4.585 -32.129  1.00  0.00     0.130 C 
HETATM   11  C   UNL     1      -2.957   3.437 -31.299  1.00  0.00     0.034 C 
HETATM   12  C   UNL     1      -4.489   3.455 -31.314  1.00  0.00     0.035 C 
HETATM   13  C   UNL     1      -5.081   3.453 -32.728  1.00  0.00     0.186 C 
HETATM   14  C   UNL     1      -4.425   4.512 -33.624  1.00  0.00     0.035 C 
HETATM   15  C   UNL     1      -2.894   4.499 -33.568  1.00  0.00     0.034 C 
BRANCH  13  16
HETATM   16  N   UNL     1      -4.914   2.099 -33.368  1.00  0.00    -0.067 N 
HETATM   17  H   UNL     1      -4.125   1.583 -32.963  1.00  0.00     0.277 HD
HETATM   18  H   UNL     1      -4.668   2.220 -34.361  1.00  0.00     0.277 HD
BRANCH  16  19
HETATM   19  C   UNL     1      -6.131   1.229 -33.338  1.00  0.00     0.271 C 
BRANCH  19  20
HETATM   20  C   UNL     1      -5.795  -0.206 -33.625  1.00  0.00    -0.030 A 
HETATM   21  C   UNL     1      -6.500  -0.923 -34.606  1.00  0.00     0.012 A 
HETATM   22  C   UNL     1      -6.162  -2.248 -34.893  1.00  0.00     0.040 A 
HETATM   23  C   UNL     1      -5.118  -2.864 -34.210  1.00  0.00     0.102 A 
HETATM   24  C   UNL     1      -4.439  -2.175 -33.204  1.00  0.00     0.102 A 
HETATM   25  O   UNL     1      -4.810  -4.147 -34.579  1.00  0.00    -0.346 OA
HETATM   26  C   UNL     1      -4.770  -0.851 -32.916  1.00  0.00     0.048 A 
HETATM   27  O   UNL     1      -3.419  -2.723 -32.472  1.00  0.00    -0.346 OA
HETATM   28  C   UNL     1      -3.333  -4.145 -32.653  1.00  0.00     0.202 C 
HETATM   29  C   UNL     1      -3.504  -4.519 -34.117  1.00  0.00     0.202 C 
ENDBRANCH  19  20
ENDBRANCH  16  19
ENDBRANCH  13  16
ENDBRANCH   9  10
ENDBRANCH   1   9
TORSDOF 5
ENDMDL
MODEL 4
REMARK VINA RESULT:      -8.0      7.018     10.360
REMARK  5 active torsions:
REMARK  status: ('A' for Active; 'I' for Inactive)
REMARK    1  A    between atoms: C_2  and  C_3 
REMARK    2  A    between atoms: C_3  and  N_4 
REMARK    3  A    between atoms: N_4  and  C_7 
REMARK    4  A    between atoms: C_10  and  O_11 
REMARK    5  A    between atoms: O_11  and  C_12 
ROOT
HETATM    1  C   UNL     1      -5.497   0.033 -33.469  1.00  0.00     0.164 A 
HETATM    2  N   UNL     1      -4.439  -0.802 -33.413  1.00  0.00    -0.236 NA
HETATM    3  C   UNL     1      -4.629  -2.051 -33.907  1.00  0.00     0.142 A 
HETATM    4  C   UNL     1      -5.829  -2.501 -34.446  1.00  0.00     0.062 A 
HETATM    5  C   UNL     1      -5.946  -3.833 -34.947  1.00  0.00     0.101 C 
HETATM    6  N   UNL     1      -6.038  -4.915 -35.353  1.00  0.00    -0.191 NA
HETATM    7  C   UNL     1      -6.904  -1.614 -34.475  1.00  0.00     0.028 A 
HETATM    8  C   UNL     1      -6.738  -0.325 -33.972  1.00  0.00     0.059 A 
ENDROOT
BRANCH   1   9
HETATM    9  O   UNL     1      -5.386   1.310 -32.963  1.00  0.00    -0.329 OA
BRANCH   9  10
HETATM   10  C   UNL     1      -4.196   1.559 -32.204  1.00  0.00     0.130 C 
HETATM   11  C   UNL     1      -3.490   2.740 -32.885  1.00  0.00     0.034 C 
HETATM   12  C   UNL     1      -4.350   4.008 -32.860  1.00  0.00     0.035 C 
HETATM   13  C   UNL     1      -4.810   4.401 -31.452  1.00  0.00     0.186 C 
HETATM   14  C   UNL     1      -5.413   3.210 -30.695  1.00  0.00     0.035 C 
HETATM   15  C   UNL     1      -4.554   1.944 -30.761  1.00  0.00     0.034 C 
BRANCH  13  16
HETATM   16  N   UNL     1      -3.657   4.954 -30.656  1.00  0.00    -0.067 N 
HETATM   17  H   UNL     1      -2.956   4.232 -30.452  1.00  0.00     0.277 HD
HETATM   18  H   UNL     1      -3.997   5.260 -29.733  1.00  0.00     0.277 HD
BRANCH  16  19
HETATM   19  C   UNL     1      -2.973   6.136 -31.266  1.00  0.00     0.271 C 
BRANCH  19  20
HETATM   20  C   UNL     1      -1.836   6.622 -30.415  1.00  0.00    -0.030 A 
HETATM   21  C   UNL     1      -0.514   6.557 -30.885  1.00  0.00     0.012 A 
HETATM   22  C   UNL     1       0.539   7.041 -30.103  1.00  0.00     0.040 A 
HETATM   23  C   UNL     1       0.281   7.596 -28.853  1.00  0.00     0.102 A 
HETATM   24  C   UNL     1      -1.024   7.626 -28.359  1.00  0.00     0.102 A 
HETATM   25  O   UNL     1       1.354   8.095 -28.165  1.00  0.00    -0.346 OA
HETATM   26  C   UNL     1      -2.079   7.147 -29.137  1.00  0.00     0.048 A 
HETATM   27  O   UNL     1      -1.353   8.133 -27.129  1.00  0.00    -0.346 OA
HETATM   28  C   UNL     1      -0.192   8.349 -26.312  1.00  0.00     0.202 C 
HETATM   29  C   UNL     1       0.932   8.980 -27.119  1.00  0.00     0.202 C 
ENDBRANCH  19  20
ENDBRANCH  16  19
ENDBRANCH  13  16
ENDBRANCH   9  10
ENDBRANCH   1   9
TORSDOF 5
ENDMDL
MODEL 5
REMARK VINA RESULT:      -8.0      6.718      9.305
REMARK  5 active torsions:
REMARK  status: ('A' for Active; 'I' for Inactive)
REMARK    1  A    between atoms: C_2  and  C_3 
REMARK    2  A    between atoms: C_3  and  N_4 
REMARK    3  A    between atoms: N_4  and  C_7 
REMARK    4  A    between atoms: C_10  and  O_11 
REMARK    5  A    between atoms: O_11  and  C_12 
ROOT
HETATM    1  C   UNL     1      -5.978   2.168 -33.140  1.00  0.00     0.164 A 
HETATM    2  N   UNL     1      -7.003   2.756 -32.490  1.00  0.00    -0.236 NA
HETATM    3  C   UNL     1      -8.159   2.047 -32.419  1.00  0.00     0.142 A 
HETATM    4  C   UNL     1      -8.333   0.786 -32.974  1.00  0.00     0.062 A 
HETATM    5  C   UNL     1      -9.583   0.105 -32.853  1.00  0.00     0.101 C 
HETATM    6  N   UNL     1     -10.599  -0.444 -32.753  1.00  0.00    -0.191 NA
HETATM    7  C   UNL     1      -7.256   0.215 -33.650  1.00  0.00     0.028 A 
HETATM    8  C   UNL     1      -6.057   0.921 -33.740  1.00  0.00     0.059 A 
ENDROOT
BRANCH   1   9
HETATM    9  O   UNL     1      -4.781   2.838 -33.275  1.00  0.00    -0.329 OA
BRANCH   9  10
HETATM   10  C   UNL     1      -4.799   4.203 -32.837  1.00  0.00     0.130 C 
HETATM   11  C   UNL     1      -3.392   4.500 -32.300  1.00  0.00     0.034 C 
HETATM   12  C   UNL     1      -2.325   4.360 -33.391  1.00  0.00     0.035 C 
HETATM   13  C   UNL     1      -2.614   5.209 -34.634  1.00  0.00     0.186 C 
HETATM   14  C   UNL     1      -4.055   5.027 -35.127  1.00  0.00     0.035 C 
HETATM   15  C   UNL     1      -5.103   5.138 -34.016  1.00  0.00     0.034 C 
BRANCH  13  16
HETATM   16  N   UNL     1      -2.377   6.668 -34.342  1.00  0.00    -0.067 N 
HETATM   17  H   UNL     1      -3.091   7.050 -33.711  1.00  0.00     0.277 HD
HETATM   18  H   UNL     1      -2.478   7.210 -35.213  1.00  0.00     0.277 HD
BRANCH  16  19
HETATM   19  C   UNL     1      -1.022   6.995 -33.797  1.00  0.00     0.271 C 
BRANCH  19  20
HETATM   20  C   UNL     1      -1.082   7.365 -32.344  1.00  0.00    -0.030 A 
HETATM   21  C   UNL     1      -2.016   8.308 -31.885  1.00  0.00     0.012 A 
HETATM   22  C   UNL     1      -2.091   8.625 -30.526  1.00  0.00     0.040 A 
HETATM   23  C   UNL     1      -1.241   8.002 -29.617  1.00  0.00     0.102 A 
HETATM   24  C   UNL     1      -0.281   7.095 -30.068  1.00  0.00     0.102 A 
HETATM   25  O   UNL     1      -1.405   8.323 -28.296  1.00  0.00    -0.346 OA
HETATM   26  C   UNL     1      -0.204   6.773 -31.423  1.00  0.00     0.048 A 
HETATM   27  O   UNL     1       0.606   6.462 -29.238  1.00  0.00    -0.346 OA
HETATM   28  C   UNL     1       0.626   7.049 -27.928  1.00  0.00     0.202 C 
HETATM   29  C   UNL     1      -0.784   7.352 -27.445  1.00  0.00     0.202 C 
ENDBRANCH  19  20
ENDBRANCH  16  19
ENDBRANCH  13  16
ENDBRANCH   9  10
ENDBRANCH   1   9
TORSDOF 5
ENDMDL
MODEL 6
REMARK VINA RESULT:      -7.8     13.762     16.311
REMARK  5 active torsions:
REMARK  status: ('A' for Active; 'I' for Inactive)
REMARK    1  A    between atoms: C_2  and  C_3 
REMARK    2  A    between atoms: C_3  and  N_4 
REMARK    3  A    between atoms: N_4  and  C_7 
REMARK    4  A    between atoms: C_10  and  O_11 
REMARK    5  A    between atoms: O_11  and  C_12 
ROOT
HETATM    1  C   UNL     1      -0.923   6.909 -28.778  1.00  0.00     0.164 A 
HETATM    2  N   UNL     1      -2.156   7.074 -29.298  1.00  0.00    -0.236 NA
HETATM    3  C   UNL     1      -2.431   6.379 -30.431  1.00  0.00     0.142 A 
HETATM    4  C   UNL     1      -1.527   5.536 -31.065  1.00  0.00     0.062 A 
HETATM    5  C   UNL     1      -1.897   4.838 -32.255  1.00  0.00     0.101 C 
HETATM    6  N   UNL     1      -2.199   4.273 -33.221  1.00  0.00    -0.191 NA
HETATM    7  C   UNL     1      -0.258   5.400 -30.505  1.00  0.00     0.028 A 
HETATM    8  C   UNL     1       0.053   6.104 -29.343  1.00  0.00     0.059 A 
ENDROOT
BRANCH   1   9
HETATM    9  O   UNL     1      -0.563   7.602 -27.642  1.00  0.00    -0.329 OA
BRANCH   9  10
HETATM   10  C   UNL     1       0.130   8.834 -27.879  1.00  0.00     0.130 C 
HETATM   11  C   UNL     1      -0.386   9.827 -26.828  1.00  0.00     0.034 C 
HETATM   12  C   UNL     1      -0.067   9.364 -25.403  1.00  0.00     0.035 C 
HETATM   13  C   UNL     1       1.421   9.073 -25.178  1.00  0.00     0.186 C 
HETATM   14  C   UNL     1       2.000   8.178 -26.281  1.00  0.00     0.035 C 
HETATM   15  C   UNL     1       1.642   8.640 -27.697  1.00  0.00     0.034 C 
BRANCH  13  16
HETATM   16  N   UNL     1       2.208  10.356 -25.126  1.00  0.00    -0.067 N 
HETATM   17  H   UNL     1       1.669  11.147 -25.500  1.00  0.00     0.277 HD
HETATM   18  H   UNL     1       3.027  10.279 -25.745  1.00  0.00     0.277 HD
BRANCH  16  19
HETATM   19  C   UNL     1       2.734  10.724 -23.774  1.00  0.00     0.271 C 
BRANCH  19  20
HETATM   20  C   UNL     1       3.693   9.695 -23.252  1.00  0.00    -0.030 A 
HETATM   21  C   UNL     1       3.279   8.750 -22.300  1.00  0.00     0.012 A 
HETATM   22  C   UNL     1       4.165   7.772 -21.841  1.00  0.00     0.040 A 
HETATM   23  C   UNL     1       5.467   7.727 -22.331  1.00  0.00     0.102 A 
HETATM   24  C   UNL     1       5.902   8.687 -23.246  1.00  0.00     0.102 A 
HETATM   25  O   UNL     1       6.264   6.712 -21.875  1.00  0.00    -0.346 OA
HETATM   26  C   UNL     1       5.020   9.663 -23.710  1.00  0.00     0.048 A 
HETATM   27  O   UNL     1       7.174   8.722 -23.753  1.00  0.00    -0.346 OA
HETATM   28  C   UNL     1       8.064   7.860 -23.028  1.00  0.00     0.202 C 
HETATM   29  C   UNL     1       7.403   6.524 -22.726  1.00  0.00     0.202 C 
ENDBRANCH  19  20
ENDBRANCH  16  19
ENDBRANCH  13  16
ENDBRANCH   9  10
ENDBRANCH   1   9
TORSDOF 5
ENDMDL
MODEL 7
REMARK VINA RESULT:      -7.8      6.025      9.750
REMARK  5 active torsions:
REMARK  status: ('A' for Active; 'I' for Inactive)
REMARK    1  A    between atoms: C_2  and  C_3 
REMARK    2  A    between atoms: C_3  and  N_4 
REMARK    3  A    between atoms: N_4  and  C_7 
REMARK    4  A    between atoms: C_10  and  O_11 
REMARK    5  A    between atoms: O_11  and  C_12 
ROOT
HETATM    1  C   UNL     1      -1.486   6.456 -31.196  1.00  0.00     0.164 A 
HETATM    2  N   UNL     1      -0.189   6.087 -31.202  1.00  0.00    -0.236 NA
HETATM    3  C   UNL     1       0.511   6.319 -30.063  1.00  0.00     0.142 A 
HETATM    4  C   UNL     1      -0.027   6.908 -28.926  1.00  0.00     0.062 A 
HETATM    5  C   UNL     1       0.777   7.116 -27.765  1.00  0.00     0.101 C 
HETATM    6  N   UNL     1       1.434   7.283 -26.824  1.00  0.00    -0.191 NA
HETATM    7  C   UNL     1      -1.368   7.289 -28.960  1.00  0.00     0.028 A 
HETATM    8  C   UNL     1      -2.111   7.065 -30.118  1.00  0.00     0.059 A 
ENDROOT
BRANCH   1   9
HETATM    9  O   UNL     1      -2.253   6.275 -32.327  1.00  0.00    -0.329 OA
BRANCH   9  10
HETATM   10  C   UNL     1      -2.331   4.922 -32.795  1.00  0.00     0.130 C 
HETATM   11  C   UNL     1      -3.539   4.292 -32.089  1.00  0.00     0.034 C 
HETATM   12  C   UNL     1      -4.846   5.002 -32.454  1.00  0.00     0.035 C 
HETATM   13  C   UNL     1      -5.092   5.081 -33.965  1.00  0.00     0.186 C 
HETATM   14  C   UNL     1      -3.858   5.595 -34.717  1.00  0.00     0.035 C 
HETATM   15  C   UNL     1      -2.557   4.895 -34.313  1.00  0.00     0.034 C 
BRANCH  13  16
HETATM   16  N   UNL     1      -5.468   3.728 -34.510  1.00  0.00    -0.067 N 
HETATM   17  H   UNL     1      -4.640   3.153 -34.705  1.00  0.00     0.277 HD
HETATM   18  H   UNL     1      -5.929   3.845 -35.423  1.00  0.00     0.277 HD
BRANCH  16  19
HETATM   19  C   UNL     1      -6.414   2.941 -33.658  1.00  0.00     0.271 C 
BRANCH  19  20
HETATM   20  C   UNL     1      -6.325   1.470 -33.942  1.00  0.00    -0.030 A 
HETATM   21  C   UNL     1      -7.308   0.830 -34.714  1.00  0.00     0.012 A 
HETATM   22  C   UNL     1      -7.204  -0.533 -35.004  1.00  0.00     0.040 A 
HETATM   23  C   UNL     1      -6.119  -1.265 -34.532  1.00  0.00     0.102 A 
HETATM   24  C   UNL     1      -5.159  -0.649 -33.728  1.00  0.00     0.102 A 
HETATM   25  O   UNL     1      -6.056  -2.583 -34.897  1.00  0.00    -0.346 OA
HETATM   26  C   UNL     1      -5.256   0.712 -33.438  1.00  0.00     0.048 A 
HETATM   27  O   UNL     1      -4.078  -1.309 -33.206  1.00  0.00    -0.346 OA
HETATM   28  C   UNL     1      -4.207  -2.733 -33.334  1.00  0.00     0.202 C 
HETATM   29  C   UNL     1      -4.737  -3.111 -34.708  1.00  0.00     0.202 C 
ENDBRANCH  19  20
ENDBRANCH  16  19
ENDBRANCH  13  16
ENDBRANCH   9  10
ENDBRANCH   1   9
TORSDOF 5
ENDMDL
MODEL 8
REMARK VINA RESULT:      -7.6      3.003      9.306
REMARK  5 active torsions:
REMARK  status: ('A' for Active; 'I' for Inactive)
REMARK    1  A    between atoms: C_2  and  C_3 
REMARK    2  A    between atoms: C_3  and  N_4 
REMARK    3  A    between atoms: N_4  and  C_7 
REMARK    4  A    between atoms: C_10  and  O_11 
REMARK    5  A    between atoms: O_11  and  C_12 
ROOT
HETATM    1  C   UNL     1      -5.358  -0.157 -32.844  1.00  0.00     0.164 A 
HETATM    2  N   UNL     1      -4.351  -0.612 -32.072  1.00  0.00    -0.236 NA
HETATM    3  C   UNL     1      -3.851  -1.833 -32.389  1.00  0.00     0.142 A 
HETATM    4  C   UNL     1      -4.318  -2.617 -33.436  1.00  0.00     0.062 A 
HETATM    5  C   UNL     1      -3.735  -3.893 -33.706  1.00  0.00     0.101 C 
HETATM    6  N   UNL     1      -3.259  -4.928 -33.921  1.00  0.00    -0.191 NA
HETATM    7  C   UNL     1      -5.369  -2.120 -34.205  1.00  0.00     0.028 A 
HETATM    8  C   UNL     1      -5.904  -0.870 -33.901  1.00  0.00     0.059 A 
ENDROOT
BRANCH   1   9
HETATM    9  O   UNL     1      -5.934   1.064 -32.567  1.00  0.00    -0.329 OA
BRANCH   9  10
HETATM   10  C   UNL     1      -7.025   1.427 -33.421  1.00  0.00     0.130 C 
HETATM   11  C   UNL     1      -8.244   1.614 -32.507  1.00  0.00     0.034 C 
HETATM   12  C   UNL     1      -8.029   2.746 -31.497  1.00  0.00     0.035 C 
HETATM   13  C   UNL     1      -7.642   4.077 -32.151  1.00  0.00     0.186 C 
HETATM   14  C   UNL     1      -6.503   3.905 -33.164  1.00  0.00     0.035 C 
HETATM   15  C   UNL     1      -6.722   2.748 -34.143  1.00  0.00     0.034 C 
BRANCH  13  16
HETATM   16  N   UNL     1      -8.829   4.687 -32.848  1.00  0.00    -0.067 N 
HETATM   17  H   UNL     1      -8.943   4.316 -33.799  1.00  0.00     0.277 HD
HETATM   18  H   UNL     1      -8.667   5.696 -32.976  1.00  0.00     0.277 HD
BRANCH  16  19
HETATM   19  C   UNL     1     -10.129   4.558 -32.119  1.00  0.00     0.271 C 
BRANCH  19  20
HETATM   20  C   UNL     1     -11.133   3.768 -32.907  1.00  0.00    -0.030 A 
HETATM   21  C   UNL     1     -10.889   3.440 -34.250  1.00  0.00     0.012 A 
HETATM   22  C   UNL     1     -11.810   2.676 -34.971  1.00  0.00     0.040 A 
HETATM   23  C   UNL     1     -12.976   2.229 -34.356  1.00  0.00     0.102 A 
HETATM   24  C   UNL     1     -13.249   2.584 -33.034  1.00  0.00     0.102 A 
HETATM   25  O   UNL     1     -13.808   1.442 -35.107  1.00  0.00    -0.346 OA
HETATM   26  C   UNL     1     -12.331   3.345 -32.310  1.00  0.00     0.048 A 
HETATM   27  O   UNL     1     -14.385   2.204 -32.371  1.00  0.00    -0.346 OA
HETATM   28  C   UNL     1     -15.371   1.663 -33.264  1.00  0.00     0.202 C 
HETATM   29  C   UNL     1     -14.733   0.726 -34.278  1.00  0.00     0.202 C 
ENDBRANCH  19  20
ENDBRANCH  16  19
ENDBRANCH  13  16
ENDBRANCH   9  10
ENDBRANCH   1   9
TORSDOF 5
ENDMDL
MODEL 9
REMARK VINA RESULT:      -7.6      3.555      9.806
REMARK  5 active torsions:
REMARK  status: ('A' for Active; 'I' for Inactive)
REMARK    1  A    between atoms: C_2  and  C_3 
REMARK    2  A    between atoms: C_3  and  N_4 
REMARK    3  A    between atoms: N_4  and  C_7 
REMARK    4  A    between atoms: C_10  and  O_11 
REMARK    5  A    between atoms: O_11  and  C_12 
ROOT
HETATM    1  C   UNL     1      -4.690   3.574 -32.426  1.00  0.00     0.164 A 
HETATM    2  N   UNL     1      -5.239   4.778 -32.690  1.00  0.00    -0.236 NA
HETATM    3  C   UNL     1      -4.388   5.751 -33.101  1.00  0.00     0.142 A 
HETATM    4  C   UNL     1      -3.018   5.576 -33.251  1.00  0.00     0.062 A 
HETATM    5  C   UNL     1      -2.191   6.653 -33.691  1.00  0.00     0.101 C 
HETATM    6  N   UNL     1      -1.522   7.531 -34.048  1.00  0.00    -0.191 NA
HETATM    7  C   UNL     1      -2.485   4.322 -32.956  1.00  0.00     0.028 A 
HETATM    8  C   UNL     1      -3.335   3.303 -32.530  1.00  0.00     0.059 A 
ENDROOT
BRANCH   1   9
HETATM    9  O   UNL     1      -5.489   2.543 -31.979  1.00  0.00    -0.329 OA
BRANCH   9  10
HETATM   10  C   UNL     1      -5.925   1.632 -32.996  1.00  0.00     0.130 C 
HETATM   11  C   UNL     1      -6.511   0.417 -32.262  1.00  0.00     0.034 C 
HETATM   12  C   UNL     1      -7.724   0.799 -31.408  1.00  0.00     0.035 C 
HETATM   13  C   UNL     1      -8.818   1.525 -32.199  1.00  0.00     0.186 C 
HETATM   14  C   UNL     1      -8.247   2.673 -33.041  1.00  0.00     0.035 C 
HETATM   15  C   UNL     1      -7.015   2.279 -33.861  1.00  0.00     0.034 C 
BRANCH  13  16
HETATM   16  N   UNL     1      -9.538   0.563 -33.107  1.00  0.00    -0.067 N 
HETATM   17  H   UNL     1     -10.162  -0.061 -32.582  1.00  0.00     0.277 HD
HETATM   18  H   UNL     1      -8.852  -0.063 -33.552  1.00  0.00     0.277 HD
BRANCH  16  19
HETATM   19  C   UNL     1     -10.312   1.198 -34.219  1.00  0.00     0.271 C 
BRANCH  19  20
HETATM   20  C   UNL     1     -11.765   1.345 -33.872  1.00  0.00    -0.030 A 
HETATM   21  C   UNL     1     -12.679   0.322 -34.174  1.00  0.00     0.012 A 
HETATM   22  C   UNL     1     -14.024   0.448 -33.819  1.00  0.00     0.040 A 
HETATM   23  C   UNL     1     -14.467   1.590 -33.157  1.00  0.00     0.102 A 
HETATM   24  C   UNL     1     -13.576   2.630 -32.889  1.00  0.00     0.102 A 
HETATM   25  O   UNL     1     -15.787   1.622 -32.795  1.00  0.00    -0.346 OA
HETATM   26  C   UNL     1     -12.231   2.508 -33.239  1.00  0.00     0.048 A 
HETATM   27  O   UNL     1     -13.942   3.793 -32.265  1.00  0.00    -0.346 OA
HETATM   28  C   UNL     1     -15.368   3.934 -32.188  1.00  0.00     0.202 C 
HETATM   29  C   UNL     1     -16.025   2.620 -31.794  1.00  0.00     0.202 C 
ENDBRANCH  19  20
ENDBRANCH  16  19
ENDBRANCH  13  16
ENDBRANCH   9  10
ENDBRANCH   1   9
TORSDOF 5
ENDMDL
MODEL 10
REMARK VINA RESULT:      -7.3     15.060     18.382
REMARK  5 active torsions:
REMARK  status: ('A' for Active; 'I' for Inactive)
REMARK    1  A    between atoms: C_2  and  C_3 
REMARK    2  A    between atoms: C_3  and  N_4 
REMARK    3  A    between atoms: N_4  and  C_7 
REMARK    4  A    between atoms: C_10  and  O_11 
REMARK    5  A    between atoms: O_11  and  C_12 
ROOT
HETATM    1  C   UNL     1      -1.793 -14.213 -39.497  1.00  0.00     0.164 A 
HETATM    2  N   UNL     1      -1.597 -15.369 -40.162  1.00  0.00    -0.236 NA
HETATM    3  C   UNL     1      -0.350 -15.900 -40.096  1.00  0.00     0.142 A 
HETATM    4  C   UNL     1       0.706 -15.322 -39.403  1.00  0.00     0.062 A 
HETATM    5  C   UNL     1       1.990 -15.947 -39.381  1.00  0.00     0.101 C 
HETATM    6  N   UNL     1       3.031 -16.457 -39.366  1.00  0.00    -0.191 NA
HETATM    7  C   UNL     1       0.470 -14.120 -38.737  1.00  0.00     0.028 A 
HETATM    8  C   UNL     1      -0.801 -13.551 -38.789  1.00  0.00     0.059 A 
ENDROOT
BRANCH   1   9
HETATM    9  O   UNL     1      -3.027 -13.601 -39.539  1.00  0.00    -0.329 OA
BRANCH   9  10
HETATM   10  C   UNL     1      -3.308 -12.728 -38.437  1.00  0.00     0.130 C 
HETATM   11  C   UNL     1      -4.518 -11.881 -38.857  1.00  0.00     0.034 C 
HETATM   12  C   UNL     1      -5.757 -12.746 -39.112  1.00  0.00     0.035 C 
HETATM   13  C   UNL     1      -6.120 -13.648 -37.927  1.00  0.00     0.186 C 
HETATM   14  C   UNL     1      -4.903 -14.421 -37.403  1.00  0.00     0.035 C 
HETATM   15  C   UNL     1      -3.666 -13.544 -37.187  1.00  0.00     0.034 C 
BRANCH  13  16
HETATM   16  N   UNL     1      -6.703 -12.832 -36.802  1.00  0.00    -0.067 N 
HETATM   17  H   UNL     1      -7.203 -12.006 -37.152  1.00  0.00     0.277 HD
HETATM   18  H   UNL     1      -5.939 -12.453 -36.226  1.00  0.00     0.277 HD
BRANCH  16  19
HETATM   19  C   UNL     1      -7.600 -13.584 -35.871  1.00  0.00     0.271 C 
BRANCH  19  20
HETATM   20  C   UNL     1      -6.893 -13.963 -34.602  1.00  0.00    -0.030 A 
HETATM   21  C   UNL     1      -6.157 -13.008 -33.883  1.00  0.00     0.012 A 
HETATM   22  C   UNL     1      -5.527 -13.356 -32.685  1.00  0.00     0.040 A 
HETATM   23  C   UNL     1      -5.633 -14.654 -32.194  1.00  0.00     0.102 A 
HETATM   24  C   UNL     1      -6.327 -15.621 -32.922  1.00  0.00     0.102 A 
HETATM   25  O   UNL     1      -5.034 -14.911 -30.989  1.00  0.00    -0.346 OA
HETATM   26  C   UNL     1      -6.960 -15.278 -34.117  1.00  0.00     0.048 A 
HETATM   27  O   UNL     1      -6.453 -16.924 -32.517  1.00  0.00    -0.346 OA
HETATM   28  C   UNL     1      -5.561 -17.236 -31.436  1.00  0.00     0.202 C 
HETATM   29  C   UNL     1      -5.540 -16.118 -30.406  1.00  0.00     0.202 C 
ENDBRANCH  19  20
ENDBRANCH  16  19
ENDBRANCH  13  16
ENDBRANCH   9  10
ENDBRANCH   1   9
TORSDOF 5
ENDMDL
