MODEL 1
REMARK VINA RESULT:      -7.5      0.000      0.000
REMARK  10 active torsions:
REMARK  status: ('A' for Active; 'I' for Inactive)
REMARK       I    between atoms: C_2  and  N_3 
REMARK    1  A    between atoms: N_3  and  C_4 
REMARK    2  A    between atoms: C_4  and  C_5 
REMARK    3  A    between atoms: C_5  and  N_6 
REMARK       I    between atoms: N_6  and  C_7 
REMARK    4  A    between atoms: C_7  and  C_8 
REMARK    5  A    between atoms: C_8  and  C_9 
REMARK    6  A    between atoms: C_9  and  C_10 
REMARK    7  A    between atoms: C_10  and  C_11 
REMARK    8  A    between atoms: C_11  and  C_12 
REMARK    9  A    between atoms: C_12  and  N_13 
REMARK   10  A    between atoms: N_13  and  C_14 
ROOT
HETATM    1  C   UNL     1      -8.738   0.700 -32.478  1.00  0.00     0.020 C 
ENDROOT
BRANCH   1   2
HETATM    2  C   UNL     1     -10.159   0.607 -33.045  1.00  0.00     0.002 C 
BRANCH   2   3
HETATM    3  C   UNL     1     -10.596   1.872 -33.786  1.00  0.00     0.009 C 
BRANCH   3   4
HETATM    4  C   UNL     1     -10.846   3.032 -32.826  1.00  0.00     0.103 C 
BRANCH   4   5
HETATM    5  C   UNL     1     -12.263   3.543 -32.973  1.00  0.00     0.217 C 
HETATM    6  N   UNL     1     -13.081   3.251 -31.908  1.00  0.00    -0.360 N 
HETATM    7  H   UNL     1     -12.747   2.653 -31.165  1.00  0.00     0.162 HD
HETATM    8  O   UNL     1     -12.646   4.134 -33.978  1.00  0.00    -0.274 OA
BRANCH   6   9
HETATM    9  C   UNL     1     -14.501   3.562 -31.932  1.00  0.00     0.142 C 
BRANCH   9  10
HETATM   10  C   UNL     1     -15.361   2.349 -32.311  1.00  0.00     0.142 C 
BRANCH  10  11
HETATM   11  N   UNL     1     -14.596   1.119 -32.455  1.00  0.00    -0.360 N 
HETATM   12  C   UNL     1     -14.277   0.608 -33.689  1.00  0.00     0.213 C 
HETATM   13  C   UNL     1     -13.397  -0.614 -33.649  1.00  0.00     0.117 C 
HETATM   14  O   UNL     1     -14.667   1.093 -34.746  1.00  0.00    -0.274 OA
HETATM   15  H   UNL     1     -14.163   0.736 -31.624  1.00  0.00     0.162 HD
ENDBRANCH  10  11
ENDBRANCH   9  10
ENDBRANCH   6   9
ENDBRANCH   4   5
ENDBRANCH   3   4
ENDBRANCH   2   3
ENDBRANCH   1   2
BRANCH   1  16
HETATM   16  C   UNL     1      -7.672   0.930 -33.548  1.00  0.00     0.121 C 
BRANCH  16  17
HETATM   17  N   UNL     1      -7.259  -0.341 -34.129  1.00  0.00    -0.374 N 
HETATM   18  H   UNL     1      -7.465  -0.425 -35.116  1.00  0.00     0.161 HD
BRANCH  17  19
HETATM   19  C   UNL     1      -6.111  -0.977 -33.685  1.00  0.00     0.139 A 
HETATM   20  N   UNL     1      -5.281  -0.332 -32.916  1.00  0.00    -0.202 NA
HETATM   21  C   UNL     1      -4.112  -0.899 -32.483  1.00  0.00     0.200 A 
HETATM   22  S   UNL     1      -3.022  -0.107 -31.482  1.00  0.00    -0.039 SA
HETATM   23  N   UNL     1      -3.786  -2.165 -32.890  1.00  0.00    -0.331 N 
HETATM   24  C   UNL     1      -4.628  -2.926 -33.694  1.00  0.00     0.048 A 
HETATM   25  H   UNL     1      -2.910  -2.539 -32.552  1.00  0.00     0.168 HD
HETATM   26  C   UNL     1      -5.839  -2.380 -34.112  1.00  0.00     0.036 A 
HETATM   27  C   UNL     1      -4.266  -4.222 -34.059  1.00  0.00     0.030 A 
HETATM   28  C   UNL     1      -6.719  -3.148 -34.879  1.00  0.00     0.017 A 
HETATM   29  C   UNL     1      -6.363  -4.449 -35.245  1.00  0.00     0.001 A 
HETATM   30  C   UNL     1      -5.136  -4.982 -34.842  1.00  0.00     0.002 A 
ENDBRANCH  17  19
ENDBRANCH  16  17
ENDBRANCH   1  16
TORSDOF 10
ENDMDL
MODEL 2
REMARK VINA RESULT:      -7.4      0.954      2.319
REMARK  10 active torsions:
REMARK  status: ('A' for Active; 'I' for Inactive)
REMARK       I    between atoms: C_2  and  N_3 
REMARK    1  A    between atoms: N_3  and  C_4 
REMARK    2  A    between atoms: C_4  and  C_5 
REMARK    3  A    between atoms: C_5  and  N_6 
REMARK       I    between atoms: N_6  and  C_7 
REMARK    4  A    between atoms: C_7  and  C_8 
REMARK    5  A    between atoms: C_8  and  C_9 
REMARK    6  A    between atoms: C_9  and  C_10 
REMARK    7  A    between atoms: C_10  and  C_11 
REMARK    8  A    between atoms: C_11  and  C_12 
REMARK    9  A    between atoms: C_12  and  N_13 
REMARK   10  A    between atoms: N_13  and  C_14 
ROOT
HETATM    1  C   UNL     1      -9.304   1.038 -33.984  1.00  0.00     0.020 C 
ENDROOT
BRANCH   1   2
HETATM    2  C   UNL     1     -10.586   0.512 -33.328  1.00  0.00     0.002 C 
BRANCH   2   3
HETATM    3  C   UNL     1     -11.860   1.069 -33.964  1.00  0.00     0.009 C 
BRANCH   3   4
HETATM    4  C   UNL     1     -13.010   0.067 -33.897  1.00  0.00     0.103 C 
BRANCH   4   5
HETATM    5  C   UNL     1     -14.327   0.788 -33.707  1.00  0.00     0.217 C 
HETATM    6  N   UNL     1     -14.429   1.473 -32.520  1.00  0.00    -0.360 N 
HETATM    7  H   UNL     1     -13.702   1.384 -31.824  1.00  0.00     0.162 HD
HETATM    8  O   UNL     1     -15.233   0.726 -34.533  1.00  0.00    -0.274 OA
BRANCH   6   9
HETATM    9  C   UNL     1     -15.667   2.123 -32.121  1.00  0.00     0.142 C 
BRANCH   9  10
HETATM   10  C   UNL     1     -15.509   3.642 -31.969  1.00  0.00     0.142 C 
BRANCH  10  11
HETATM   11  N   UNL     1     -14.696   4.247 -33.015  1.00  0.00    -0.360 N 
HETATM   12  C   UNL     1     -13.333   4.365 -32.891  1.00  0.00     0.213 C 
HETATM   13  C   UNL     1     -12.644   4.923 -34.108  1.00  0.00     0.117 C 
HETATM   14  O   UNL     1     -12.713   4.048 -31.881  1.00  0.00    -0.274 OA
HETATM   15  H   UNL     1     -15.139   4.430 -33.906  1.00  0.00     0.162 HD
ENDBRANCH  10  11
ENDBRANCH   9  10
ENDBRANCH   6   9
ENDBRANCH   4   5
ENDBRANCH   3   4
ENDBRANCH   2   3
ENDBRANCH   1   2
BRANCH   1  16
HETATM   16  C   UNL     1      -8.028   0.571 -33.284  1.00  0.00     0.121 C 
BRANCH  16  17
HETATM   17  N   UNL     1      -7.266  -0.307 -34.162  1.00  0.00    -0.374 N 
HETATM   18  H   UNL     1      -7.250  -0.006 -35.128  1.00  0.00     0.161 HD
BRANCH  17  19
HETATM   19  C   UNL     1      -6.129  -0.949 -33.700  1.00  0.00     0.139 A 
HETATM   20  N   UNL     1      -5.299  -0.302 -32.931  1.00  0.00    -0.202 NA
HETATM   21  C   UNL     1      -4.140  -0.875 -32.481  1.00  0.00     0.200 A 
HETATM   22  S   UNL     1      -3.052  -0.082 -31.480  1.00  0.00    -0.039 SA
HETATM   23  N   UNL     1      -3.822  -2.148 -32.871  1.00  0.00    -0.331 N 
HETATM   24  C   UNL     1      -4.663  -2.911 -33.674  1.00  0.00     0.048 A 
HETATM   25  H   UNL     1      -2.953  -2.527 -32.521  1.00  0.00     0.168 HD
HETATM   26  C   UNL     1      -5.866  -2.359 -34.109  1.00  0.00     0.036 A 
HETATM   27  C   UNL     1      -4.310  -4.214 -34.021  1.00  0.00     0.030 A 
HETATM   28  C   UNL     1      -6.745  -3.128 -34.875  1.00  0.00     0.017 A 
HETATM   29  C   UNL     1      -6.397  -4.436 -35.224  1.00  0.00     0.001 A 
HETATM   30  C   UNL     1      -5.179  -4.975 -34.803  1.00  0.00     0.002 A 
ENDBRANCH  17  19
ENDBRANCH  16  17
ENDBRANCH   1  16
TORSDOF 10
ENDMDL
MODEL 3
REMARK VINA RESULT:      -7.3      2.433      3.892
REMARK  10 active torsions:
REMARK  status: ('A' for Active; 'I' for Inactive)
REMARK       I    between atoms: C_2  and  N_3 
REMARK    1  A    between atoms: N_3  and  C_4 
REMARK    2  A    between atoms: C_4  and  C_5 
REMARK    3  A    between atoms: C_5  and  N_6 
REMARK       I    between atoms: N_6  and  C_7 
REMARK    4  A    between atoms: C_7  and  C_8 
REMARK    5  A    between atoms: C_8  and  C_9 
REMARK    6  A    between atoms: C_9  and  C_10 
REMARK    7  A    between atoms: C_10  and  C_11 
REMARK    8  A    between atoms: C_11  and  C_12 
REMARK    9  A    between atoms: C_12  and  N_13 
REMARK   10  A    between atoms: N_13  and  C_14 
ROOT
HETATM    1  C   UNL     1      -8.925  -0.308 -33.242  1.00  0.00     0.020 C 
ENDROOT
BRANCH   1   2
HETATM    2  C   UNL     1     -10.370   0.150 -33.015  1.00  0.00     0.002 C 
BRANCH   2   3
HETATM    3  C   UNL     1     -10.761   1.358 -33.867  1.00  0.00     0.009 C 
BRANCH   3   4
HETATM    4  C   UNL     1     -11.695   2.303 -33.116  1.00  0.00     0.103 C 
BRANCH   4   5
HETATM    5  C   UNL     1     -10.905   3.415 -32.459  1.00  0.00     0.217 C 
HETATM    6  N   UNL     1     -10.328   3.064 -31.262  1.00  0.00    -0.360 N 
HETATM    7  H   UNL     1     -10.532   2.165 -30.848  1.00  0.00     0.162 HD
HETATM    8  O   UNL     1     -10.826   4.538 -32.945  1.00  0.00    -0.274 OA
BRANCH   6   9
HETATM    9  C   UNL     1      -9.633   4.040 -30.438  1.00  0.00     0.142 C 
BRANCH   9  10
HETATM   10  C   UNL     1      -8.182   3.635 -30.146  1.00  0.00     0.142 C 
BRANCH  10  11
HETATM   11  N   UNL     1      -7.926   2.215 -30.346  1.00  0.00    -0.360 N 
HETATM   12  C   UNL     1      -6.663   1.688 -30.234  1.00  0.00     0.213 C 
HETATM   13  C   UNL     1      -6.600   0.189 -30.373  1.00  0.00     0.117 C 
HETATM   14  O   UNL     1      -5.659   2.364 -30.037  1.00  0.00    -0.274 OA
HETATM   15  H   UNL     1      -8.726   1.599 -30.407  1.00  0.00     0.162 HD
ENDBRANCH  10  11
ENDBRANCH   9  10
ENDBRANCH   6   9
ENDBRANCH   4   5
ENDBRANCH   3   4
ENDBRANCH   2   3
ENDBRANCH   1   2
BRANCH   1  16
HETATM   16  C   UNL     1      -8.273   0.330 -34.468  1.00  0.00     0.121 C 
BRANCH  16  17
HETATM   17  N   UNL     1      -7.341  -0.605 -35.085  1.00  0.00    -0.374 N 
HETATM   18  H   UNL     1      -7.272  -0.510 -36.091  1.00  0.00     0.161 HD
BRANCH  17  19
HETATM   19  C   UNL     1      -6.184  -0.985 -34.425  1.00  0.00     0.139 A 
HETATM   20  N   UNL     1      -5.476  -0.082 -33.807  1.00  0.00    -0.202 NA
HETATM   21  C   UNL     1      -4.304  -0.396 -33.174  1.00  0.00     0.200 A 
HETATM   22  S   UNL     1      -3.370   0.734 -32.357  1.00  0.00    -0.039 SA
HETATM   23  N   UNL     1      -3.840  -1.683 -33.214  1.00  0.00    -0.331 N 
HETATM   24  C   UNL     1      -4.547  -2.708 -33.836  1.00  0.00     0.048 A 
HETATM   25  H   UNL     1      -2.967  -1.867 -32.740  1.00  0.00     0.168 HD
HETATM   26  C   UNL     1      -5.761  -2.415 -34.451  1.00  0.00     0.036 A 
HETATM   27  C   UNL     1      -4.048  -4.010 -33.825  1.00  0.00     0.030 A 
HETATM   28  C   UNL     1      -6.508  -3.440 -35.037  1.00  0.00     0.017 A 
HETATM   29  C   UNL     1      -6.014  -4.747 -35.027  1.00  0.00     0.001 A 
HETATM   30  C   UNL     1      -4.784  -5.030 -34.428  1.00  0.00     0.002 A 
ENDBRANCH  17  19
ENDBRANCH  16  17
ENDBRANCH   1  16
TORSDOF 10
ENDMDL
MODEL 4
REMARK VINA RESULT:      -7.3      4.044      5.977
REMARK  10 active torsions:
REMARK  status: ('A' for Active; 'I' for Inactive)
REMARK       I    between atoms: C_2  and  N_3 
REMARK    1  A    between atoms: N_3  and  C_4 
REMARK    2  A    between atoms: C_4  and  C_5 
REMARK    3  A    between atoms: C_5  and  N_6 
REMARK       I    between atoms: N_6  and  C_7 
REMARK    4  A    between atoms: C_7  and  C_8 
REMARK    5  A    between atoms: C_8  and  C_9 
REMARK    6  A    between atoms: C_9  and  C_10 
REMARK    7  A    between atoms: C_10  and  C_11 
REMARK    8  A    between atoms: C_11  and  C_12 
REMARK    9  A    between atoms: C_12  and  N_13 
REMARK   10  A    between atoms: N_13  and  C_14 
ROOT
HETATM    1  C   UNL     1      -9.421   0.729 -34.239  1.00  0.00     0.020 C 
ENDROOT
BRANCH   1   2
HETATM    2  C   UNL     1      -9.510   0.101 -32.843  1.00  0.00     0.002 C 
BRANCH   2   3
HETATM    3  C   UNL     1      -8.958   1.005 -31.740  1.00  0.00     0.009 C 
BRANCH   3   4
HETATM    4  C   UNL     1      -7.694   0.423 -31.111  1.00  0.00     0.103 C 
BRANCH   4   5
HETATM    5  C   UNL     1      -6.738   1.531 -30.725  1.00  0.00     0.217 C 
HETATM    6  N   UNL     1      -6.776   2.624 -31.558  1.00  0.00    -0.360 N 
HETATM    7  H   UNL     1      -7.333   2.595 -32.401  1.00  0.00     0.162 HD
HETATM    8  O   UNL     1      -5.974   1.434 -29.770  1.00  0.00    -0.274 OA
BRANCH   6   9
HETATM    9  C   UNL     1      -5.844   3.729 -31.405  1.00  0.00     0.142 C 
BRANCH   9  10
HETATM   10  C   UNL     1      -5.632   4.503 -32.713  1.00  0.00     0.142 C 
BRANCH  10  11
HETATM   11  N   UNL     1      -4.348   4.233 -33.345  1.00  0.00    -0.360 N 
HETATM   12  C   UNL     1      -3.389   5.207 -33.472  1.00  0.00     0.213 C 
HETATM   13  C   UNL     1      -2.087   4.726 -34.058  1.00  0.00     0.117 C 
HETATM   14  O   UNL     1      -3.559   6.376 -33.142  1.00  0.00    -0.274 OA
HETATM   15  H   UNL     1      -4.116   3.268 -33.540  1.00  0.00     0.162 HD
ENDBRANCH  10  11
ENDBRANCH   9  10
ENDBRANCH   6   9
ENDBRANCH   4   5
ENDBRANCH   3   4
ENDBRANCH   2   3
ENDBRANCH   1   2
BRANCH   1  16
HETATM   16  C   UNL     1      -7.994   0.803 -34.781  1.00  0.00     0.121 C 
BRANCH  16  17
HETATM   17  N   UNL     1      -7.464  -0.539 -34.985  1.00  0.00    -0.374 N 
HETATM   18  H   UNL     1      -7.627  -0.905 -35.914  1.00  0.00     0.161 HD
BRANCH  17  19
HETATM   19  C   UNL     1      -6.288  -0.932 -34.367  1.00  0.00     0.139 A 
HETATM   20  N   UNL     1      -5.561  -0.041 -33.754  1.00  0.00    -0.202 NA
HETATM   21  C   UNL     1      -4.370  -0.368 -33.163  1.00  0.00     0.200 A 
HETATM   22  S   UNL     1      -3.411   0.745 -32.353  1.00  0.00    -0.039 SA
HETATM   23  N   UNL     1      -3.909  -1.655 -33.242  1.00  0.00    -0.331 N 
HETATM   24  C   UNL     1      -4.635  -2.667 -33.862  1.00  0.00     0.048 A 
HETATM   25  H   UNL     1      -3.022  -1.848 -32.798  1.00  0.00     0.168 HD
HETATM   26  C   UNL     1      -5.868  -2.361 -34.434  1.00  0.00     0.036 A 
HETATM   27  C   UNL     1      -4.138  -3.969 -33.892  1.00  0.00     0.030 A 
HETATM   28  C   UNL     1      -6.633  -3.374 -35.017  1.00  0.00     0.017 A 
HETATM   29  C   UNL     1      -6.140  -4.682 -35.047  1.00  0.00     0.001 A 
HETATM   30  C   UNL     1      -4.893  -4.977 -34.492  1.00  0.00     0.002 A 
ENDBRANCH  17  19
ENDBRANCH  16  17
ENDBRANCH   1  16
TORSDOF 10
ENDMDL
MODEL 5
REMARK VINA RESULT:      -7.3      5.462      8.614
REMARK  10 active torsions:
REMARK  status: ('A' for Active; 'I' for Inactive)
REMARK       I    between atoms: C_2  and  N_3 
REMARK    1  A    between atoms: N_3  and  C_4 
REMARK    2  A    between atoms: C_4  and  C_5 
REMARK    3  A    between atoms: C_5  and  N_6 
REMARK       I    between atoms: N_6  and  C_7 
REMARK    4  A    between atoms: C_7  and  C_8 
REMARK    5  A    between atoms: C_8  and  C_9 
REMARK    6  A    between atoms: C_9  and  C_10 
REMARK    7  A    between atoms: C_10  and  C_11 
REMARK    8  A    between atoms: C_11  and  C_12 
REMARK    9  A    between atoms: C_12  and  N_13 
REMARK   10  A    between atoms: N_13  and  C_14 
ROOT
HETATM    1  C   UNL     1      -5.967   2.961 -30.343  1.00  0.00     0.020 C 
ENDROOT
BRANCH   1   2
HETATM    2  C   UNL     1      -5.565   4.035 -31.360  1.00  0.00     0.002 C 
BRANCH   2   3
HETATM    3  C   UNL     1      -5.042   3.453 -32.675  1.00  0.00     0.009 C 
BRANCH   3   4
HETATM    4  C   UNL     1      -5.509   4.267 -33.879  1.00  0.00     0.103 C 
BRANCH   4   5
HETATM    5  C   UNL     1      -4.371   5.100 -34.427  1.00  0.00     0.217 C 
HETATM    6  N   UNL     1      -3.622   5.734 -33.464  1.00  0.00    -0.360 N 
HETATM    7  H   UNL     1      -3.913   5.701 -32.497  1.00  0.00     0.162 HD
HETATM    8  O   UNL     1      -4.167   5.222 -35.631  1.00  0.00    -0.274 OA
BRANCH   6   9
HETATM    9  C   UNL     1      -2.565   6.669 -33.815  1.00  0.00     0.142 C 
BRANCH   9  10
HETATM   10  C   UNL     1      -1.167   6.051 -33.678  1.00  0.00     0.142 C 
BRANCH  10  11
HETATM   11  N   UNL     1      -0.612   6.164 -32.336  1.00  0.00    -0.360 N 
HETATM   12  C   UNL     1      -0.829   5.200 -31.383  1.00  0.00     0.213 C 
HETATM   13  C   UNL     1      -0.098   5.432 -30.087  1.00  0.00     0.117 C 
HETATM   14  O   UNL     1      -1.553   4.226 -31.555  1.00  0.00    -0.274 OA
HETATM   15  H   UNL     1       0.073   6.890 -32.173  1.00  0.00     0.162 HD
ENDBRANCH  10  11
ENDBRANCH   9  10
ENDBRANCH   6   9
ENDBRANCH   4   5
ENDBRANCH   3   4
ENDBRANCH   2   3
ENDBRANCH   1   2
BRANCH   1  16
HETATM   16  C   UNL     1      -7.474   2.892 -30.098  1.00  0.00     0.121 C 
BRANCH  16  17
HETATM   17  N   UNL     1      -8.031   1.700 -30.725  1.00  0.00    -0.374 N 
HETATM   18  H   UNL     1      -8.664   1.182 -30.129  1.00  0.00     0.161 HD
BRANCH  17  19
HETATM   19  C   UNL     1      -8.316   1.686 -32.081  1.00  0.00     0.139 A 
HETATM   20  N   UNL     1      -9.171   2.544 -32.562  1.00  0.00    -0.202 NA
HETATM   21  C   UNL     1      -9.519   2.547 -33.885  1.00  0.00     0.200 A 
HETATM   22  S   UNL     1     -10.606   3.641 -34.547  1.00  0.00    -0.039 SA
HETATM   23  N   UNL     1      -8.984   1.608 -34.726  1.00  0.00    -0.331 N 
HETATM   24  C   UNL     1      -8.050   0.671 -34.294  1.00  0.00     0.048 A 
HETATM   25  H   UNL     1      -9.277   1.643 -35.692  1.00  0.00     0.168 HD
HETATM   26  C   UNL     1      -7.654   0.679 -32.959  1.00  0.00     0.036 A 
HETATM   27  C   UNL     1      -7.511  -0.247 -35.193  1.00  0.00     0.030 A 
HETATM   28  C   UNL     1      -6.681  -0.223 -32.519  1.00  0.00     0.017 A 
HETATM   29  C   UNL     1      -6.135  -1.144 -33.416  1.00  0.00     0.001 A 
HETATM   30  C   UNL     1      -6.554  -1.161 -34.749  1.00  0.00     0.002 A 
ENDBRANCH  17  19
ENDBRANCH  16  17
ENDBRANCH   1  16
TORSDOF 10
ENDMDL
MODEL 6
REMARK VINA RESULT:      -7.2      6.664      9.704
REMARK  10 active torsions:
REMARK  status: ('A' for Active; 'I' for Inactive)
REMARK       I    between atoms: C_2  and  N_3 
REMARK    1  A    between atoms: N_3  and  C_4 
REMARK    2  A    between atoms: C_4  and  C_5 
REMARK    3  A    between atoms: C_5  and  N_6 
REMARK       I    between atoms: N_6  and  C_7 
REMARK    4  A    between atoms: C_7  and  C_8 
REMARK    5  A    between atoms: C_8  and  C_9 
REMARK    6  A    between atoms: C_9  and  C_10 
REMARK    7  A    between atoms: C_10  and  C_11 
REMARK    8  A    between atoms: C_11  and  C_12 
REMARK    9  A    between atoms: C_12  and  N_13 
REMARK   10  A    between atoms: N_13  and  C_14 
ROOT
HETATM    1  C   UNL     1      -3.856   3.092 -31.790  1.00  0.00     0.020 C 
ENDROOT
BRANCH   1   2
HETATM    2  C   UNL     1      -3.725   4.146 -32.895  1.00  0.00     0.002 C 
BRANCH   2   3
HETATM    3  C   UNL     1      -2.334   4.185 -33.529  1.00  0.00     0.009 C 
BRANCH   3   4
HETATM    4  C   UNL     1      -2.144   5.422 -34.403  1.00  0.00     0.103 C 
BRANCH   4   5
HETATM    5  C   UNL     1      -1.484   6.531 -33.613  1.00  0.00     0.217 C 
HETATM    6  N   UNL     1      -0.780   6.099 -32.515  1.00  0.00    -0.360 N 
HETATM    7  H   UNL     1      -0.819   5.126 -32.242  1.00  0.00     0.162 HD
HETATM    8  O   UNL     1      -1.606   7.714 -33.916  1.00  0.00    -0.274 OA
BRANCH   6   9
HETATM    9  C   UNL     1      -0.182   7.035 -31.577  1.00  0.00     0.142 C 
BRANCH   9  10
HETATM   10  C   UNL     1      -1.008   7.187 -30.293  1.00  0.00     0.142 C 
BRANCH  10  11
HETATM   11  N   UNL     1      -0.264   7.787 -29.194  1.00  0.00    -0.360 N 
HETATM   12  C   UNL     1       0.518   7.031 -28.356  1.00  0.00     0.213 C 
HETATM   13  C   UNL     1       1.293   7.828 -27.340  1.00  0.00     0.117 C 
HETATM   14  O   UNL     1       0.593   5.808 -28.415  1.00  0.00    -0.274 OA
HETATM   15  H   UNL     1      -0.207   8.796 -29.162  1.00  0.00     0.162 HD
ENDBRANCH  10  11
ENDBRANCH   9  10
ENDBRANCH   6   9
ENDBRANCH   4   5
ENDBRANCH   3   4
ENDBRANCH   2   3
ENDBRANCH   1   2
BRANCH   1  16
HETATM   16  C   UNL     1      -3.573   1.670 -32.272  1.00  0.00     0.121 C 
BRANCH  16  17
HETATM   17  N   UNL     1      -4.484   0.731 -31.629  1.00  0.00    -0.374 N 
HETATM   18  H   UNL     1      -4.551   0.848 -30.626  1.00  0.00     0.161 HD
BRANCH  17  19
HETATM   19  C   UNL     1      -5.636   0.314 -32.275  1.00  0.00     0.139 A 
HETATM   20  N   UNL     1      -6.747   0.968 -32.084  1.00  0.00    -0.202 NA
HETATM   21  C   UNL     1      -7.922   0.574 -32.665  1.00  0.00     0.200 A 
HETATM   22  S   UNL     1      -9.371   1.394 -32.456  1.00  0.00    -0.039 SA
HETATM   23  N   UNL     1      -7.946  -0.553 -33.442  1.00  0.00    -0.331 N 
HETATM   24  C   UNL     1      -6.799  -1.295 -33.709  1.00  0.00     0.048 A 
HETATM   25  H   UNL     1      -8.837  -0.810 -33.844  1.00  0.00     0.168 HD
HETATM   26  C   UNL     1      -5.587  -0.886 -33.159  1.00  0.00     0.036 A 
HETATM   27  C   UNL     1      -6.867  -2.419 -34.531  1.00  0.00     0.030 A 
HETATM   28  C   UNL     1      -4.417  -1.590 -33.457  1.00  0.00     0.017 A 
HETATM   29  C   UNL     1      -4.479  -2.716 -34.282  1.00  0.00     0.001 A 
HETATM   30  C   UNL     1      -5.702  -3.134 -34.811  1.00  0.00     0.002 A 
ENDBRANCH  17  19
ENDBRANCH  16  17
ENDBRANCH   1  16
TORSDOF 10
ENDMDL
MODEL 7
REMARK VINA RESULT:      -7.2      5.857      8.458
REMARK  10 active torsions:
REMARK  status: ('A' for Active; 'I' for Inactive)
REMARK       I    between atoms: C_2  and  N_3 
REMARK    1  A    between atoms: N_3  and  C_4 
REMARK    2  A    between atoms: C_4  and  C_5 
REMARK    3  A    between atoms: C_5  and  N_6 
REMARK       I    between atoms: N_6  and  C_7 
REMARK    4  A    between atoms: C_7  and  C_8 
REMARK    5  A    between atoms: C_8  and  C_9 
REMARK    6  A    between atoms: C_9  and  C_10 
REMARK    7  A    between atoms: C_10  and  C_11 
REMARK    8  A    between atoms: C_11  and  C_12 
REMARK    9  A    between atoms: C_12  and  N_13 
REMARK   10  A    between atoms: N_13  and  C_14 
ROOT
HETATM    1  C   UNL     1      -4.672   0.058 -31.002  1.00  0.00     0.020 C 
ENDROOT
BRANCH   1   2
HETATM    2  C   UNL     1      -4.499   1.514 -30.557  1.00  0.00     0.002 C 
BRANCH   2   3
HETATM    3  C   UNL     1      -4.629   2.515 -31.706  1.00  0.00     0.009 C 
BRANCH   3   4
HETATM    4  C   UNL     1      -4.150   3.907 -31.302  1.00  0.00     0.103 C 
BRANCH   4   5
HETATM    5  C   UNL     1      -3.103   4.407 -32.272  1.00  0.00     0.217 C 
HETATM    6  N   UNL     1      -3.554   5.374 -33.139  1.00  0.00    -0.360 N 
HETATM    7  H   UNL     1      -4.535   5.617 -33.156  1.00  0.00     0.162 HD
HETATM    8  O   UNL     1      -1.962   3.955 -32.298  1.00  0.00    -0.274 OA
BRANCH   6   9
HETATM    9  C   UNL     1      -2.717   5.883 -34.214  1.00  0.00     0.142 C 
BRANCH   9  10
HETATM   10  C   UNL     1      -2.016   7.196 -33.841  1.00  0.00     0.142 C 
BRANCH  10  11
HETATM   11  N   UNL     1      -0.791   7.001 -33.078  1.00  0.00    -0.360 N 
HETATM   12  C   UNL     1      -0.770   7.104 -31.709  1.00  0.00     0.213 C 
HETATM   13  C   UNL     1       0.559   6.773 -31.081  1.00  0.00     0.117 C 
HETATM   14  O   UNL     1      -1.741   7.435 -31.038  1.00  0.00    -0.274 OA
HETATM   15  H   UNL     1       0.012   6.626 -33.568  1.00  0.00     0.162 HD
ENDBRANCH  10  11
ENDBRANCH   9  10
ENDBRANCH   6   9
ENDBRANCH   4   5
ENDBRANCH   3   4
ENDBRANCH   2   3
ENDBRANCH   1   2
BRANCH   1  16
HETATM   16  C   UNL     1      -3.395  -0.557 -31.574  1.00  0.00     0.121 C 
BRANCH  16  17
HETATM   17  N   UNL     1      -3.467  -0.603 -33.029  1.00  0.00    -0.374 N 
HETATM   18  H   UNL     1      -2.595  -0.864 -33.473  1.00  0.00     0.161 HD
BRANCH  17  19
HETATM   19  C   UNL     1      -4.626  -1.017 -33.663  1.00  0.00     0.139 A 
HETATM   20  N   UNL     1      -5.544  -0.138 -33.951  1.00  0.00    -0.202 NA
HETATM   21  C   UNL     1      -6.726  -0.499 -34.540  1.00  0.00     0.200 A 
HETATM   22  S   UNL     1      -7.928   0.603 -34.939  1.00  0.00    -0.039 SA
HETATM   23  N   UNL     1      -6.970  -1.819 -34.809  1.00  0.00    -0.331 N 
HETATM   24  C   UNL     1      -6.033  -2.814 -34.550  1.00  0.00     0.048 A 
HETATM   25  H   UNL     1      -7.859  -2.039 -35.237  1.00  0.00     0.168 HD
HETATM   26  C   UNL     1      -4.810  -2.461 -33.987  1.00  0.00     0.036 A 
HETATM   27  C   UNL     1      -6.316  -4.142 -34.867  1.00  0.00     0.030 A 
HETATM   28  C   UNL     1      -3.839  -3.441 -33.766  1.00  0.00     0.017 A 
HETATM   29  C   UNL     1      -4.115  -4.773 -34.084  1.00  0.00     0.001 A 
HETATM   30  C   UNL     1      -5.353  -5.124 -34.627  1.00  0.00     0.002 A 
ENDBRANCH  17  19
ENDBRANCH  16  17
ENDBRANCH   1  16
TORSDOF 10
ENDMDL
MODEL 8
REMARK VINA RESULT:      -7.1      6.091      9.219
REMARK  10 active torsions:
REMARK  status: ('A' for Active; 'I' for Inactive)
REMARK       I    between atoms: C_2  and  N_3 
REMARK    1  A    between atoms: N_3  and  C_4 
REMARK    2  A    between atoms: C_4  and  C_5 
REMARK    3  A    between atoms: C_5  and  N_6 
REMARK       I    between atoms: N_6  and  C_7 
REMARK    4  A    between atoms: C_7  and  C_8 
REMARK    5  A    between atoms: C_8  and  C_9 
REMARK    6  A    between atoms: C_9  and  C_10 
REMARK    7  A    between atoms: C_10  and  C_11 
REMARK    8  A    between atoms: C_11  and  C_12 
REMARK    9  A    between atoms: C_12  and  N_13 
REMARK   10  A    between atoms: N_13  and  C_14 
ROOT
HETATM    1  C   UNL     1      -5.679   3.241 -30.121  1.00  0.00     0.020 C 
ENDROOT
BRANCH   1   2
HETATM    2  C   UNL     1      -5.506   4.012 -31.435  1.00  0.00     0.002 C 
BRANCH   2   3
HETATM    3  C   UNL     1      -4.868   3.175 -32.545  1.00  0.00     0.009 C 
BRANCH   3   4
HETATM    4  C   UNL     1      -3.444   2.755 -32.189  1.00  0.00     0.103 C 
BRANCH   4   5
HETATM    5  C   UNL     1      -2.492   3.918 -32.361  1.00  0.00     0.217 C 
HETATM    6  N   UNL     1      -1.959   4.389 -31.184  1.00  0.00    -0.360 N 
HETATM    7  H   UNL     1      -2.288   4.025 -30.301  1.00  0.00     0.162 HD
HETATM    8  O   UNL     1      -2.253   4.414 -33.457  1.00  0.00    -0.274 OA
BRANCH   6   9
HETATM    9  C   UNL     1      -1.118   5.574 -31.150  1.00  0.00     0.142 C 
BRANCH   9  10
HETATM   10  C   UNL     1      -1.646   6.641 -30.181  1.00  0.00     0.142 C 
BRANCH  10  11
HETATM   11  N   UNL     1      -1.364   6.343 -28.784  1.00  0.00    -0.360 N 
HETATM   12  C   UNL     1      -0.211   6.773 -28.173  1.00  0.00     0.213 C 
HETATM   13  C   UNL     1      -0.133   6.461 -26.702  1.00  0.00     0.117 C 
HETATM   14  O   UNL     1       0.689   7.363 -28.761  1.00  0.00    -0.274 OA
HETATM   15  H   UNL     1      -2.114   5.952 -28.227  1.00  0.00     0.162 HD
ENDBRANCH  10  11
ENDBRANCH   9  10
ENDBRANCH   6   9
ENDBRANCH   4   5
ENDBRANCH   3   4
ENDBRANCH   2   3
ENDBRANCH   1   2
BRANCH   1  16
HETATM   16  C   UNL     1      -7.096   2.710 -29.912  1.00  0.00     0.121 C 
BRANCH  16  17
HETATM   17  N   UNL     1      -7.145   1.282 -30.198  1.00  0.00    -0.374 N 
HETATM   18  H   UNL     1      -7.379   0.712 -29.395  1.00  0.00     0.161 HD
BRANCH  17  19
HETATM   19  C   UNL     1      -7.594   0.825 -31.425  1.00  0.00     0.139 A 
HETATM   20  N   UNL     1      -8.785   1.160 -31.834  1.00  0.00    -0.202 NA
HETATM   21  C   UNL     1      -9.294   0.703 -33.020  1.00  0.00     0.200 A 
HETATM   22  S   UNL     1     -10.816   1.122 -33.589  1.00  0.00    -0.039 SA
HETATM   23  N   UNL     1      -8.551  -0.154 -33.787  1.00  0.00    -0.331 N 
HETATM   24  C   UNL     1      -7.265  -0.544 -33.429  1.00  0.00     0.048 A 
HETATM   25  H   UNL     1      -8.971  -0.472 -34.649  1.00  0.00     0.168 HD
HETATM   26  C   UNL     1      -6.715  -0.058 -32.246  1.00  0.00     0.036 A 
HETATM   27  C   UNL     1      -6.535  -1.397 -34.257  1.00  0.00     0.030 A 
HETATM   28  C   UNL     1      -5.406  -0.400 -31.896  1.00  0.00     0.017 A 
HETATM   29  C   UNL     1      -4.670  -1.252 -32.723  1.00  0.00     0.001 A 
HETATM   30  C   UNL     1      -5.235  -1.755 -33.897  1.00  0.00     0.002 A 
ENDBRANCH  17  19
ENDBRANCH  16  17
ENDBRANCH   1  16
TORSDOF 10
ENDMDL
MODEL 9
REMARK VINA RESULT:      -7.0      4.349      6.997
REMARK  10 active torsions:
REMARK  status: ('A' for Active; 'I' for Inactive)
REMARK       I    between atoms: C_2  and  N_3 
REMARK    1  A    between atoms: N_3  and  C_4 
REMARK    2  A    between atoms: C_4  and  C_5 
REMARK    3  A    between atoms: C_5  and  N_6 
REMARK       I    between atoms: N_6  and  C_7 
REMARK    4  A    between atoms: C_7  and  C_8 
REMARK    5  A    between atoms: C_8  and  C_9 
REMARK    6  A    between atoms: C_9  and  C_10 
REMARK    7  A    between atoms: C_10  and  C_11 
REMARK    8  A    between atoms: C_11  and  C_12 
REMARK    9  A    between atoms: C_12  and  N_13 
REMARK   10  A    between atoms: N_13  and  C_14 
ROOT
HETATM    1  C   UNL     1      -8.522   1.320 -34.533  1.00  0.00     0.020 C 
ENDROOT
BRANCH   1   2
HETATM    2  C   UNL     1      -8.745   1.602 -33.043  1.00  0.00     0.002 C 
BRANCH   2   3
HETATM    3  C   UNL     1      -7.502   2.152 -32.342  1.00  0.00     0.009 C 
BRANCH   3   4
HETATM    4  C   UNL     1      -7.502   3.678 -32.304  1.00  0.00     0.103 C 
BRANCH   4   5
HETATM    5  C   UNL     1      -6.470   4.230 -33.264  1.00  0.00     0.217 C 
HETATM    6  N   UNL     1      -5.172   4.105 -32.828  1.00  0.00    -0.360 N 
HETATM    7  H   UNL     1      -4.984   3.765 -31.895  1.00  0.00     0.162 HD
HETATM    8  O   UNL     1      -6.780   4.773 -34.320  1.00  0.00    -0.274 OA
BRANCH   6   9
HETATM    9  C   UNL     1      -4.063   4.686 -33.568  1.00  0.00     0.142 C 
BRANCH   9  10
HETATM   10  C   UNL     1      -3.628   6.045 -33.002  1.00  0.00     0.142 C 
BRANCH  10  11
HETATM   11  N   UNL     1      -2.268   6.046 -32.480  1.00  0.00    -0.360 N 
HETATM   12  C   UNL     1      -1.510   7.190 -32.446  1.00  0.00     0.213 C 
HETATM   13  C   UNL     1      -0.168   7.028 -31.782  1.00  0.00     0.117 C 
HETATM   14  O   UNL     1      -1.879   8.263 -32.912  1.00  0.00    -0.274 OA
HETATM   15  H   UNL     1      -1.954   5.218 -31.991  1.00  0.00     0.162 HD
ENDBRANCH  10  11
ENDBRANCH   9  10
ENDBRANCH   6   9
ENDBRANCH   4   5
ENDBRANCH   3   4
ENDBRANCH   2   3
ENDBRANCH   1   2
BRANCH   1  16
HETATM   16  C   UNL     1      -7.100   0.865 -34.858  1.00  0.00     0.121 C 
BRANCH  16  17
HETATM   17  N   UNL     1      -6.974  -0.573 -34.659  1.00  0.00    -0.374 N 
HETATM   18  H   UNL     1      -7.322  -1.124 -35.434  1.00  0.00     0.161 HD
BRANCH  17  19
HETATM   19  C   UNL     1      -5.893  -1.096 -33.970  1.00  0.00     0.139 A 
HETATM   20  N   UNL     1      -5.212  -0.324 -33.171  1.00  0.00    -0.202 NA
HETATM   21  C   UNL     1      -4.110  -0.779 -32.497  1.00  0.00     0.200 A 
HETATM   22  S   UNL     1      -3.214   0.177 -31.450  1.00  0.00    -0.039 SA
HETATM   23  N   UNL     1      -3.688  -2.067 -32.688  1.00  0.00    -0.331 N 
HETATM   24  C   UNL     1      -4.371  -2.959 -33.510  1.00  0.00     0.048 A 
HETATM   25  H   UNL     1      -2.866  -2.357 -32.177  1.00  0.00     0.168 HD
HETATM   26  C   UNL     1      -5.517  -2.525 -34.172  1.00  0.00     0.036 A 
HETATM   27  C   UNL     1      -3.919  -4.270 -33.650  1.00  0.00     0.030 A 
HETATM   28  C   UNL     1      -6.243  -3.420 -34.961  1.00  0.00     0.017 A 
HETATM   29  C   UNL     1      -5.796  -4.737 -35.104  1.00  0.00     0.001 A 
HETATM   30  C   UNL     1      -4.633  -5.158 -34.455  1.00  0.00     0.002 A 
ENDBRANCH  17  19
ENDBRANCH  16  17
ENDBRANCH   1  16
TORSDOF 10
ENDMDL
MODEL 10
REMARK VINA RESULT:      -6.9      7.162      9.439
REMARK  10 active torsions:
REMARK  status: ('A' for Active; 'I' for Inactive)
REMARK       I    between atoms: C_2  and  N_3 
REMARK    1  A    between atoms: N_3  and  C_4 
REMARK    2  A    between atoms: C_4  and  C_5 
REMARK    3  A    between atoms: C_5  and  N_6 
REMARK       I    between atoms: N_6  and  C_7 
REMARK    4  A    between atoms: C_7  and  C_8 
REMARK    5  A    between atoms: C_8  and  C_9 
REMARK    6  A    between atoms: C_9  and  C_10 
REMARK    7  A    between atoms: C_10  and  C_11 
REMARK    8  A    between atoms: C_11  and  C_12 
REMARK    9  A    between atoms: C_12  and  N_13 
REMARK   10  A    between atoms: N_13  and  C_14 
ROOT
HETATM    1  C   UNL     1      -1.910   4.989 -34.263  1.00  0.00     0.020 C 
ENDROOT
BRANCH   1   2
HETATM    2  C   UNL     1      -2.676   4.159 -33.227  1.00  0.00     0.002 C 
BRANCH   2   3
HETATM    3  C   UNL     1      -4.090   4.680 -32.965  1.00  0.00     0.009 C 
BRANCH   3   4
HETATM    4  C   UNL     1      -5.146   3.608 -33.227  1.00  0.00     0.103 C 
BRANCH   4   5
HETATM    5  C   UNL     1      -5.737   3.119 -31.923  1.00  0.00     0.217 C 
HETATM    6  N   UNL     1      -5.085   2.039 -31.378  1.00  0.00    -0.360 N 
HETATM    7  H   UNL     1      -4.347   1.582 -31.897  1.00  0.00     0.162 HD
HETATM    8  O   UNL     1      -6.736   3.628 -31.424  1.00  0.00    -0.274 OA
BRANCH   6   9
HETATM    9  C   UNL     1      -5.587   1.366 -30.191  1.00  0.00     0.142 C 
BRANCH   9  10
HETATM   10  C   UNL     1      -6.406   0.113 -30.529  1.00  0.00     0.142 C 
BRANCH  10  11
HETATM   11  N   UNL     1      -7.762   0.410 -30.968  1.00  0.00    -0.360 N 
HETATM   12  C   UNL     1      -8.107   0.402 -32.297  1.00  0.00     0.213 C 
HETATM   13  C   UNL     1      -9.572   0.631 -32.561  1.00  0.00     0.117 C 
HETATM   14  O   UNL     1      -7.304   0.223 -33.207  1.00  0.00    -0.274 OA
HETATM   15  H   UNL     1      -8.484   0.461 -30.260  1.00  0.00     0.162 HD
ENDBRANCH  10  11
ENDBRANCH   9  10
ENDBRANCH   6   9
ENDBRANCH   4   5
ENDBRANCH   3   4
ENDBRANCH   2   3
ENDBRANCH   1   2
BRANCH   1  16
HETATM   16  C   UNL     1      -2.271   6.474 -34.238  1.00  0.00     0.121 C 
BRANCH  16  17
HETATM   17  N   UNL     1      -1.224   7.235 -33.569  1.00  0.00    -0.374 N 
HETATM   18  H   UNL     1      -0.724   7.867 -34.180  1.00  0.00     0.161 HD
BRANCH  17  19
HETATM   19  C   UNL     1      -1.384   7.649 -32.257  1.00  0.00     0.139 A 
HETATM   20  N   UNL     1      -2.123   8.691 -32.002  1.00  0.00    -0.202 NA
HETATM   21  C   UNL     1      -2.282   9.168 -30.729  1.00  0.00     0.200 A 
HETATM   22  S   UNL     1      -3.234  10.498 -30.357  1.00  0.00    -0.039 SA
HETATM   23  N   UNL     1      -1.624   8.558 -29.694  1.00  0.00    -0.331 N 
HETATM   24  C   UNL     1      -0.832   7.429 -29.881  1.00  0.00     0.048 A 
HETATM   25  H   UNL     1      -1.764   8.949 -28.773  1.00  0.00     0.168 HD
HETATM   26  C   UNL     1      -0.692   6.907 -31.164  1.00  0.00     0.036 A 
HETATM   27  C   UNL     1      -0.205   6.825 -28.792  1.00  0.00     0.030 A 
HETATM   28  C   UNL     1       0.059   5.745 -31.362  1.00  0.00     0.017 A 
HETATM   29  C   UNL     1       0.688   5.134 -30.273  1.00  0.00     0.001 A 
HETATM   30  C   UNL     1       0.561   5.677 -28.993  1.00  0.00     0.002 A 
ENDBRANCH  17  19
ENDBRANCH  16  17
ENDBRANCH   1  16
TORSDOF 10
ENDMDL
