MODEL 1
REMARK VINA RESULT:     -10.5      0.000      0.000
REMARK  5 active torsions:
REMARK  status: ('A' for Active; 'I' for Inactive)
REMARK    1  A    between atoms: C_6  and  S_7 
REMARK    2  A    between atoms: S_7  and  C_8 
REMARK    3  A    between atoms: C_8  and  C_9 
REMARK       I    between atoms: C_9  and  N_10 
REMARK    4  A    between atoms: N_10  and  C_11 
REMARK    5  A    between atoms: N_22  and  C_23 
ROOT
HETATM    1  C   UNL     1      -3.555  -4.685 -33.343  1.00  0.00     0.001 A 
HETATM    2  C   UNL     1      -3.421  -3.469 -32.674  1.00  0.00     0.019 A 
HETATM    3  C   UNL     1      -4.219  -2.379 -33.046  1.00  0.00     0.061 A 
HETATM    4  C   UNL     1      -5.140  -2.492 -34.081  1.00  0.00     0.075 A 
HETATM    5  N   UNL     1      -5.899  -1.407 -34.521  1.00  0.00    -0.223 NA
HETATM    6  C   UNL     1      -5.826  -0.289 -33.869  1.00  0.00     0.177 A 
HETATM    7  N   UNL     1      -5.023  -0.085 -32.744  1.00  0.00    -0.256 N 
HETATM    8  C   UNL     1      -4.141  -1.094 -32.329  1.00  0.00     0.267 A 
HETATM    9  O   UNL     1      -3.347  -1.013 -31.394  1.00  0.00    -0.267 OA
HETATM   10  C   UNL     1      -5.278  -3.720 -34.735  1.00  0.00     0.032 A 
HETATM   11  C   UNL     1      -4.487  -4.813 -34.370  1.00  0.00     0.002 A 
ENDROOT
BRANCH   6  12
HETATM   12  S   UNL     1      -6.691   1.073 -34.578  1.00  0.00    -0.082 SA
BRANCH  12  13
HETATM   13  C   UNL     1      -8.296   0.331 -34.998  1.00  0.00     0.185 C 
BRANCH  13  14
HETATM   14  C   UNL     1      -9.395   0.745 -34.026  1.00  0.00     0.231 C 
HETATM   15  N   UNL     1     -10.462   1.380 -34.632  1.00  0.00    -0.326 N 
HETATM   16  H   UNL     1     -10.342   1.584 -35.623  1.00  0.00     0.169 HD
HETATM   17  O   UNL     1      -9.309   0.468 -32.832  1.00  0.00    -0.272 OA
BRANCH  15  18
HETATM   18  C   UNL     1     -11.671   1.809 -34.049  1.00  0.00     0.037 A 
HETATM   19  C   UNL     1     -12.906   1.194 -34.288  1.00  0.00     0.061 A 
HETATM   20  C   UNL     1     -14.009   1.750 -33.678  1.00  0.00     0.065 A 
HETATM   21  C   UNL     1     -13.924   2.866 -32.850  1.00  0.00     0.063 A 
HETATM   22  N   UNL     1     -15.345   1.371 -33.747  1.00  0.00    -0.306 N 
HETATM   23  N   UNL     1     -15.205   3.173 -32.408  1.00  0.00    -0.307 N 
HETATM   24  C   UNL     1     -12.731   3.486 -32.583  1.00  0.00     0.034 A 
HETATM   25  C   UNL     1     -16.105   2.250 -32.962  1.00  0.00     0.325 A 
HETATM   26  H   UNL     1     -15.482   3.925 -31.799  1.00  0.00     0.170 HD
HETATM   27  O   UNL     1     -17.311   2.224 -32.793  1.00  0.00    -0.247 OA
HETATM   28  C   UNL     1     -11.595   2.944 -33.197  1.00  0.00     0.032 A 
HETATM   29  H   UNL     1     -15.733   0.601 -34.267  1.00  0.00     0.170 HD
ENDBRANCH  15  18
ENDBRANCH  13  14
ENDBRANCH  12  13
ENDBRANCH   6  12
BRANCH   7  30
HETATM   30  C   UNL     1      -5.091   1.100 -31.932  1.00  0.00     0.046 A 
HETATM   31  C   UNL     1      -4.115   2.105 -32.046  1.00  0.00     0.057 A 
HETATM   32  C   UNL     1      -4.157   3.233 -31.224  1.00  0.00     0.074 A 
HETATM   33 CL   UNL     1      -2.954   4.453 -31.398  1.00  0.00    -0.081 Cl
HETATM   34  C   UNL     1      -5.163   3.363 -30.273  1.00  0.00     0.138 A 
HETATM   35  F   UNL     1      -5.218   4.435 -29.469  1.00  0.00    -0.204 F 
HETATM   36  C   UNL     1      -6.130   2.373 -30.131  1.00  0.00     0.046 A 
HETATM   37  C   UNL     1      -6.091   1.244 -30.953  1.00  0.00     0.033 A 
ENDBRANCH   7  30
TORSDOF 5
ENDMDL
MODEL 2
REMARK VINA RESULT:      -9.8      3.444      5.652
REMARK  5 active torsions:
REMARK  status: ('A' for Active; 'I' for Inactive)
REMARK    1  A    between atoms: C_6  and  S_7 
REMARK    2  A    between atoms: S_7  and  C_8 
REMARK    3  A    between atoms: C_8  and  C_9 
REMARK       I    between atoms: C_9  and  N_10 
REMARK    4  A    between atoms: N_10  and  C_11 
REMARK    5  A    between atoms: N_22  and  C_23 
ROOT
HETATM    1  C   UNL     1      -0.457   6.029 -31.951  1.00  0.00     0.001 A 
HETATM    2  C   UNL     1      -1.195   4.852 -31.833  1.00  0.00     0.019 A 
HETATM    3  C   UNL     1      -2.552   4.844 -32.181  1.00  0.00     0.061 A 
HETATM    4  C   UNL     1      -3.176   5.999 -32.636  1.00  0.00     0.075 A 
HETATM    5  N   UNL     1      -4.541   6.040 -32.924  1.00  0.00    -0.223 NA
HETATM    6  C   UNL     1      -5.223   4.940 -32.875  1.00  0.00     0.177 A 
HETATM    7  N   UNL     1      -4.685   3.694 -32.542  1.00  0.00    -0.256 N 
HETATM    8  C   UNL     1      -3.350   3.607 -32.118  1.00  0.00     0.267 A 
HETATM    9  O   UNL     1      -2.782   2.582 -31.746  1.00  0.00    -0.267 OA
HETATM   10  C   UNL     1      -2.425   7.171 -32.765  1.00  0.00     0.032 A 
HETATM   11  C   UNL     1      -1.071   7.188 -32.422  1.00  0.00     0.002 A 
ENDROOT
BRANCH   6  12
HETATM   12  S   UNL     1      -6.964   5.102 -33.098  1.00  0.00    -0.082 SA
BRANCH  12  13
HETATM   13  C   UNL     1      -7.596   4.783 -31.425  1.00  0.00     0.185 C 
BRANCH  13  14
HETATM   14  C   UNL     1      -8.758   3.796 -31.425  1.00  0.00     0.231 C 
HETATM   15  N   UNL     1      -9.321   3.601 -32.673  1.00  0.00    -0.326 N 
HETATM   16  H   UNL     1      -8.964   4.208 -33.410  1.00  0.00     0.169 HD
HETATM   17  O   UNL     1      -9.087   3.218 -30.392  1.00  0.00    -0.272 OA
BRANCH  15  18
HETATM   18  C   UNL     1     -10.340   2.701 -33.042  1.00  0.00     0.037 A 
HETATM   19  C   UNL     1     -11.601   3.104 -33.498  1.00  0.00     0.061 A 
HETATM   20  C   UNL     1     -12.509   2.110 -33.784  1.00  0.00     0.065 A 
HETATM   21  C   UNL     1     -12.208   0.757 -33.642  1.00  0.00     0.063 A 
HETATM   22  N   UNL     1     -13.823   2.209 -34.229  1.00  0.00    -0.306 N 
HETATM   23  N   UNL     1     -13.334   0.026 -34.001  1.00  0.00    -0.307 N 
HETATM   24  C   UNL     1     -10.981   0.325 -33.211  1.00  0.00     0.034 A 
HETATM   25  C   UNL     1     -14.352   0.918 -34.367  1.00  0.00     0.325 A 
HETATM   26  H   UNL     1     -13.441  -0.975 -34.005  1.00  0.00     0.170 HD
HETATM   27  O   UNL     1     -15.477   0.625 -34.731  1.00  0.00    -0.247 OA
HETATM   28  C   UNL     1     -10.041   1.318 -32.907  1.00  0.00     0.032 A 
HETATM   29  H   UNL     1     -14.335   3.054 -34.425  1.00  0.00     0.170 HD
ENDBRANCH  15  18
ENDBRANCH  13  14
ENDBRANCH  12  13
ENDBRANCH   6  12
BRANCH   7  30
HETATM   30  C   UNL     1      -5.413   2.461 -32.669  1.00  0.00     0.046 A 
HETATM   31  C   UNL     1      -5.872   2.025 -33.924  1.00  0.00     0.057 A 
HETATM   32  C   UNL     1      -6.620   0.850 -34.039  1.00  0.00     0.074 A 
HETATM   33 CL   UNL     1      -7.156   0.336 -35.592  1.00  0.00    -0.081 Cl
HETATM   34  C   UNL     1      -6.926   0.108 -32.903  1.00  0.00     0.138 A 
HETATM   35  F   UNL     1      -7.647  -1.019 -32.990  1.00  0.00    -0.204 F 
HETATM   36  C   UNL     1      -6.496   0.529 -31.649  1.00  0.00     0.046 A 
HETATM   37  C   UNL     1      -5.747   1.704 -31.532  1.00  0.00     0.033 A 
ENDBRANCH   7  30
TORSDOF 5
ENDMDL
MODEL 3
REMARK VINA RESULT:      -9.7      4.106      8.680
REMARK  5 active torsions:
REMARK  status: ('A' for Active; 'I' for Inactive)
REMARK    1  A    between atoms: C_6  and  S_7 
REMARK    2  A    between atoms: S_7  and  C_8 
REMARK    3  A    between atoms: C_8  and  C_9 
REMARK       I    between atoms: C_9  and  N_10 
REMARK    4  A    between atoms: N_10  and  C_11 
REMARK    5  A    between atoms: N_22  and  C_23 
ROOT
HETATM    1  C   UNL     1     -11.149   2.695 -34.407  1.00  0.00     0.001 A 
HETATM    2  C   UNL     1     -10.101   1.891 -34.853  1.00  0.00     0.019 A 
HETATM    3  C   UNL     1      -9.214   1.327 -33.927  1.00  0.00     0.061 A 
HETATM    4  C   UNL     1      -9.361   1.564 -32.566  1.00  0.00     0.075 A 
HETATM    5  N   UNL     1      -8.455   1.073 -31.625  1.00  0.00    -0.223 NA
HETATM    6  C   UNL     1      -7.512   0.277 -32.022  1.00  0.00     0.177 A 
HETATM    7  N   UNL     1      -7.329  -0.127 -33.347  1.00  0.00    -0.256 N 
HETATM    8  C   UNL     1      -8.126   0.431 -34.358  1.00  0.00     0.267 A 
HETATM    9  O   UNL     1      -8.023   0.200 -35.561  1.00  0.00    -0.267 OA
HETATM   10  C   UNL     1     -10.424   2.359 -32.126  1.00  0.00     0.032 A 
HETATM   11  C   UNL     1     -11.314   2.925 -33.042  1.00  0.00     0.002 A 
ENDROOT
BRANCH   6  12
HETATM   12  S   UNL     1      -6.320  -0.172 -30.804  1.00  0.00    -0.082 SA
BRANCH  12  13
HETATM   13  C   UNL     1      -6.354   1.261 -29.687  1.00  0.00     0.185 C 
BRANCH  13  14
HETATM   14  C   UNL     1      -5.678   2.483 -30.297  1.00  0.00     0.231 C 
HETATM   15  N   UNL     1      -5.083   2.237 -31.520  1.00  0.00    -0.326 N 
HETATM   16  H   UNL     1      -5.080   1.261 -31.814  1.00  0.00     0.169 HD
HETATM   17  O   UNL     1      -5.733   3.574 -29.734  1.00  0.00    -0.272 OA
BRANCH  15  18
HETATM   18  C   UNL     1      -4.458   3.153 -32.389  1.00  0.00     0.037 A 
HETATM   19  C   UNL     1      -3.105   3.504 -32.300  1.00  0.00     0.061 A 
HETATM   20  C   UNL     1      -2.644   4.443 -33.195  1.00  0.00     0.065 A 
HETATM   21  C   UNL     1      -3.463   5.027 -34.159  1.00  0.00     0.063 A 
HETATM   22  N   UNL     1      -1.372   4.991 -33.329  1.00  0.00    -0.306 N 
HETATM   23  N   UNL     1      -2.697   5.930 -34.886  1.00  0.00    -0.307 N 
HETATM   24  C   UNL     1      -4.788   4.699 -34.284  1.00  0.00     0.034 A 
HETATM   25  C   UNL     1      -1.390   5.922 -34.378  1.00  0.00     0.325 A 
HETATM   26  H   UNL     1      -2.996   6.513 -35.649  1.00  0.00     0.170 HD
HETATM   27  O   UNL     1      -0.455   6.596 -34.772  1.00  0.00    -0.247 OA
HETATM   28  C   UNL     1      -5.283   3.749 -33.381  1.00  0.00     0.032 A 
HETATM   29  H   UNL     1      -0.557   4.777 -32.778  1.00  0.00     0.170 HD
ENDBRANCH  15  18
ENDBRANCH  13  14
ENDBRANCH  12  13
ENDBRANCH   6  12
BRANCH   7  30
HETATM   30  C   UNL     1      -6.395  -1.147 -33.738  1.00  0.00     0.046 A 
HETATM   31  C   UNL     1      -6.844  -2.349 -34.313  1.00  0.00     0.057 A 
HETATM   32  C   UNL     1      -5.939  -3.358 -34.650  1.00  0.00     0.074 A 
HETATM   33 CL   UNL     1      -6.519  -4.812 -35.365  1.00  0.00    -0.081 Cl
HETATM   34  C   UNL     1      -4.581  -3.183 -34.405  1.00  0.00     0.138 A 
HETATM   35  F   UNL     1      -3.695  -4.141 -34.716  1.00  0.00    -0.204 F 
HETATM   36  C   UNL     1      -4.115  -2.009 -33.822  1.00  0.00     0.046 A 
HETATM   37  C   UNL     1      -5.020  -0.997 -33.485  1.00  0.00     0.033 A 
ENDBRANCH   7  30
TORSDOF 5
ENDMDL
MODEL 4
REMARK VINA RESULT:      -9.7      4.262      8.215
REMARK  5 active torsions:
REMARK  status: ('A' for Active; 'I' for Inactive)
REMARK    1  A    between atoms: C_6  and  S_7 
REMARK    2  A    between atoms: S_7  and  C_8 
REMARK    3  A    between atoms: C_8  and  C_9 
REMARK       I    between atoms: C_9  and  N_10 
REMARK    4  A    between atoms: N_10  and  C_11 
REMARK    5  A    between atoms: N_22  and  C_23 
ROOT
HETATM    1  C   UNL     1      -4.738  -1.614 -33.813  1.00  0.00     0.001 A 
HETATM    2  C   UNL     1      -5.924  -1.122 -34.358  1.00  0.00     0.019 A 
HETATM    3  C   UNL     1      -6.751  -0.294 -33.588  1.00  0.00     0.061 A 
HETATM    4  C   UNL     1      -6.408   0.040 -32.284  1.00  0.00     0.075 A 
HETATM    5  N   UNL     1      -7.244   0.806 -31.470  1.00  0.00    -0.223 NA
HETATM    6  C   UNL     1      -8.318   1.317 -31.983  1.00  0.00     0.177 A 
HETATM    7  N   UNL     1      -8.713   1.148 -33.313  1.00  0.00    -0.256 N 
HETATM    8  C   UNL     1      -7.985   0.286 -34.148  1.00  0.00     0.267 A 
HETATM    9  O   UNL     1      -8.264   0.011 -35.313  1.00  0.00    -0.267 OA
HETATM   10  C   UNL     1      -5.210  -0.445 -31.752  1.00  0.00     0.032 A 
HETATM   11  C   UNL     1      -4.378  -1.271 -32.511  1.00  0.00     0.002 A 
ENDROOT
BRANCH   6  12
HETATM   12  S   UNL     1      -9.397   2.137 -30.855  1.00  0.00    -0.082 SA
BRANCH  12  13
HETATM   13  C   UNL     1      -8.905   3.875 -31.049  1.00  0.00     0.185 C 
BRANCH  13  14
HETATM   14  C   UNL     1      -7.393   4.058 -30.973  1.00  0.00     0.231 C 
HETATM   15  N   UNL     1      -6.771   4.061 -32.207  1.00  0.00    -0.326 N 
HETATM   16  H   UNL     1      -7.374   3.840 -32.999  1.00  0.00     0.169 HD
HETATM   17  O   UNL     1      -6.839   4.235 -29.891  1.00  0.00    -0.272 OA
BRANCH  15  18
HETATM   18  C   UNL     1      -5.413   4.294 -32.502  1.00  0.00     0.037 A 
HETATM   19  C   UNL     1      -4.927   5.508 -33.000  1.00  0.00     0.061 A 
HETATM   20  C   UNL     1      -3.580   5.574 -33.279  1.00  0.00     0.065 A 
HETATM   21  C   UNL     1      -2.719   4.499 -33.076  1.00  0.00     0.063 A 
HETATM   22  N   UNL     1      -2.831   6.628 -33.793  1.00  0.00    -0.306 N 
HETATM   23  N   UNL     1      -1.442   4.890 -33.462  1.00  0.00    -0.307 N 
HETATM   24  C   UNL     1      -3.156   3.299 -32.578  1.00  0.00     0.034 A 
HETATM   25  C   UNL     1      -1.497   6.216 -33.915  1.00  0.00     0.325 A 
HETATM   26  H   UNL     1      -0.599   4.342 -33.440  1.00  0.00     0.170 HD
HETATM   27  O   UNL     1      -0.563   6.877 -34.335  1.00  0.00    -0.247 OA
HETATM   28  C   UNL     1      -4.524   3.205 -32.292  1.00  0.00     0.032 A 
HETATM   29  H   UNL     1      -3.165   7.543 -34.047  1.00  0.00     0.170 HD
ENDBRANCH  15  18
ENDBRANCH  13  14
ENDBRANCH  12  13
ENDBRANCH   6  12
BRANCH   7  30
HETATM   30  C   UNL     1      -9.806   1.867 -33.909  1.00  0.00     0.046 A 
HETATM   31  C   UNL     1     -11.081   1.281 -34.004  1.00  0.00     0.057 A 
HETATM   32  C   UNL     1     -12.131   1.962 -34.625  1.00  0.00     0.074 A 
HETATM   33 CL   UNL     1     -13.684   1.224 -34.714  1.00  0.00    -0.081 Cl
HETATM   34  C   UNL     1     -11.916   3.226 -35.165  1.00  0.00     0.138 A 
HETATM   35  F   UNL     1     -12.909   3.894 -35.770  1.00  0.00    -0.204 F 
HETATM   36  C   UNL     1     -10.660   3.817 -35.097  1.00  0.00     0.046 A 
HETATM   37  C   UNL     1      -9.608   3.138 -34.475  1.00  0.00     0.033 A 
ENDBRANCH   7  30
TORSDOF 5
ENDMDL
MODEL 5
REMARK VINA RESULT:      -9.6      4.564      8.304
REMARK  5 active torsions:
REMARK  status: ('A' for Active; 'I' for Inactive)
REMARK    1  A    between atoms: C_6  and  S_7 
REMARK    2  A    between atoms: S_7  and  C_8 
REMARK    3  A    between atoms: C_8  and  C_9 
REMARK       I    between atoms: C_9  and  N_10 
REMARK    4  A    between atoms: N_10  and  C_11 
REMARK    5  A    between atoms: N_22  and  C_23 
ROOT
HETATM    1  C   UNL     1      -1.365   6.640 -33.837  1.00  0.00     0.001 A 
HETATM    2  C   UNL     1      -2.507   6.012 -34.332  1.00  0.00     0.019 A 
HETATM    3  C   UNL     1      -3.477   5.533 -33.443  1.00  0.00     0.061 A 
HETATM    4  C   UNL     1      -3.314   5.668 -32.070  1.00  0.00     0.075 A 
HETATM    5  N   UNL     1      -4.228   5.140 -31.158  1.00  0.00    -0.223 NA
HETATM    6  C   UNL     1      -5.321   4.608 -31.606  1.00  0.00     0.177 A 
HETATM    7  N   UNL     1      -5.654   4.515 -32.961  1.00  0.00    -0.256 N 
HETATM    8  C   UNL     1      -4.721   4.910 -33.932  1.00  0.00     0.267 A 
HETATM    9  O   UNL     1      -4.873   4.823 -35.149  1.00  0.00    -0.267 OA
HETATM   10  C   UNL     1      -2.173   6.312 -31.583  1.00  0.00     0.032 A 
HETATM   11  C   UNL     1      -1.200   6.795 -32.462  1.00  0.00     0.002 A 
ENDROOT
BRANCH   6  12
HETATM   12  S   UNL     1      -6.347   3.826 -30.405  1.00  0.00    -0.082 SA
BRANCH  12  13
HETATM   13  C   UNL     1      -5.241   2.556 -29.724  1.00  0.00     0.185 C 
BRANCH  13  14
HETATM   14  C   UNL     1      -5.518   1.176 -30.309  1.00  0.00     0.231 C 
HETATM   15  N   UNL     1      -4.833   0.922 -31.482  1.00  0.00    -0.326 N 
HETATM   16  H   UNL     1      -4.314   1.712 -31.863  1.00  0.00     0.169 HD
HETATM   17  O   UNL     1      -6.252   0.385 -29.722  1.00  0.00    -0.272 OA
BRANCH  15  18
HETATM   18  C   UNL     1      -4.790  -0.272 -32.229  1.00  0.00     0.037 A 
HETATM   19  C   UNL     1      -5.818  -0.688 -33.084  1.00  0.00     0.061 A 
HETATM   20  C   UNL     1      -5.651  -1.898 -33.718  1.00  0.00     0.065 A 
HETATM   21  C   UNL     1      -4.518  -2.689 -33.540  1.00  0.00     0.063 A 
HETATM   22  N   UNL     1      -6.500  -2.564 -34.596  1.00  0.00    -0.306 N 
HETATM   23  N   UNL     1      -4.668  -3.837 -34.307  1.00  0.00    -0.307 N 
HETATM   24  C   UNL     1      -3.487  -2.309 -32.721  1.00  0.00     0.034 A 
HETATM   25  C   UNL     1      -5.903  -3.776 -34.970  1.00  0.00     0.325 A 
HETATM   26  H   UNL     1      -4.026  -4.607 -34.394  1.00  0.00     0.170 HD
HETATM   27  O   UNL     1      -6.363  -4.616 -35.723  1.00  0.00    -0.247 OA
HETATM   28  C   UNL     1      -3.635  -1.083 -32.059  1.00  0.00     0.032 A 
HETATM   29  H   UNL     1      -7.401  -2.254 -34.923  1.00  0.00     0.170 HD
ENDBRANCH  15  18
ENDBRANCH  13  14
ENDBRANCH  12  13
ENDBRANCH   6  12
BRANCH   7  30
HETATM   30  C   UNL     1      -6.944   4.087 -33.428  1.00  0.00     0.046 A 
HETATM   31  C   UNL     1      -7.184   2.735 -33.732  1.00  0.00     0.057 A 
HETATM   32  C   UNL     1      -8.423   2.328 -34.231  1.00  0.00     0.074 A 
HETATM   33 CL   UNL     1      -8.690   0.664 -34.581  1.00  0.00    -0.081 Cl
HETATM   34  C   UNL     1      -9.429   3.265 -34.441  1.00  0.00     0.138 A 
HETATM   35  F   UNL     1     -10.625   2.897 -34.925  1.00  0.00    -0.204 F 
HETATM   36  C   UNL     1      -9.209   4.610 -34.163  1.00  0.00     0.046 A 
HETATM   37  C   UNL     1      -7.969   5.020 -33.663  1.00  0.00     0.033 A 
ENDBRANCH   7  30
TORSDOF 5
ENDMDL
MODEL 6
REMARK VINA RESULT:      -9.4      2.793      3.271
REMARK  5 active torsions:
REMARK  status: ('A' for Active; 'I' for Inactive)
REMARK    1  A    between atoms: C_6  and  S_7 
REMARK    2  A    between atoms: S_7  and  C_8 
REMARK    3  A    between atoms: C_8  and  C_9 
REMARK       I    between atoms: C_9  and  N_10 
REMARK    4  A    between atoms: N_10  and  C_11 
REMARK    5  A    between atoms: N_22  and  C_23 
ROOT
HETATM    1  C   UNL     1      -3.848  -4.894 -33.848  1.00  0.00     0.001 A 
HETATM    2  C   UNL     1      -3.672  -3.702 -33.146  1.00  0.00     0.019 A 
HETATM    3  C   UNL     1      -4.524  -2.618 -33.393  1.00  0.00     0.061 A 
HETATM    4  C   UNL     1      -5.539  -2.711 -34.337  1.00  0.00     0.075 A 
HETATM    5  N   UNL     1      -6.358  -1.627 -34.656  1.00  0.00    -0.223 NA
HETATM    6  C   UNL     1      -6.244  -0.535 -33.969  1.00  0.00     0.177 A 
HETATM    7  N   UNL     1      -5.339  -0.356 -32.919  1.00  0.00    -0.256 N 
HETATM    8  C   UNL     1      -4.401  -1.360 -32.634  1.00  0.00     0.267 A 
HETATM    9  O   UNL     1      -3.521  -1.298 -31.778  1.00  0.00    -0.267 OA
HETATM   10  C   UNL     1      -5.716  -3.915 -35.026  1.00  0.00     0.032 A 
HETATM   11  C   UNL     1      -4.873  -5.003 -34.785  1.00  0.00     0.002 A 
ENDROOT
BRANCH   6  12
HETATM   12  S   UNL     1      -7.200   0.834 -34.533  1.00  0.00    -0.082 SA
BRANCH  12  13
HETATM   13  C   UNL     1      -8.778   0.581 -33.668  1.00  0.00     0.185 C 
BRANCH  13  14
HETATM   14  C   UNL     1      -9.572   1.875 -33.526  1.00  0.00     0.231 C 
HETATM   15  N   UNL     1      -9.647   2.611 -34.693  1.00  0.00    -0.326 N 
HETATM   16  H   UNL     1      -9.087   2.257 -35.468  1.00  0.00     0.169 HD
HETATM   17  O   UNL     1     -10.116   2.161 -32.462  1.00  0.00    -0.272 OA
BRANCH  15  18
HETATM   18  C   UNL     1     -10.369   3.797 -34.934  1.00  0.00     0.037 A 
HETATM   19  C   UNL     1      -9.792   5.072 -34.911  1.00  0.00     0.061 A 
HETATM   20  C   UNL     1     -10.632   6.142 -35.127  1.00  0.00     0.065 A 
HETATM   21  C   UNL     1     -11.995   5.987 -35.367  1.00  0.00     0.063 A 
HETATM   22  N   UNL     1     -10.349   7.504 -35.142  1.00  0.00    -0.306 N 
HETATM   23  N   UNL     1     -12.549   7.251 -35.532  1.00  0.00    -0.307 N 
HETATM   24  C   UNL     1     -12.592   4.755 -35.410  1.00  0.00     0.034 A 
HETATM   25  C   UNL     1     -11.534   8.209 -35.392  1.00  0.00     0.325 A 
HETATM   26  H   UNL     1     -13.511   7.481 -35.717  1.00  0.00     0.170 HD
HETATM   27  O   UNL     1     -11.663   9.417 -35.469  1.00  0.00    -0.247 OA
HETATM   28  C   UNL     1     -11.760   3.650 -35.188  1.00  0.00     0.032 A 
HETATM   29  H   UNL     1      -9.452   7.939 -34.998  1.00  0.00     0.170 HD
ENDBRANCH  15  18
ENDBRANCH  13  14
ENDBRANCH  12  13
ENDBRANCH   6  12
BRANCH   7  30
HETATM   30  C   UNL     1      -5.350   0.793 -32.055  1.00  0.00     0.046 A 
HETATM   31  C   UNL     1      -4.442   1.848 -32.254  1.00  0.00     0.057 A 
HETATM   32  C   UNL     1      -4.423   2.942 -31.386  1.00  0.00     0.074 A 
HETATM   33 CL   UNL     1      -3.308   4.224 -31.664  1.00  0.00    -0.081 Cl
HETATM   34  C   UNL     1      -5.299   2.988 -30.307  1.00  0.00     0.138 A 
HETATM   35  F   UNL     1      -5.294   4.027 -29.459  1.00  0.00    -0.204 F 
HETATM   36  C   UNL     1      -6.195   1.949 -30.082  1.00  0.00     0.046 A 
HETATM   37  C   UNL     1      -6.217   0.853 -30.950  1.00  0.00     0.033 A 
ENDBRANCH   7  30
TORSDOF 5
ENDMDL
MODEL 7
REMARK VINA RESULT:      -9.4      3.653      8.766
REMARK  5 active torsions:
REMARK  status: ('A' for Active; 'I' for Inactive)
REMARK    1  A    between atoms: C_6  and  S_7 
REMARK    2  A    between atoms: S_7  and  C_8 
REMARK    3  A    between atoms: C_8  and  C_9 
REMARK       I    between atoms: C_9  and  N_10 
REMARK    4  A    between atoms: N_10  and  C_11 
REMARK    5  A    between atoms: N_22  and  C_23 
ROOT
HETATM    1  C   UNL     1     -14.057   0.011 -33.657  1.00  0.00     0.001 A 
HETATM    2  C   UNL     1     -12.696  -0.246 -33.498  1.00  0.00     0.019 A 
HETATM    3  C   UNL     1     -11.779   0.811 -33.550  1.00  0.00     0.061 A 
HETATM    4  C   UNL     1     -12.207   2.115 -33.765  1.00  0.00     0.075 A 
HETATM    5  N   UNL     1     -11.312   3.179 -33.892  1.00  0.00    -0.223 NA
HETATM    6  C   UNL     1     -10.051   2.962 -33.687  1.00  0.00     0.177 A 
HETATM    7  N   UNL     1      -9.511   1.718 -33.352  1.00  0.00    -0.256 N 
HETATM    8  C   UNL     1     -10.338   0.584 -33.336  1.00  0.00     0.267 A 
HETATM    9  O   UNL     1      -9.971  -0.568 -33.114  1.00  0.00    -0.267 OA
HETATM   10  C   UNL     1     -13.575   2.365 -33.908  1.00  0.00     0.032 A 
HETATM   11  C   UNL     1     -14.498   1.317 -33.857  1.00  0.00     0.002 A 
ENDROOT
BRANCH   6  12
HETATM   12  S   UNL     1      -8.973   4.316 -34.018  1.00  0.00    -0.082 SA
BRANCH  12  13
HETATM   13  C   UNL     1      -8.821   5.093 -32.383  1.00  0.00     0.185 C 
BRANCH  13  14
HETATM   14  C   UNL     1      -7.366   5.299 -31.975  1.00  0.00     0.231 C 
HETATM   15  N   UNL     1      -6.457   4.803 -32.891  1.00  0.00    -0.326 N 
HETATM   16  H   UNL     1      -6.862   4.278 -33.665  1.00  0.00     0.169 HD
HETATM   17  O   UNL     1      -7.086   5.901 -30.942  1.00  0.00    -0.272 OA
BRANCH  15  18
HETATM   18  C   UNL     1      -5.052   4.903 -32.871  1.00  0.00     0.037 A 
HETATM   19  C   UNL     1      -4.272   4.615 -31.745  1.00  0.00     0.061 A 
HETATM   20  C   UNL     1      -2.912   4.797 -31.864  1.00  0.00     0.065 A 
HETATM   21  C   UNL     1      -2.316   5.240 -33.043  1.00  0.00     0.063 A 
HETATM   22  N   UNL     1      -1.906   4.612 -30.922  1.00  0.00    -0.306 N 
HETATM   23  N   UNL     1      -0.946   5.325 -32.827  1.00  0.00    -0.307 N 
HETATM   24  C   UNL     1      -3.046   5.520 -34.168  1.00  0.00     0.034 A 
HETATM   25  C   UNL     1      -0.674   4.939 -31.506  1.00  0.00     0.325 A 
HETATM   26  H   UNL     1      -0.238   5.615 -33.480  1.00  0.00     0.170 HD
HETATM   27  O   UNL     1       0.420   4.899 -30.973  1.00  0.00    -0.247 OA
HETATM   28  C   UNL     1      -4.433   5.348 -34.070  1.00  0.00     0.032 A 
HETATM   29  H   UNL     1      -2.015   4.299 -29.971  1.00  0.00     0.170 HD
ENDBRANCH  15  18
ENDBRANCH  13  14
ENDBRANCH  12  13
ENDBRANCH   6  12
BRANCH   7  30
HETATM   30  C   UNL     1      -8.141   1.534 -32.954  1.00  0.00     0.046 A 
HETATM   31  C   UNL     1      -7.771   1.616 -31.601  1.00  0.00     0.057 A 
HETATM   32  C   UNL     1      -6.433   1.483 -31.221  1.00  0.00     0.074 A 
HETATM   33 CL   UNL     1      -6.013   1.575 -29.554  1.00  0.00    -0.081 Cl
HETATM   34  C   UNL     1      -5.453   1.281 -32.187  1.00  0.00     0.138 A 
HETATM   35  F   UNL     1      -4.163   1.157 -31.844  1.00  0.00    -0.204 F 
HETATM   36  C   UNL     1      -5.795   1.212 -33.533  1.00  0.00     0.046 A 
HETATM   37  C   UNL     1      -7.133   1.344 -33.916  1.00  0.00     0.033 A 
ENDBRANCH   7  30
TORSDOF 5
ENDMDL
MODEL 8
REMARK VINA RESULT:      -9.3      5.669      9.331
REMARK  5 active torsions:
REMARK  status: ('A' for Active; 'I' for Inactive)
REMARK    1  A    between atoms: C_6  and  S_7 
REMARK    2  A    between atoms: S_7  and  C_8 
REMARK    3  A    between atoms: C_8  and  C_9 
REMARK       I    between atoms: C_9  and  N_10 
REMARK    4  A    between atoms: N_10  and  C_11 
REMARK    5  A    between atoms: N_22  and  C_23 
ROOT
HETATM    1  C   UNL     1       1.509   9.024 -26.960  1.00  0.00     0.001 A 
HETATM    2  C   UNL     1       1.275   8.204 -28.063  1.00  0.00     0.019 A 
HETATM    3  C   UNL     1      -0.015   8.114 -28.602  1.00  0.00     0.061 A 
HETATM    4  C   UNL     1      -1.069   8.828 -28.047  1.00  0.00     0.075 A 
HETATM    5  N   UNL     1      -2.377   8.706 -28.517  1.00  0.00    -0.223 NA
HETATM    6  C   UNL     1      -2.596   7.994 -29.577  1.00  0.00     0.177 A 
HETATM    7  N   UNL     1      -1.602   7.321 -30.292  1.00  0.00    -0.256 N 
HETATM    8  C   UNL     1      -0.289   7.298 -29.799  1.00  0.00     0.267 A 
HETATM    9  O   UNL     1       0.657   6.695 -30.303  1.00  0.00    -0.267 OA
HETATM   10  C   UNL     1      -0.823   9.659 -26.950  1.00  0.00     0.032 A 
HETATM   11  C   UNL     1       0.461   9.757 -26.406  1.00  0.00     0.002 A 
ENDROOT
BRANCH   6  12
HETATM   12  S   UNL     1      -4.288   7.763 -30.015  1.00  0.00    -0.082 SA
BRANCH  12  13
HETATM   13  C   UNL     1      -5.004   7.148 -28.463  1.00  0.00     0.185 C 
BRANCH  13  14
HETATM   14  C   UNL     1      -5.864   5.907 -28.676  1.00  0.00     0.231 C 
HETATM   15  N   UNL     1      -5.541   5.197 -29.817  1.00  0.00    -0.326 N 
HETATM   16  H   UNL     1      -4.848   5.637 -30.421  1.00  0.00     0.169 HD
HETATM   17  O   UNL     1      -6.717   5.589 -27.850  1.00  0.00    -0.272 OA
BRANCH  15  18
HETATM   18  C   UNL     1      -6.069   3.969 -30.262  1.00  0.00     0.037 A 
HETATM   19  C   UNL     1      -7.346   3.833 -30.820  1.00  0.00     0.061 A 
HETATM   20  C   UNL     1      -7.741   2.562 -31.173  1.00  0.00     0.065 A 
HETATM   21  C   UNL     1      -6.923   1.448 -30.999  1.00  0.00     0.063 A 
HETATM   22  N   UNL     1      -8.942   2.126 -31.723  1.00  0.00    -0.306 N 
HETATM   23  N   UNL     1      -7.618   0.330 -31.444  1.00  0.00    -0.307 N 
HETATM   24  C   UNL     1      -5.664   1.544 -30.468  1.00  0.00     0.034 A 
HETATM   25  C   UNL     1      -8.882   0.736 -31.896  1.00  0.00     0.325 A 
HETATM   26  H   UNL     1      -7.305  -0.626 -31.450  1.00  0.00     0.170 HD
HETATM   27  O   UNL     1      -9.756   0.018 -32.347  1.00  0.00    -0.247 OA
HETATM   28  C   UNL     1      -5.241   2.827 -30.096  1.00  0.00     0.032 A 
HETATM   29  H   UNL     1      -9.740   2.692 -31.964  1.00  0.00     0.170 HD
ENDBRANCH  15  18
ENDBRANCH  13  14
ENDBRANCH  12  13
ENDBRANCH   6  12
BRANCH   7  30
HETATM   30  C   UNL     1      -1.835   6.687 -31.562  1.00  0.00     0.046 A 
HETATM   31  C   UNL     1      -2.267   5.351 -31.627  1.00  0.00     0.057 A 
HETATM   32  C   UNL     1      -2.448   4.723 -32.861  1.00  0.00     0.074 A 
HETATM   33 CL   UNL     1      -2.991   3.090 -32.909  1.00  0.00    -0.081 Cl
HETATM   34  C   UNL     1      -2.190   5.416 -34.039  1.00  0.00     0.138 A 
HETATM   35  F   UNL     1      -2.352   4.830 -35.234  1.00  0.00    -0.204 F 
HETATM   36  C   UNL     1      -1.746   6.734 -33.998  1.00  0.00     0.046 A 
HETATM   37  C   UNL     1      -1.565   7.365 -32.763  1.00  0.00     0.033 A 
ENDBRANCH   7  30
TORSDOF 5
ENDMDL
MODEL 9
REMARK VINA RESULT:      -9.2      3.733      6.428
REMARK  5 active torsions:
REMARK  status: ('A' for Active; 'I' for Inactive)
REMARK    1  A    between atoms: C_6  and  S_7 
REMARK    2  A    between atoms: S_7  and  C_8 
REMARK    3  A    between atoms: C_8  and  C_9 
REMARK       I    between atoms: C_9  and  N_10 
REMARK    4  A    between atoms: N_10  and  C_11 
REMARK    5  A    between atoms: N_22  and  C_23 
ROOT
HETATM    1  C   UNL     1      -1.491   7.862 -32.528  1.00  0.00     0.001 A 
HETATM    2  C   UNL     1      -1.702   6.531 -32.884  1.00  0.00     0.019 A 
HETATM    3  C   UNL     1      -2.696   5.787 -32.235  1.00  0.00     0.061 A 
HETATM    4  C   UNL     1      -3.471   6.357 -31.234  1.00  0.00     0.075 A 
HETATM    5  N   UNL     1      -4.421   5.622 -30.521  1.00  0.00    -0.223 NA
HETATM    6  C   UNL     1      -4.667   4.402 -30.883  1.00  0.00     0.177 A 
HETATM    7  N   UNL     1      -4.034   3.754 -31.948  1.00  0.00    -0.256 N 
HETATM    8  C   UNL     1      -2.981   4.393 -32.621  1.00  0.00     0.267 A 
HETATM    9  O   UNL     1      -2.312   3.907 -33.530  1.00  0.00    -0.267 OA
HETATM   10  C   UNL     1      -3.263   7.696 -30.893  1.00  0.00     0.032 A 
HETATM   11  C   UNL     1      -2.275   8.447 -31.536  1.00  0.00     0.002 A 
ENDROOT
BRANCH   6  12
HETATM   12  S   UNL     1      -5.760   3.495 -29.840  1.00  0.00    -0.082 SA
BRANCH  12  13
HETATM   13  C   UNL     1      -6.996   4.750 -29.396  1.00  0.00     0.185 C 
BRANCH  13  14
HETATM   14  C   UNL     1      -8.143   4.810 -30.398  1.00  0.00     0.231 C 
HETATM   15  N   UNL     1      -8.123   3.786 -31.327  1.00  0.00    -0.326 N 
HETATM   16  H   UNL     1      -7.301   3.184 -31.294  1.00  0.00     0.169 HD
HETATM   17  O   UNL     1      -9.006   5.680 -30.309  1.00  0.00    -0.272 OA
BRANCH  15  18
HETATM   18  C   UNL     1      -9.072   3.493 -32.326  1.00  0.00     0.037 A 
HETATM   19  C   UNL     1     -10.137   2.602 -32.145  1.00  0.00     0.061 A 
HETATM   20  C   UNL     1     -10.961   2.386 -33.227  1.00  0.00     0.065 A 
HETATM   21  C   UNL     1     -10.769   3.018 -34.454  1.00  0.00     0.063 A 
HETATM   22  N   UNL     1     -12.069   1.554 -33.346  1.00  0.00    -0.306 N 
HETATM   23  N   UNL     1     -11.758   2.578 -35.325  1.00  0.00    -0.307 N 
HETATM   24  C   UNL     1      -9.745   3.905 -34.664  1.00  0.00     0.034 A 
HETATM   25  C   UNL     1     -12.576   1.661 -34.649  1.00  0.00     0.325 A 
HETATM   26  H   UNL     1     -11.893   2.844 -36.286  1.00  0.00     0.170 HD
HETATM   27  O   UNL     1     -13.538   1.071 -35.109  1.00  0.00    -0.247 OA
HETATM   28  C   UNL     1      -8.889   4.138 -33.580  1.00  0.00     0.032 A 
HETATM   29  H   UNL     1     -12.463   0.961 -32.634  1.00  0.00     0.170 HD
ENDBRANCH  15  18
ENDBRANCH  13  14
ENDBRANCH  12  13
ENDBRANCH   6  12
BRANCH   7  30
HETATM   30  C   UNL     1      -4.446   2.470 -32.446  1.00  0.00     0.046 A 
HETATM   31  C   UNL     1      -5.579   2.350 -33.269  1.00  0.00     0.057 A 
HETATM   32  C   UNL     1      -6.005   1.097 -33.714  1.00  0.00     0.074 A 
HETATM   33 CL   UNL     1      -7.388   0.984 -34.732  1.00  0.00    -0.081 Cl
HETATM   34  C   UNL     1      -5.312  -0.048 -33.333  1.00  0.00     0.138 A 
HETATM   35  F   UNL     1      -5.707  -1.262 -33.744  1.00  0.00    -0.204 F 
HETATM   36  C   UNL     1      -4.198   0.045 -32.506  1.00  0.00     0.046 A 
HETATM   37  C   UNL     1      -3.770   1.299 -32.060  1.00  0.00     0.033 A 
ENDBRANCH   7  30
TORSDOF 5
ENDMDL
MODEL 10
REMARK VINA RESULT:      -9.0      3.857      6.870
REMARK  5 active torsions:
REMARK  status: ('A' for Active; 'I' for Inactive)
REMARK    1  A    between atoms: C_6  and  S_7 
REMARK    2  A    between atoms: S_7  and  C_8 
REMARK    3  A    between atoms: C_8  and  C_9 
REMARK       I    between atoms: C_9  and  N_10 
REMARK    4  A    between atoms: N_10  and  C_11 
REMARK    5  A    between atoms: N_22  and  C_23 
ROOT
HETATM    1  C   UNL     1      -0.162   7.835 -29.000  1.00  0.00     0.001 A 
HETATM    2  C   UNL     1      -1.548   7.692 -29.042  1.00  0.00     0.019 A 
HETATM    3  C   UNL     1      -2.122   6.731 -29.884  1.00  0.00     0.061 A 
HETATM    4  C   UNL     1      -1.328   5.921 -30.686  1.00  0.00     0.075 A 
HETATM    5  N   UNL     1      -1.872   5.004 -31.586  1.00  0.00    -0.223 NA
HETATM    6  C   UNL     1      -3.155   4.821 -31.591  1.00  0.00     0.177 A 
HETATM    7  N   UNL     1      -4.050   5.491 -30.753  1.00  0.00    -0.256 N 
HETATM    8  C   UNL     1      -3.581   6.517 -29.917  1.00  0.00     0.267 A 
HETATM    9  O   UNL     1      -4.274   7.216 -29.181  1.00  0.00    -0.267 OA
HETATM   10  C   UNL     1       0.062   6.062 -30.626  1.00  0.00     0.032 A 
HETATM   11  C   UNL     1       0.644   7.016 -29.788  1.00  0.00     0.002 A 
ENDROOT
BRANCH   6  12
HETATM   12  S   UNL     1      -3.777   3.766 -32.858  1.00  0.00    -0.082 SA
BRANCH  12  13
HETATM   13  C   UNL     1      -3.718   2.134 -32.062  1.00  0.00     0.185 C 
BRANCH  13  14
HETATM   14  C   UNL     1      -5.032   1.374 -32.206  1.00  0.00     0.231 C 
HETATM   15  N   UNL     1      -6.118   2.186 -32.470  1.00  0.00    -0.326 N 
HETATM   16  H   UNL     1      -5.931   3.188 -32.435  1.00  0.00     0.169 HD
HETATM   17  O   UNL     1      -5.055   0.147 -32.135  1.00  0.00    -0.272 OA
BRANCH  15  18
HETATM   18  C   UNL     1      -7.447   1.809 -32.746  1.00  0.00     0.037 A 
HETATM   19  C   UNL     1      -8.167   2.266 -33.856  1.00  0.00     0.061 A 
HETATM   20  C   UNL     1      -9.472   1.842 -33.972  1.00  0.00     0.065 A 
HETATM   21  C   UNL     1     -10.068   0.990 -33.045  1.00  0.00     0.063 A 
HETATM   22  N   UNL     1     -10.420   2.143 -34.945  1.00  0.00    -0.306 N 
HETATM   23  N   UNL     1     -11.379   0.766 -33.447  1.00  0.00    -0.307 N 
HETATM   24  C   UNL     1      -9.391   0.513 -31.954  1.00  0.00     0.034 A 
HETATM   25  C   UNL     1     -11.615   1.482 -34.630  1.00  0.00     0.325 A 
HETATM   26  H   UNL     1     -12.074   0.199 -32.991  1.00  0.00     0.170 HD
HETATM   27  O   UNL     1     -12.659   1.521 -35.258  1.00  0.00    -0.247 OA
HETATM   28  C   UNL     1      -8.063   0.935 -31.810  1.00  0.00     0.032 A 
HETATM   29  H   UNL     1     -10.297   2.736 -35.749  1.00  0.00     0.170 HD
ENDBRANCH  15  18
ENDBRANCH  13  14
ENDBRANCH  12  13
ENDBRANCH   6  12
BRANCH   7  30
HETATM   30  C   UNL     1      -5.441   5.147 -30.647  1.00  0.00     0.046 A 
HETATM   31  C   UNL     1      -6.391   5.730 -31.504  1.00  0.00     0.057 A 
HETATM   32  C   UNL     1      -7.748   5.429 -31.370  1.00  0.00     0.074 A 
HETATM   33 CL   UNL     1      -8.885   6.149 -32.444  1.00  0.00    -0.081 Cl
HETATM   34  C   UNL     1      -8.171   4.555 -30.374  1.00  0.00     0.138 A 
HETATM   35  F   UNL     1      -9.470   4.257 -30.225  1.00  0.00    -0.204 F 
HETATM   36  C   UNL     1      -7.252   3.979 -29.505  1.00  0.00     0.046 A 
HETATM   37  C   UNL     1      -5.892   4.278 -29.638  1.00  0.00     0.033 A 
ENDBRANCH   7  30
TORSDOF 5
ENDMDL
