MODEL 1
REMARK VINA RESULT:      -9.6      0.000      0.000
REMARK  4 active torsions:
REMARK  status: ('A' for Active; 'I' for Inactive)
REMARK    1  A    between atoms: C_2  and  C_3 
REMARK    2  A    between atoms: C_6  and  C_7 
REMARK    3  A    between atoms: N_8  and  N_9 
REMARK       I    between atoms: N_9  and  C_10 
REMARK    4  A    between atoms: C_10  and  C_11 
ROOT
HETATM    1  N   UNL     1      -2.961   3.977 -32.130  1.00  0.00    -0.242 N 
HETATM    2  C   UNL     1      -2.157   4.929 -32.732  1.00  0.00     0.292 C 
HETATM    3  O   UNL     1      -1.515   4.849 -33.768  1.00  0.00    -0.264 OA
HETATM    4  H   UNL     1      -3.452   4.251 -31.280  1.00  0.00     0.192 HD
ENDROOT
BRANCH   1   5
HETATM    5  N   UNL     1      -3.044   2.639 -32.420  1.00  0.00    -0.183 NA
HETATM    6  C   UNL     1      -4.089   1.961 -32.073  1.00  0.00     0.152 C 
BRANCH   6   7
HETATM    7  C   UNL     1      -4.201   0.578 -32.498  1.00  0.00     0.011 A 
HETATM    8  C   UNL     1      -5.214   0.015 -33.340  1.00  0.00     0.004 A 
HETATM    9  C   UNL     1      -4.898  -1.331 -33.544  1.00  0.00     0.049 A 
HETATM   10  C   UNL     1      -6.362   0.541 -33.970  1.00  0.00     0.014 A 
HETATM   11  C   UNL     1      -5.659  -2.187 -34.365  1.00  0.00    -0.031 A 
HETATM   12  N   UNL     1      -3.756  -1.582 -32.814  1.00  0.00    -0.364 N 
HETATM   13  C   UNL     1      -6.798  -1.621 -34.968  1.00  0.00     0.009 A 
HETATM   14  C   UNL     1      -7.147  -0.286 -34.775  1.00  0.00     0.002 A 
HETATM   15  C   UNL     1      -3.324  -0.445 -32.193  1.00  0.00     0.102 A 
HETATM   16  H   UNL     1      -3.296  -2.481 -32.764  1.00  0.00     0.165 HD
BRANCH  11  17
HETATM   17  C   UNL     1      -5.327  -3.638 -34.608  1.00  0.00     0.036 C 
HETATM   18  C   UNL     1      -6.503  -4.398 -35.203  1.00  0.00     0.010 C 
ENDBRANCH  11  17
ENDBRANCH   6   7
ENDBRANCH   1   5
BRANCH   2  19
HETATM   19  C   UNL     1      -2.071   6.201 -31.905  1.00  0.00     0.157 A 
HETATM   20  N   UNL     1      -2.905   7.154 -32.215  1.00  0.00    -0.166 NA
HETATM   21  N   UNL     1      -2.861   8.300 -31.480  1.00  0.00    -0.242 N 
HETATM   22  C   UNL     1      -2.018   8.556 -30.424  1.00  0.00     0.272 A 
HETATM   23  H   UNL     1      -3.499   9.044 -31.751  1.00  0.00     0.192 HD
HETATM   24  O   UNL     1      -2.032   9.619 -29.814  1.00  0.00    -0.266 OA
HETATM   25  C   UNL     1      -1.096   7.468 -30.052  1.00  0.00     0.046 A 
HETATM   26  C   UNL     1      -1.112   6.283 -30.784  1.00  0.00     0.016 A 
HETATM   27  C   UNL     1      -0.227   7.620 -28.965  1.00  0.00     0.018 A 
HETATM   28  C   UNL     1      -0.259   5.235 -30.419  1.00  0.00     0.015 A 
HETATM   29  C   UNL     1       0.610   5.387 -29.335  1.00  0.00     0.001 A 
HETATM   30  C   UNL     1       0.628   6.576 -28.610  1.00  0.00     0.001 A 
ENDBRANCH   2  19
TORSDOF 4
ENDMDL
MODEL 2
REMARK VINA RESULT:      -9.5      1.923      2.861
REMARK  4 active torsions:
REMARK  status: ('A' for Active; 'I' for Inactive)
REMARK    1  A    between atoms: C_2  and  C_3 
REMARK    2  A    between atoms: C_6  and  C_7 
REMARK    3  A    between atoms: N_8  and  N_9 
REMARK       I    between atoms: N_9  and  C_10 
REMARK    4  A    between atoms: C_10  and  C_11 
ROOT
HETATM    1  N   UNL     1      -2.540   4.077 -31.384  1.00  0.00    -0.242 N 
HETATM    2  C   UNL     1      -1.465   4.874 -31.735  1.00  0.00     0.292 C 
HETATM    3  O   UNL     1      -1.023   5.124 -32.846  1.00  0.00    -0.264 OA
HETATM    4  H   UNL     1      -2.780   4.027 -30.394  1.00  0.00     0.192 HD
ENDROOT
BRANCH   1   5
HETATM    5  N   UNL     1      -3.221   3.186 -32.172  1.00  0.00    -0.183 NA
HETATM    6  C   UNL     1      -3.677   2.085 -31.668  1.00  0.00     0.152 C 
BRANCH   6   7
HETATM    7  C   UNL     1      -4.496   1.220 -32.497  1.00  0.00     0.011 A 
HETATM    8  C   UNL     1      -4.302  -0.179 -32.733  1.00  0.00     0.004 A 
HETATM    9  C   UNL     1      -5.358  -0.625 -33.535  1.00  0.00     0.049 A 
HETATM   10  C   UNL     1      -3.334  -1.115 -32.312  1.00  0.00     0.014 A 
HETATM   11  C   UNL     1      -5.514  -1.968 -33.930  1.00  0.00    -0.031 A 
HETATM   12  N   UNL     1      -6.137   0.479 -33.808  1.00  0.00    -0.364 N 
HETATM   13  C   UNL     1      -4.521  -2.865 -33.492  1.00  0.00     0.009 A 
HETATM   14  C   UNL     1      -3.451  -2.451 -32.702  1.00  0.00     0.002 A 
HETATM   15  C   UNL     1      -5.637   1.586 -33.184  1.00  0.00     0.102 A 
HETATM   16  H   UNL     1      -6.972   0.462 -34.377  1.00  0.00     0.165 HD
BRANCH  11  17
HETATM   17  C   UNL     1      -6.652  -2.471 -34.782  1.00  0.00     0.036 C 
HETATM   18  C   UNL     1      -6.590  -3.977 -34.981  1.00  0.00     0.010 C 
ENDBRANCH  11  17
ENDBRANCH   6   7
ENDBRANCH   1   5
BRANCH   2  19
HETATM   19  C   UNL     1      -0.758   5.440 -30.514  1.00  0.00     0.157 A 
HETATM   20  N   UNL     1       0.167   4.693 -29.978  1.00  0.00    -0.166 NA
HETATM   21  N   UNL     1       0.828   5.182 -28.892  1.00  0.00    -0.242 N 
HETATM   22  C   UNL     1       0.620   6.405 -28.298  1.00  0.00     0.272 A 
HETATM   23  H   UNL     1       1.527   4.577 -28.469  1.00  0.00     0.192 HD
HETATM   24  O   UNL     1       1.252   6.773 -27.314  1.00  0.00    -0.266 OA
HETATM   25  C   UNL     1      -0.402   7.264 -28.921  1.00  0.00     0.046 A 
HETATM   26  C   UNL     1      -1.100   6.794 -30.031  1.00  0.00     0.016 A 
HETATM   27  C   UNL     1      -0.657   8.542 -28.410  1.00  0.00     0.018 A 
HETATM   28  C   UNL     1      -2.054   7.615 -30.645  1.00  0.00     0.015 A 
HETATM   29  C   UNL     1      -2.309   8.891 -30.134  1.00  0.00     0.001 A 
HETATM   30  C   UNL     1      -1.614   9.354 -29.019  1.00  0.00     0.001 A 
ENDBRANCH   2  19
TORSDOF 4
ENDMDL
MODEL 3
REMARK VINA RESULT:      -9.1      2.488      9.609
REMARK  4 active torsions:
REMARK  status: ('A' for Active; 'I' for Inactive)
REMARK    1  A    between atoms: C_2  and  C_3 
REMARK    2  A    between atoms: C_6  and  C_7 
REMARK    3  A    between atoms: N_8  and  N_9 
REMARK       I    between atoms: N_9  and  C_10 
REMARK    4  A    between atoms: C_10  and  C_11 
ROOT
HETATM    1  N   UNL     1      -3.217   3.216 -32.204  1.00  0.00    -0.242 N 
HETATM    2  C   UNL     1      -4.300   2.581 -31.623  1.00  0.00     0.292 C 
HETATM    3  O   UNL     1      -4.687   2.624 -30.466  1.00  0.00    -0.264 OA
HETATM    4  H   UNL     1      -3.081   3.086 -33.206  1.00  0.00     0.192 HD
ENDROOT
BRANCH   1   5
HETATM    5  N   UNL     1      -2.178   3.854 -31.575  1.00  0.00    -0.183 NA
HETATM    6  C   UNL     1      -2.204   5.136 -31.410  1.00  0.00     0.152 C 
BRANCH   6   7
HETATM    7  C   UNL     1      -1.150   5.766 -30.638  1.00  0.00     0.011 A 
HETATM    8  C   UNL     1      -1.241   6.986 -29.892  1.00  0.00     0.004 A 
HETATM    9  C   UNL     1      -0.015   7.184 -29.249  1.00  0.00     0.049 A 
HETATM   10  C   UNL     1      -2.271   7.928 -29.685  1.00  0.00     0.014 A 
HETATM   11  C   UNL     1       0.239   8.270 -28.389  1.00  0.00    -0.031 A 
HETATM   12  N   UNL     1       0.802   6.141 -29.631  1.00  0.00    -0.364 N 
HETATM   13  C   UNL     1      -0.815   9.188 -28.216  1.00  0.00     0.009 A 
HETATM   14  C   UNL     1      -2.044   9.025 -28.851  1.00  0.00     0.002 A 
HETATM   15  C   UNL     1       0.130   5.281 -30.453  1.00  0.00     0.102 A 
HETATM   16  H   UNL     1       1.758   6.024 -29.326  1.00  0.00     0.165 HD
BRANCH  11  17
HETATM   17  C   UNL     1       1.549   8.494 -27.676  1.00  0.00     0.036 C 
HETATM   18  C   UNL     1       1.647   7.676 -26.398  1.00  0.00     0.010 C 
ENDBRANCH  11  17
ENDBRANCH   6   7
ENDBRANCH   1   5
BRANCH   2  19
HETATM   19  C   UNL     1      -5.028   1.687 -32.614  1.00  0.00     0.157 A 
HETATM   20  N   UNL     1      -5.939   2.257 -33.352  1.00  0.00    -0.166 NA
HETATM   21  N   UNL     1      -6.597   1.482 -34.260  1.00  0.00    -0.242 N 
HETATM   22  C   UNL     1      -6.390   0.140 -34.483  1.00  0.00     0.272 A 
HETATM   23  H   UNL     1      -7.323   1.934 -34.809  1.00  0.00     0.192 HD
HETATM   24  O   UNL     1      -7.029  -0.493 -35.315  1.00  0.00    -0.266 OA
HETATM   25  C   UNL     1      -5.339  -0.498 -33.671  1.00  0.00     0.046 A 
HETATM   26  C   UNL     1      -4.649   0.264 -32.732  1.00  0.00     0.016 A 
HETATM   27  C   UNL     1      -5.029  -1.851 -33.855  1.00  0.00     0.018 A 
HETATM   28  C   UNL     1      -3.630  -0.330 -31.976  1.00  0.00     0.015 A 
HETATM   29  C   UNL     1      -3.322  -1.681 -32.159  1.00  0.00     0.001 A 
HETATM   30  C   UNL     1      -4.020  -2.441 -33.095  1.00  0.00     0.001 A 
ENDBRANCH   2  19
TORSDOF 4
ENDMDL
MODEL 4
REMARK VINA RESULT:      -9.0      1.601      2.369
REMARK  4 active torsions:
REMARK  status: ('A' for Active; 'I' for Inactive)
REMARK    1  A    between atoms: C_2  and  C_3 
REMARK    2  A    between atoms: C_6  and  C_7 
REMARK    3  A    between atoms: N_8  and  N_9 
REMARK       I    between atoms: N_9  and  C_10 
REMARK    4  A    between atoms: C_10  and  C_11 
ROOT
HETATM    1  N   UNL     1      -2.621   3.648 -31.169  1.00  0.00    -0.242 N 
HETATM    2  C   UNL     1      -1.896   4.596 -31.868  1.00  0.00     0.292 C 
HETATM    3  O   UNL     1      -1.678   4.667 -33.068  1.00  0.00    -0.264 OA
HETATM    4  H   UNL     1      -2.724   3.787 -30.164  1.00  0.00     0.192 HD
ENDROOT
BRANCH   1   5
HETATM    5  N   UNL     1      -3.070   2.432 -31.616  1.00  0.00    -0.183 NA
HETATM    6  C   UNL     1      -4.247   2.009 -31.285  1.00  0.00     0.152 C 
BRANCH   6   7
HETATM    7  C   UNL     1      -4.740   0.776 -31.869  1.00  0.00     0.011 A 
HETATM    8  C   UNL     1      -5.628   0.648 -32.986  1.00  0.00     0.004 A 
HETATM    9  C   UNL     1      -5.783  -0.716 -33.251  1.00  0.00     0.049 A 
HETATM   10  C   UNL     1      -6.293   1.576 -33.814  1.00  0.00     0.014 A 
HETATM   11  C   UNL     1      -6.559  -1.212 -34.317  1.00  0.00    -0.031 A 
HETATM   12  N   UNL     1      -5.048  -1.388 -32.298  1.00  0.00    -0.364 N 
HETATM   13  C   UNL     1      -7.209  -0.250 -35.114  1.00  0.00     0.009 A 
HETATM   14  C   UNL     1      -7.083   1.115 -34.869  1.00  0.00     0.002 A 
HETATM   15  C   UNL     1      -4.411  -0.506 -31.472  1.00  0.00     0.102 A 
HETATM   16  H   UNL     1      -4.979  -2.395 -32.235  1.00  0.00     0.165 HD
BRANCH  11  17
HETATM   17  C   UNL     1      -6.728  -2.678 -34.628  1.00  0.00     0.036 C 
HETATM   18  C   UNL     1      -5.448  -3.295 -35.172  1.00  0.00     0.010 C 
ENDBRANCH  11  17
ENDBRANCH   6   7
ENDBRANCH   1   5
BRANCH   2  19
HETATM   19  C   UNL     1      -1.274   5.629 -30.942  1.00  0.00     0.157 A 
HETATM   20  N   UNL     1      -0.150   5.297 -30.372  1.00  0.00    -0.166 NA
HETATM   21  N   UNL     1       0.439   6.210 -29.549  1.00  0.00    -0.242 N 
HETATM   22  C   UNL     1      -0.038   7.467 -29.259  1.00  0.00     0.272 A 
HETATM   23  H   UNL     1       1.300   5.926 -29.090  1.00  0.00     0.192 HD
HETATM   24  O   UNL     1       0.546   8.231 -28.500  1.00  0.00    -0.266 OA
HETATM   25  C   UNL     1      -1.292   7.856 -29.928  1.00  0.00     0.046 A 
HETATM   26  C   UNL     1      -1.922   6.946 -30.773  1.00  0.00     0.016 A 
HETATM   27  C   UNL     1      -1.834   9.131 -29.725  1.00  0.00     0.018 A 
HETATM   28  C   UNL     1      -3.099   7.318 -31.433  1.00  0.00     0.015 A 
HETATM   29  C   UNL     1      -3.642   8.590 -31.230  1.00  0.00     0.001 A 
HETATM   30  C   UNL     1      -3.012   9.495 -30.378  1.00  0.00     0.001 A 
ENDBRANCH   2  19
TORSDOF 4
ENDMDL
MODEL 5
REMARK VINA RESULT:      -8.9      7.043      9.880
REMARK  4 active torsions:
REMARK  status: ('A' for Active; 'I' for Inactive)
REMARK    1  A    between atoms: C_2  and  C_3 
REMARK    2  A    between atoms: C_6  and  C_7 
REMARK    3  A    between atoms: N_8  and  N_9 
REMARK       I    between atoms: N_9  and  C_10 
REMARK    4  A    between atoms: C_10  and  C_11 
ROOT
HETATM    1  N   UNL     1     -11.212   0.414 -32.892  1.00  0.00    -0.242 N 
HETATM    2  C   UNL     1     -11.728   1.401 -33.712  1.00  0.00     0.292 C 
HETATM    3  O   UNL     1     -11.196   1.982 -34.645  1.00  0.00    -0.264 OA
HETATM    4  H   UNL     1     -11.834   0.021 -32.187  1.00  0.00     0.192 HD
ENDROOT
BRANCH   1   5
HETATM    5  N   UNL     1      -9.905   0.016 -32.772  1.00  0.00    -0.183 NA
HETATM    6  C   UNL     1      -9.048   0.769 -32.162  1.00  0.00     0.152 C 
BRANCH   6   7
HETATM    7  C   UNL     1      -7.703   0.268 -31.946  1.00  0.00     0.011 A 
HETATM    8  C   UNL     1      -6.953  -0.586 -32.817  1.00  0.00     0.004 A 
HETATM    9  C   UNL     1      -5.686  -0.762 -32.252  1.00  0.00     0.049 A 
HETATM   10  C   UNL     1      -7.231  -1.204 -34.054  1.00  0.00     0.014 A 
HETATM   11  C   UNL     1      -4.665  -1.514 -32.866  1.00  0.00    -0.031 A 
HETATM   12  N   UNL     1      -5.688  -0.074 -31.058  1.00  0.00    -0.364 N 
HETATM   13  C   UNL     1      -4.989  -2.118 -34.096  1.00  0.00     0.009 A 
HETATM   14  C   UNL     1      -6.245  -1.970 -34.680  1.00  0.00     0.002 A 
HETATM   15  C   UNL     1      -6.886   0.556 -30.870  1.00  0.00     0.102 A 
HETATM   16  H   UNL     1      -4.903  -0.028 -30.423  1.00  0.00     0.165 HD
BRANCH  11  17
HETATM   17  C   UNL     1      -3.289  -1.705 -32.280  1.00  0.00     0.036 C 
HETATM   18  C   UNL     1      -3.043  -3.148 -31.867  1.00  0.00     0.010 C 
ENDBRANCH  11  17
ENDBRANCH   6   7
ENDBRANCH   1   5
BRANCH   2  19
HETATM   19  C   UNL     1     -13.136   1.800 -33.300  1.00  0.00     0.157 A 
HETATM   20  N   UNL     1     -14.099   1.005 -33.673  1.00  0.00    -0.166 NA
HETATM   21  N   UNL     1     -15.370   1.329 -33.304  1.00  0.00    -0.242 N 
HETATM   22  C   UNL     1     -15.745   2.424 -32.561  1.00  0.00     0.272 A 
HETATM   23  H   UNL     1     -16.112   0.714 -33.626  1.00  0.00     0.192 HD
HETATM   24  O   UNL     1     -16.914   2.654 -32.275  1.00  0.00    -0.266 OA
HETATM   25  C   UNL     1     -14.654   3.307 -32.111  1.00  0.00     0.046 A 
HETATM   26  C   UNL     1     -13.343   3.007 -32.473  1.00  0.00     0.016 A 
HETATM   27  C   UNL     1     -14.934   4.425 -31.316  1.00  0.00     0.018 A 
HETATM   28  C   UNL     1     -12.299   3.826 -32.026  1.00  0.00     0.015 A 
HETATM   29  C   UNL     1     -12.578   4.943 -31.234  1.00  0.00     0.001 A 
HETATM   30  C   UNL     1     -13.892   5.244 -30.880  1.00  0.00     0.001 A 
ENDBRANCH   2  19
TORSDOF 4
ENDMDL
MODEL 6
REMARK VINA RESULT:      -8.9      1.491      2.107
REMARK  4 active torsions:
REMARK  status: ('A' for Active; 'I' for Inactive)
REMARK    1  A    between atoms: C_2  and  C_3 
REMARK    2  A    between atoms: C_6  and  C_7 
REMARK    3  A    between atoms: N_8  and  N_9 
REMARK       I    between atoms: N_9  and  C_10 
REMARK    4  A    between atoms: C_10  and  C_11 
ROOT
HETATM    1  N   UNL     1      -4.488   4.827 -32.676  1.00  0.00    -0.242 N 
HETATM    2  C   UNL     1      -3.826   5.891 -33.261  1.00  0.00     0.292 C 
HETATM    3  O   UNL     1      -3.637   6.122 -34.445  1.00  0.00    -0.264 OA
HETATM    4  H   UNL     1      -4.578   4.834 -31.661  1.00  0.00     0.192 HD
ENDROOT
BRANCH   1   5
HETATM    5  N   UNL     1      -4.884   3.654 -33.266  1.00  0.00    -0.183 NA
HETATM    6  C   UNL     1      -5.368   2.693 -32.547  1.00  0.00     0.152 C 
BRANCH   6   7
HETATM    7  C   UNL     1      -5.888   1.513 -33.212  1.00  0.00     0.011 A 
HETATM    8  C   UNL     1      -5.267   0.225 -33.289  1.00  0.00     0.004 A 
HETATM    9  C   UNL     1      -6.144  -0.631 -33.962  1.00  0.00     0.049 A 
HETATM   10  C   UNL     1      -4.043  -0.297 -32.820  1.00  0.00     0.014 A 
HETATM   11  C   UNL     1      -5.875  -1.996 -34.181  1.00  0.00    -0.031 A 
HETATM   12  N   UNL     1      -7.239   0.128 -34.317  1.00  0.00    -0.364 N 
HETATM   13  C   UNL     1      -4.639  -2.472 -33.701  1.00  0.00     0.009 A 
HETATM   14  C   UNL     1      -3.739  -1.643 -33.037  1.00  0.00     0.002 A 
HETATM   15  C   UNL     1      -7.102   1.410 -33.864  1.00  0.00     0.102 A 
HETATM   16  H   UNL     1      -8.038  -0.225 -34.826  1.00  0.00     0.165 HD
BRANCH  11  17
HETATM   17  C   UNL     1      -6.813  -2.938 -34.893  1.00  0.00     0.036 C 
HETATM   18  C   UNL     1      -6.276  -4.361 -34.922  1.00  0.00     0.010 C 
ENDBRANCH  11  17
ENDBRANCH   6   7
ENDBRANCH   1   5
BRANCH   2  19
HETATM   19  C   UNL     1      -3.238   6.832 -32.221  1.00  0.00     0.157 A 
HETATM   20  N   UNL     1      -3.997   7.819 -31.835  1.00  0.00    -0.166 NA
HETATM   21  N   UNL     1      -3.501   8.669 -30.892  1.00  0.00    -0.242 N 
HETATM   22  C   UNL     1      -2.266   8.585 -30.293  1.00  0.00     0.272 A 
HETATM   23  H   UNL     1      -4.093   9.450 -30.621  1.00  0.00     0.192 HD
HETATM   24  O   UNL     1      -1.886   9.395 -29.456  1.00  0.00    -0.266 OA
HETATM   25  C   UNL     1      -1.420   7.451 -30.705  1.00  0.00     0.046 A 
HETATM   26  C   UNL     1      -1.894   6.565 -31.670  1.00  0.00     0.016 A 
HETATM   27  C   UNL     1      -0.161   7.261 -30.122  1.00  0.00     0.018 A 
HETATM   28  C   UNL     1      -1.107   5.470 -32.046  1.00  0.00     0.015 A 
HETATM   29  C   UNL     1       0.150   5.280 -31.465  1.00  0.00     0.001 A 
HETATM   30  C   UNL     1       0.623   6.174 -30.506  1.00  0.00     0.001 A 
ENDBRANCH   2  19
TORSDOF 4
ENDMDL
MODEL 7
REMARK VINA RESULT:      -8.3      6.239      9.964
REMARK  4 active torsions:
REMARK  status: ('A' for Active; 'I' for Inactive)
REMARK    1  A    between atoms: C_2  and  C_3 
REMARK    2  A    between atoms: C_6  and  C_7 
REMARK    3  A    between atoms: N_8  and  N_9 
REMARK       I    between atoms: N_9  and  C_10 
REMARK    4  A    between atoms: C_10  and  C_11 
ROOT
HETATM    1  N   UNL     1      -8.659   1.127 -34.325  1.00  0.00    -0.242 N 
HETATM    2  C   UNL     1      -8.317   0.423 -33.185  1.00  0.00     0.292 C 
HETATM    3  O   UNL     1      -9.025   0.086 -32.248  1.00  0.00    -0.264 OA
HETATM    4  H   UNL     1      -7.927   1.277 -35.018  1.00  0.00     0.192 HD
ENDROOT
BRANCH   1   5
HETATM    5  N   UNL     1      -9.814   1.823 -34.571  1.00  0.00    -0.183 NA
HETATM    6  C   UNL     1     -10.028   2.959 -33.990  1.00  0.00     0.152 C 
BRANCH   6   7
HETATM    7  C   UNL     1     -11.201   3.728 -34.361  1.00  0.00     0.011 A 
HETATM    8  C   UNL     1     -11.224   5.040 -34.934  1.00  0.00     0.004 A 
HETATM    9  C   UNL     1     -12.559   5.368 -35.193  1.00  0.00     0.049 A 
HETATM   10  C   UNL     1     -10.222   5.970 -35.283  1.00  0.00     0.014 A 
HETATM   11  C   UNL     1     -12.953   6.576 -35.801  1.00  0.00    -0.031 A 
HETATM   12  N   UNL     1     -13.318   4.307 -34.748  1.00  0.00    -0.364 N 
HETATM   13  C   UNL     1     -11.920   7.476 -36.126  1.00  0.00     0.009 A 
HETATM   14  C   UNL     1     -10.582   7.183 -35.872  1.00  0.00     0.002 A 
HETATM   15  C   UNL     1     -12.515   3.315 -34.259  1.00  0.00     0.102 A 
HETATM   16  H   UNL     1     -14.326   4.265 -34.798  1.00  0.00     0.165 HD
BRANCH  11  17
HETATM   17  C   UNL     1     -14.385   6.942 -36.100  1.00  0.00     0.036 C 
HETATM   18  C   UNL     1     -14.527   7.622 -37.453  1.00  0.00     0.010 C 
ENDBRANCH  11  17
ENDBRANCH   6   7
ENDBRANCH   1   5
BRANCH   2  19
HETATM   19  C   UNL     1      -6.831   0.106 -33.140  1.00  0.00     0.157 A 
HETATM   20  N   UNL     1      -6.066   0.988 -32.560  1.00  0.00    -0.166 NA
HETATM   21  N   UNL     1      -4.731   0.722 -32.491  1.00  0.00    -0.242 N 
HETATM   22  C   UNL     1      -4.101  -0.401 -32.973  1.00  0.00     0.272 A 
HETATM   23  H   UNL     1      -4.143   1.432 -32.060  1.00  0.00     0.192 HD
HETATM   24  O   UNL     1      -2.890  -0.566 -32.880  1.00  0.00    -0.266 OA
HETATM   25  C   UNL     1      -4.969  -1.413 -33.600  1.00  0.00     0.046 A 
HETATM   26  C   UNL     1      -6.338  -1.173 -33.690  1.00  0.00     0.016 A 
HETATM   27  C   UNL     1      -4.423  -2.608 -34.085  1.00  0.00     0.018 A 
HETATM   28  C   UNL     1      -7.172  -2.142 -34.260  1.00  0.00     0.015 A 
HETATM   29  C   UNL     1      -6.628  -3.334 -34.746  1.00  0.00     0.001 A 
HETATM   30  C   UNL     1      -5.257  -3.567 -34.660  1.00  0.00     0.001 A 
ENDBRANCH   2  19
TORSDOF 4
ENDMDL
MODEL 8
REMARK VINA RESULT:      -8.2      4.068      5.390
REMARK  4 active torsions:
REMARK  status: ('A' for Active; 'I' for Inactive)
REMARK    1  A    between atoms: C_2  and  C_3 
REMARK    2  A    between atoms: C_6  and  C_7 
REMARK    3  A    between atoms: N_8  and  N_9 
REMARK       I    between atoms: N_9  and  C_10 
REMARK    4  A    between atoms: C_10  and  C_11 
ROOT
HETATM    1  N   UNL     1      -6.183   4.220 -32.139  1.00  0.00    -0.242 N 
HETATM    2  C   UNL     1      -4.956   3.718 -31.744  1.00  0.00     0.292 C 
HETATM    3  O   UNL     1      -4.631   2.560 -31.531  1.00  0.00    -0.264 OA
HETATM    4  H   UNL     1      -6.245   5.223 -32.307  1.00  0.00     0.192 HD
ENDROOT
BRANCH   1   5
HETATM    5  N   UNL     1      -7.392   3.573 -32.154  1.00  0.00    -0.183 NA
HETATM    6  C   UNL     1      -7.858   3.089 -33.260  1.00  0.00     0.152 C 
BRANCH   6   7
HETATM    7  C   UNL     1      -9.080   2.307 -33.224  1.00  0.00     0.011 A 
HETATM    8  C   UNL     1     -10.262   2.520 -34.004  1.00  0.00     0.004 A 
HETATM    9  C   UNL     1     -11.164   1.497 -33.699  1.00  0.00     0.049 A 
HETATM   10  C   UNL     1     -10.634   3.482 -34.967  1.00  0.00     0.014 A 
HETATM   11  C   UNL     1     -12.423   1.366 -34.318  1.00  0.00    -0.031 A 
HETATM   12  N   UNL     1     -10.563   0.718 -32.733  1.00  0.00    -0.364 N 
HETATM   13  C   UNL     1     -12.754   2.351 -35.268  1.00  0.00     0.009 A 
HETATM   14  C   UNL     1     -11.882   3.389 -35.587  1.00  0.00     0.002 A 
HETATM   15  C   UNL     1      -9.311   1.187 -32.449  1.00  0.00     0.102 A 
HETATM   16  H   UNL     1     -10.986  -0.097 -32.311  1.00  0.00     0.165 HD
BRANCH  11  17
HETATM   17  C   UNL     1     -13.404   0.263 -34.012  1.00  0.00     0.036 C 
HETATM   18  C   UNL     1     -14.844   0.724 -34.169  1.00  0.00     0.010 C 
ENDBRANCH  11  17
ENDBRANCH   6   7
ENDBRANCH   1   5
BRANCH   2  19
HETATM   19  C   UNL     1      -3.939   4.825 -31.517  1.00  0.00     0.157 A 
HETATM   20  N   UNL     1      -3.936   5.379 -30.337  1.00  0.00    -0.166 NA
HETATM   21  N   UNL     1      -3.024   6.364 -30.100  1.00  0.00    -0.242 N 
HETATM   22  C   UNL     1      -2.088   6.835 -30.991  1.00  0.00     0.272 A 
HETATM   23  H   UNL     1      -3.053   6.805 -29.184  1.00  0.00     0.192 HD
HETATM   24  O   UNL     1      -1.304   7.732 -30.706  1.00  0.00    -0.266 OA
HETATM   25  C   UNL     1      -2.069   6.187 -32.314  1.00  0.00     0.046 A 
HETATM   26  C   UNL     1      -2.990   5.180 -32.592  1.00  0.00     0.016 A 
HETATM   27  C   UNL     1      -1.126   6.573 -33.274  1.00  0.00     0.018 A 
HETATM   28  C   UNL     1      -2.959   4.541 -33.837  1.00  0.00     0.015 A 
HETATM   29  C   UNL     1      -2.019   4.927 -34.797  1.00  0.00     0.001 A 
HETATM   30  C   UNL     1      -1.104   5.940 -34.518  1.00  0.00     0.001 A 
ENDBRANCH   2  19
TORSDOF 4
ENDMDL
MODEL 9
REMARK VINA RESULT:      -8.1      6.335      8.913
REMARK  4 active torsions:
REMARK  status: ('A' for Active; 'I' for Inactive)
REMARK    1  A    between atoms: C_2  and  C_3 
REMARK    2  A    between atoms: C_6  and  C_7 
REMARK    3  A    between atoms: N_8  and  N_9 
REMARK       I    between atoms: N_9  and  C_10 
REMARK    4  A    between atoms: C_10  and  C_11 
ROOT
HETATM    1  N   UNL     1      -8.977   1.333 -33.457  1.00  0.00    -0.242 N 
HETATM    2  C   UNL     1      -9.483   2.063 -32.396  1.00  0.00     0.292 C 
HETATM    3  O   UNL     1      -9.084   2.123 -31.243  1.00  0.00    -0.264 OA
HETATM    4  H   UNL     1      -9.430   1.449 -34.362  1.00  0.00     0.192 HD
ENDROOT
BRANCH   1   5
HETATM    5  N   UNL     1      -8.053   0.320 -33.418  1.00  0.00    -0.183 NA
HETATM    6  C   UNL     1      -6.944   0.424 -34.076  1.00  0.00     0.152 C 
BRANCH   6   7
HETATM    7  C   UNL     1      -5.937  -0.609 -33.920  1.00  0.00     0.011 A 
HETATM    8  C   UNL     1      -6.067  -1.996 -34.255  1.00  0.00     0.004 A 
HETATM    9  C   UNL     1      -4.837  -2.611 -34.005  1.00  0.00     0.049 A 
HETATM   10  C   UNL     1      -7.119  -2.779 -34.775  1.00  0.00     0.014 A 
HETATM   11  C   UNL     1      -4.588  -3.973 -34.264  1.00  0.00    -0.031 A 
HETATM   12  N   UNL     1      -4.006  -1.636 -33.496  1.00  0.00    -0.364 N 
HETATM   13  C   UNL     1      -5.668  -4.717 -34.778  1.00  0.00     0.009 A 
HETATM   14  C   UNL     1      -6.909  -4.136 -35.027  1.00  0.00     0.002 A 
HETATM   15  C   UNL     1      -4.650  -0.432 -33.450  1.00  0.00     0.102 A 
HETATM   16  H   UNL     1      -3.048  -1.792 -33.214  1.00  0.00     0.165 HD
BRANCH  11  17
HETATM   17  C   UNL     1      -3.264  -4.652 -34.015  1.00  0.00     0.036 C 
HETATM   18  C   UNL     1      -2.830  -4.531 -32.562  1.00  0.00     0.010 C 
ENDBRANCH  11  17
ENDBRANCH   6   7
ENDBRANCH   1   5
BRANCH   2  19
HETATM   19  C   UNL     1     -10.739   2.827 -32.784  1.00  0.00     0.157 A 
HETATM   20  N   UNL     1     -10.677   4.127 -32.702  1.00  0.00    -0.166 NA
HETATM   21  N   UNL     1     -11.782   4.839 -33.059  1.00  0.00    -0.242 N 
HETATM   22  C   UNL     1     -12.973   4.318 -33.510  1.00  0.00     0.272 A 
HETATM   23  H   UNL     1     -11.728   5.850 -32.963  1.00  0.00     0.192 HD
HETATM   24  O   UNL     1     -13.929   5.025 -33.805  1.00  0.00    -0.266 OA
HETATM   25  C   UNL     1     -13.033   2.851 -33.634  1.00  0.00     0.046 A 
HETATM   26  C   UNL     1     -11.923   2.092 -33.274  1.00  0.00     0.016 A 
HETATM   27  C   UNL     1     -14.190   2.231 -34.121  1.00  0.00     0.018 A 
HETATM   28  C   UNL     1     -11.963   0.699 -33.416  1.00  0.00     0.015 A 
HETATM   29  C   UNL     1     -13.119   0.080 -33.901  1.00  0.00     0.001 A 
HETATM   30  C   UNL     1     -14.230   0.843 -34.253  1.00  0.00     0.001 A 
ENDBRANCH   2  19
TORSDOF 4
ENDMDL
MODEL 10
REMARK VINA RESULT:      -8.1      2.457      2.811
REMARK  4 active torsions:
REMARK  status: ('A' for Active; 'I' for Inactive)
REMARK    1  A    between atoms: C_2  and  C_3 
REMARK    2  A    between atoms: C_6  and  C_7 
REMARK    3  A    between atoms: N_8  and  N_9 
REMARK       I    between atoms: N_9  and  C_10 
REMARK    4  A    between atoms: C_10  and  C_11 
ROOT
HETATM    1  N   UNL     1      -4.681   3.942 -29.924  1.00  0.00    -0.242 N 
HETATM    2  C   UNL     1      -5.297   5.170 -30.082  1.00  0.00     0.292 C 
HETATM    3  O   UNL     1      -6.434   5.418 -30.456  1.00  0.00    -0.264 OA
HETATM    4  H   UNL     1      -3.730   3.941 -29.557  1.00  0.00     0.192 HD
ENDROOT
BRANCH   1   5
HETATM    5  N   UNL     1      -5.110   2.719 -30.372  1.00  0.00    -0.183 NA
HETATM    6  C   UNL     1      -4.948   2.386 -31.612  1.00  0.00     0.152 C 
BRANCH   6   7
HETATM    7  C   UNL     1      -5.303   1.043 -32.029  1.00  0.00     0.011 A 
HETATM    8  C   UNL     1      -6.065   0.673 -33.185  1.00  0.00     0.004 A 
HETATM    9  C   UNL     1      -6.108  -0.723 -33.237  1.00  0.00     0.049 A 
HETATM   10  C   UNL     1      -6.701   1.407 -34.208  1.00  0.00     0.014 A 
HETATM   11  C   UNL     1      -6.742  -1.438 -34.273  1.00  0.00    -0.031 A 
HETATM   12  N   UNL     1      -5.432  -1.180 -32.126  1.00  0.00    -0.364 N 
HETATM   13  C   UNL     1      -7.369  -0.665 -35.270  1.00  0.00     0.009 A 
HETATM   14  C   UNL     1      -7.352   0.727 -35.240  1.00  0.00     0.002 A 
HETATM   15  C   UNL     1      -4.937  -0.132 -31.402  1.00  0.00     0.102 A 
HETATM   16  H   UNL     1      -5.307  -2.155 -31.894  1.00  0.00     0.165 HD
BRANCH  11  17
HETATM   17  C   UNL     1      -6.788  -2.943 -34.355  1.00  0.00     0.036 C 
HETATM   18  C   UNL     1      -5.534  -3.515 -34.997  1.00  0.00     0.010 C 
ENDBRANCH  11  17
ENDBRANCH   6   7
ENDBRANCH   1   5
BRANCH   2  19
HETATM   19  C   UNL     1      -4.352   6.321 -29.780  1.00  0.00     0.157 A 
HETATM   20  N   UNL     1      -4.346   6.762 -28.553  1.00  0.00    -0.166 NA
HETATM   21  N   UNL     1      -3.495   7.783 -28.250  1.00  0.00    -0.242 N 
HETATM   22  C   UNL     1      -2.626   8.400 -29.118  1.00  0.00     0.272 A 
HETATM   23  H   UNL     1      -3.522   8.134 -27.296  1.00  0.00     0.192 HD
HETATM   24  O   UNL     1      -1.896   9.321 -28.772  1.00  0.00    -0.266 OA
HETATM   25  C   UNL     1      -2.609   7.882 -30.497  1.00  0.00     0.046 A 
HETATM   26  C   UNL     1      -3.467   6.841 -30.843  1.00  0.00     0.016 A 
HETATM   27  C   UNL     1      -1.728   8.421 -31.443  1.00  0.00     0.018 A 
HETATM   28  C   UNL     1      -3.436   6.325 -32.144  1.00  0.00     0.015 A 
HETATM   29  C   UNL     1      -2.559   6.864 -33.089  1.00  0.00     0.001 A 
HETATM   30  C   UNL     1      -1.707   7.910 -32.741  1.00  0.00     0.001 A 
ENDBRANCH   2  19
TORSDOF 4
ENDMDL
